data_image0
_chemical_formula_structural       FeS2FeS2FeSFeS3FeS2FeS2FeSFeS3FeS2FeS2FeSFeS3FeS2FeS2FeSFeS3FeS2FeS2FeSFeS3FeS2FeS2FeSFeS3C6H4C6H4C6H4C6H4C6H4C6H4C6H4C6H4C6H4C6H4C6H4C6H4FeS2FeS2FeSFeS3FeS2FeS2FeSFeS3FeS2FeS2FeSFeS3FeS2FeS2FeSFeS3FeS2FeS2FeSFeS3FeS2FeS2FeSFeS3C6H4C6H4C6H4C6H4C6H4C6H4C6H4C6H4C6H4C6H4C6H4C6H4NC4H12NC4H12NC4H12NC4H12NC4H12NC4H12NC4H12NC4H12NC4H12NC4H12NC4H12NC4H12NC4H12NC4H12NC4H12NC4H12NC4H12NC4H12NC4H12NC4H12NC4H12NC4H12NC4H12NC4H12
_chemical_formula_sum              "Fe48 S96 C240 H384 N24"
_cell_length_a       36.429532984834296
_cell_length_b       36.62160661109894
_cell_length_c       38.63941132829201
_cell_angle_alpha    90.07792207807691
_cell_angle_beta     89.80870171964851
_cell_angle_gamma    119.60265034127798

_space_group_name_H-M_alt    "P 1"
_space_group_IT_number       1

loop_
  _space_group_symop_operation_xyz
  'x, y, z'

loop_
  _atom_site_type_symbol
  _atom_site_label
  _atom_site_symmetry_multiplicity
  _atom_site_fract_x
  _atom_site_fract_y
  _atom_site_fract_z
  _atom_site_occupancy
  Fe  Fe1       1.0  0.40345633689990507  0.5698852951832235  0.23556736739722664  1.0000
  S   S1        1.0  0.4532853207200979  0.5965584757254772  0.19436600491170716  1.0000
  S   S2        1.0  0.33647263538243044  0.5572105747941549  0.22870245607533685  1.0000
  Fe  Fe2       1.0  0.463978558358123  0.5658133859967077  0.2893715519414393  1.0000
  S   S3        1.0  0.5180063471674509  0.5916409466288143  0.25158478014665275  1.0000
  S   S4        1.0  0.4736059281194621  0.5583226662030184  0.34650022386492413  1.0000
  Fe  Fe3       1.0  0.4954375504088622  0.6370135160741871  0.23740698080160838  1.0000
  S   S5        1.0  0.5388678385132359  0.707089360979568  0.23324534315226983  1.0000
  Fe  Fe4       1.0  0.470387668551989  0.5484496051736109  0.21245835673739083  1.0000
  S   S6        1.0  0.4709106329956032  0.4981838559355643  0.17793480730689032  1.0000
  S   S7        1.0  0.44433422567345904  0.6137293170600571  0.27714801490797325  1.0000
  S   S8        1.0  0.41762528611256916  0.519333687287732  0.2517801289562152  1.0000
  Fe  Fe5       1.0  0.1347877992122759  0.5420556651560178  0.017902058908146667  1.0000
  S   S9        1.0  0.11144656610458512  0.5770512294020574  0.050837299088276555  1.0000
  S   S10       1.0  0.06487951463266427  0.4653779686804774  0.4896385796017539  1.0000
  Fe  Fe6       1.0  0.2037203645141486  0.5541259701094073  0.07080978789002339  1.0000
  S   S11       1.0  0.18402476071457158  0.5884464246140944  0.10764076247812276  1.0000
  S   S12       1.0  0.26245995524466603  0.5485118352076385  0.07850294128236204  1.0000
  Fe  Fe7       1.0  0.11710502085592603  0.5397587096460956  0.09501568903754691  1.0000
  S   S13       1.0  0.06700026963344119  0.49478792229640933  0.1328259939357084  1.0000
  Fe  Fe8       1.0  0.18102818535351617  0.6223746215365346  0.05992493709955582  1.0000
  S   S14       1.0  0.21984470596308256  0.6936754874167268  0.05980673300410876  1.0000
  S   S15       1.0  0.13758784588468465  0.5027730522813952  0.06115209166330149  1.0000
  S   S16       1.0  0.20347241447765824  0.589840519264456  0.0238307782792888  1.0000
  Fe  Fe9       1.0  0.4958008079358941  0.8346049046036543  0.3757886423945935  1.0000
  S   S17       1.0  0.43744977964336673  0.8087657929205632  0.34399653894881116  1.0000
  S   S18       1.0  0.549783106259366  0.8254041179431486  0.3580286107810831  1.0000
  Fe  Fe10      1.0  0.4616532987691258  0.8733454240854117  0.42865334495103574  1.0000
  S   S19       1.0  0.40081823178172243  0.8501214150257562  0.3990892992631524  1.0000
  S   S20       1.0  0.46185841588116433  0.8981910621349235  0.4826091047937796  1.0000
  Fe  Fe11      1.0  0.4024035210679368  0.7897000393090123  0.3943802415796585  1.0000
  S   S21       1.0  0.35427264170705336  0.7211253613133337  0.40252924776447907  1.0000
  Fe  Fe12      1.0  0.44316182544121596  0.8722303198857259  0.3518477800508401  1.0000
  S   S22       1.0  0.43813565326174997  0.9032315452535328  0.302503008413238  1.0000
  S   S23       1.0  0.46089955888454875  0.8115853509902196  0.4260080426857588  1.0000
  S   S24       1.0  0.5037109913897354  0.8993169893600502  0.38175150462884916  1.0000
  Fe  Fe13      1.0  0.8980577370825634  0.45323504742175763  0.3495156581598201  1.0000
  S   S25       1.0  0.8765301311925535  0.49024918336858603  0.31721448844879496  1.0000
  S   S26       1.0  0.9391358095175429  0.4935784716613102  0.39389643623432113  1.0000
  Fe  Fe14      1.0  0.8537269075582541  0.37761184527660663  0.3010638067889292  1.0000
  S   S27       1.0  0.8310706754131321  0.4101907579039318  0.2652332272747835  1.0000
  S   S28       1.0  0.8389529763827941  0.3110338200535198  0.29049271109117564  1.0000
  Fe  Fe15      1.0  0.896282897215654  0.4657474583174886  0.27156169224351984  1.0000
  S   S29       1.0  0.9368718531488932  0.514103734561652  0.23112524831376444  1.0000
  Fe  Fe16      1.0  0.8139591372077141  0.4313403188195889  0.3145349266308173  1.0000
  S   S30       1.0  0.747916596564929  0.42265043543886843  0.31827929260227583  1.0000
  S   S31       1.0  0.9206602041874851  0.43156518387640463  0.3038359806659422  1.0000
  S   S32       1.0  0.8333426472257592  0.395670323867278  0.35027239202203686  1.0000
  Fe  Fe17      1.0  0.5288550317748824  0.4092785195937536  0.45339959605548397  1.0000
  S   S33       1.0  0.5744928716902281  0.4697273587661816  0.47961570894145883  1.0000
  S   S34       1.0  0.490085537823878  0.40502557911553383  0.4060756032580664  1.0000
  Fe  Fe18      1.0  0.5614758424870441  0.35768847180413027  0.49403226053127886  1.0000
  S   S35       1.0  0.6091011973621446  0.4150826616733447  0.5220509752259308  1.0000
  S   S36       1.0  0.5676825358733025  0.2989154174144377  0.4971917475318111  1.0000
  Fe  Fe19      1.0  0.5564569436781125  0.4302712478943502  0.5282127613382537  1.0000
  S   S37       1.0  0.5909913950143456  0.5285550603643114  0.04812414152666984  1.0000
  Fe  Fe20      1.0  0.621628097657502  0.44758807043807364  0.47055197128975795  1.0000
  S   S38       1.0  0.6878643683165128  0.4865253360913998  0.44858783624550136  1.0000
  S   S39       1.0  0.5077055336973267  0.3705232438638797  0.5023413528444475  1.0000
  S   S40       1.0  0.5769657184171866  0.38954219603643764  0.44228485315056765  1.0000
  Fe  Fe21      1.0  0.5706716300667549  0.11525796442045882  0.13138056012996666  1.0000
  S   S41       1.0  0.5362208197692255  0.13084654765518194  0.17231133174548152  1.0000
  S   S42       1.0  0.5294335445147836  0.07946558632632297  0.08568381108878698  1.0000
  Fe  Fe22      1.0  0.6560940255809533  0.17103491857010347  0.16613748913719667  1.0000
  S   S43       1.0  0.6269482516050601  0.19014938018843666  0.2080106115492419  1.0000
  S   S44       1.0  0.7263733345422101  0.1958649028414842  0.16744387989549195  1.0000
  Fe  Fe23      1.0  0.578031470041819  0.1216260399227072  0.20997168721080528  1.0000
  S   S45       1.0  0.567880646398322  0.09360763286802475  0.2638923101505806  1.0000
  Fe  Fe24      1.0  0.5892316972449978  0.19728569620145617  0.16545727604536223  1.0000
  S   S46       1.0  0.5832486056683351  0.2561743850298694  0.16234049558812166  1.0000
  S   S47       1.0  0.6091441131825673  0.1018662468114521  0.1696254663990811  1.0000
  S   S48       1.0  0.6216252670832311  0.18229861507689415  0.12314566935174846  1.0000
  C   C1        1.0  0.5770960528780935  0.3104980698345988  0.05670971575153738  1.0000
  C   C2        1.0  0.5758868074871517  0.330353453803252  0.08733661056203337  1.0000
  C   C3        1.0  0.579298318712805  0.3143684298041586  0.11964462601497176  1.0000
  C   C4        1.0  0.5847027042568181  0.2789746818986007  0.12151858952590351  1.0000
  C   C5        1.0  0.5880743007137785  0.26062241872873354  0.09080664831871478  1.0000
  C   C6        1.0  0.5834939717316869  0.27579124994079296  0.05866515386603628  1.0000
  H   H1        1.0  0.5706415658985768  0.3569556138703736  0.08615275534644926  1.0000
  H   H2        1.0  0.57654766167583  0.3288389813283395  0.1432119696746668  1.0000
  H   H3        1.0  0.5929749286160224  0.23392548337333857  0.09163788767623003  1.0000
  H   H4        1.0  0.5857786934767545  0.23417682901008635  0.5167692813751906  1.0000
  C   C7        1.0  0.7322598581744391  0.4411780684120531  0.35451096002393967  1.0000
  C   C8        1.0  0.7616142519478301  0.47062761438288303  0.3774793776410683  1.0000
  C   C9        1.0  0.7476600218270741  0.4846015808548252  0.40603045087565337  1.0000
  C   C10       1.0  0.7043540346953661  0.46852943452463053  0.41230335401676144  1.0000
  C   C11       1.0  0.6751610711760161  0.4388474012645759  0.3893867522139324  1.0000
  C   C12       1.0  0.6890646079465905  0.4257606039617266  0.3604135874662002  1.0000
  H   H5        1.0  0.7950513814315029  0.48300542773897215  0.3730261803977255  1.0000
  H   H6        1.0  0.770569056932772  0.5077937309793428  0.4234279460323224  1.0000
  H   H7        1.0  0.6418305779072665  0.42639938170889935  0.39338624162585195  1.0000
  H   H8        1.0  0.6661676043436803  0.40312680739421974  0.342682534372991  1.0000
  C   C13       1.0  0.7580863597169222  0.23148309965850505  0.19990739501838337  1.0000
  C   C14       1.0  0.796947784461964  0.23435168981037988  0.20743065432436267  1.0000
  C   C15       1.0  0.8221080364475862  0.26012302288978234  0.23438201614548504  1.0000
  C   C16       1.0  0.8093940768544337  0.28438337532033214  0.2535833173436659  1.0000
  C   C17       1.0  0.771083244212522  0.28277993200212626  0.2454691108382357  1.0000
  C   C18       1.0  0.7452464733196995  0.25600541257195286  0.21883209569963066  1.0000
  H   H9        1.0  0.8072459337245439  0.2157291226200454  0.19289240257251603  1.0000
  H   H10       1.0  0.851427282491949  0.2608988783705614  0.24065906056014053  1.0000
  H   H11       1.0  0.7607221084687485  0.30083918703219487  0.2606888890361949  1.0000
  H   H12       1.0  0.7155023428620962  0.2542073821503113  0.21297757267644038  1.0000
  C   C19       1.0  0.5329653361866498  0.03998921214281182  0.2733917160393979  1.0000
  C   C20       1.0  0.5044781292345042  0.012516283112436133  0.24890627305609667  1.0000
  C   C21       1.0  0.4757637155060809  0.9706231038541109  0.2581108710459188  1.0000
  C   C22       1.0  0.475667335841034  0.955682571526383  0.2916341245879588  1.0000
  C   C23       1.0  0.5050526595842771  0.9828356921492836  0.3157534680787762  1.0000
  C   C24       1.0  0.5333405525757129  0.02484114243988276  0.3067190883081266  1.0000
  H   H13       1.0  0.5037870220795326  0.02379431159319778  0.22318067417554133  1.0000
  H   H14       1.0  0.4530704240140255  0.949859674218713  0.23930529439946918  1.0000
  H   H15       1.0  0.505099063411236  0.9718831519093781  0.3417100436479442  1.0000
  H   H16       1.0  0.5550612240834273  0.04588716402353362  0.3259023030548587  1.0000
  C   C25       1.0  0.4985632923317702  0.9476098922109079  0.4998798494640446  1.0000
  C   C26       1.0  0.5328285398580332  0.9774584048829902  0.4806204278736214  1.0000
  C   C27       1.0  0.5515484631564436  0.017413033234610402  0.07922312710257706  1.0000
  C   C28       1.0  0.5236394939759649  0.03158940409758322  0.06997647014093229  1.0000
  C   C29       1.0  0.4918921576691869  0.008748573368068113  0.04561389134774514  1.0000
  C   C30       1.0  0.49287364233877345  0.9570403971873054  0.5340617800226605  1.0000
  H   H17       1.0  0.5375153087167307  0.9704815705271653  0.45429402740424596  1.0000
  H   H18       1.0  0.576213586556355  0.034830616387736144  0.09787556022343553  1.0000
  H   H19       1.0  0.4699904491581953  0.019356660066137232  0.03853405358051  1.0000
  H   H20       1.0  0.4664302973173812  0.9341190346690885  0.5491248622018521  1.0000
  C   C31       1.0  0.030998332937034127  0.474190024707705  0.4624819246884084  1.0000
  C   C32       1.0  0.0039905688751440405  0.442352114965941  0.4396250317524349  1.0000
  C   C33       1.0  0.9758141376056251  0.447801409214732  0.41822555368307573  1.0000
  C   C34       1.0  0.9740788553226202  0.4850379707424663  0.41990344633637033  1.0000
  C   C35       1.0  0.001116143164813008  0.5169059890414579  0.44273559340903124  1.0000
  C   C36       1.0  0.029701940090680987  0.5116896414896621  0.4637424755627028  1.0000
  H   H21       1.0  0.004892912140624928  0.4132716895903293  0.43846542180250153  1.0000
  H   H22       1.0  0.9552312182927971  0.4230609640275603  0.4007257350591909  1.0000
  H   H23       1.0  0.00020833770719315731  0.545974104694629  0.4439405630039251  1.0000
  H   H24       1.0  0.05079968344734881  0.5366738563000701  0.48078683994139554  1.0000
  C   C37       1.0  0.031629302829951744  0.501527492321337  0.16009406138707669  1.0000
  C   C38       1.0  0.028347067866403064  0.5379772287836972  0.15956618933715666  1.0000
  C   C39       1.0  0.9988707473780609  0.5412363189039986  0.18123766658651105  1.0000
  C   C40       1.0  0.9725133372844277  0.5081903040314246  0.20354751631500856  1.0000
  C   C41       1.0  0.9758328349014604  0.47176955047869584  0.20403239495281603  1.0000
  C   C42       1.0  0.005216733529751275  0.46849968239463013  0.1823744678765132  1.0000
  H   H25       1.0  0.04839793164921247  0.5635756377585531  0.14246822549924093  1.0000
  H   H26       1.0  0.9965210593267687  0.5695581616023107  0.1807410717699712  1.0000
  H   H27       1.0  0.9557587662942204  0.4461057500442819  0.22107120646526263  1.0000
  H   H28       1.0  0.007562253458650169  0.44018136065018315  0.18296934193057832  1.0000
  C   C43       1.0  0.25478689791146963  0.6818498188582297  0.4885673903505293  1.0000
  C   C44       1.0  0.27383256109826687  0.722733357381049  0.4749851800164178  1.0000
  C   C45       1.0  0.30422760349343875  0.7351338948030921  0.4484375204779455  1.0000
  C   C46       1.0  0.31523131436726254  0.7064032136648851  0.4349281709178634  1.0000
  C   C47       1.0  0.2953176740074238  0.6651763535644813  0.44781507404660315  1.0000
  C   C48       1.0  0.2654193484148609  0.6529939069378465  0.47471125857832286  1.0000
  H   H29       1.0  0.2943090707300864  0.7747819707909402  0.049910204461096355  1.0000
  H   H30       1.0  0.3188247122667612  0.7667488078848883  0.4382271626620748  1.0000
  H   H31       1.0  0.3032955618537265  0.6426160644234327  0.4372711451091279  1.0000
  H   H32       1.0  0.250894797533688  0.6214074656857561  0.4848944278841758  1.0000
  C   C49       1.0  0.5573459118591101  0.5193261355581317  0.08416302361088022  1.0000
  C   C50       1.0  0.5275316950228364  0.47872817983835275  0.09454365037062909  1.0000
  C   C51       1.0  0.5012679075668449  0.47283928957882837  0.12329613948733534  1.0000
  C   C52       1.0  0.5045431964593144  0.5073784423887667  0.14188382398843508  1.0000
  C   C53       1.0  0.5340080339979464  0.547975436039423  0.13124042197161237  1.0000
  C   C54       1.0  0.5602524927658615  0.5538606423081026  0.10248437286959293  1.0000
  H   H33       1.0  0.5250023313497939  0.45190555624753015  0.08066606583573509  1.0000
  H   H34       1.0  0.4786240369722048  0.4413195659209789  0.13141253668264355  1.0000
  H   H35       1.0  0.5368816878213187  0.5748113716929133  0.14534374694484203  1.0000
  H   H36       1.0  0.5832978478149815  0.5853845399099132  0.09465606113533559  1.0000
  C   C55       1.0  0.47883945233377434  0.5158320450350943  0.36237109782200133  1.0000
  C   C56       1.0  0.47120507287043184  0.4816760186754581  0.3413676282783102  1.0000
  C   C57       1.0  0.4745423984794991  0.44785646645356836  0.3551759231713405  1.0000
  C   C58       1.0  0.48625584669715266  0.4482060280820376  0.38984196895198453  1.0000
  C   C59       1.0  0.4947264784993182  0.48276867644906135  0.4106596354759043  1.0000
  C   C60       1.0  0.4906889639007892  0.5162548948876557  0.39702194253299  1.0000
  H   H37       1.0  0.4619754824503943  0.48095806203682834  0.31467715594012946  1.0000
  H   H38       1.0  0.46784737440481167  0.42119236865401777  0.33893354465797826  1.0000
  H   H39       1.0  0.5034622325572857  0.4832628451060776  0.43745893518569073  1.0000
  H   H40       1.0  0.4965654138960002  0.5425278067235878  0.4134513433360346  1.0000
  C   C61       1.0  0.540055556313513  0.7377601598992993  0.2689863405819233  1.0000
  C   C62       1.0  0.5791208213166337  0.7674705907405542  0.28251318928683433  1.0000
  C   C63       1.0  0.5813335311846569  0.7934444027328392  0.3100613797865709  1.0000
  C   C64       1.0  0.5446129395056675  0.7910222928298095  0.3238128456051751  1.0000
  C   C65       1.0  0.5053644488503576  0.7621209821813458  0.3097079123599724  1.0000
  C   C66       1.0  0.5030688945031977  0.7351735276820278  0.2825833281692358  1.0000
  H   H41       1.0  0.6078373646725387  0.7700216283604976  0.27190626905616605  1.0000
  H   H42       1.0  0.6117951015262559  0.815705775293229  0.3206432000879675  1.0000
  H   H43       1.0  0.47684193331678154  0.7603488878022715  0.3197344699386802  1.0000
  H   H44       1.0  0.47289156562007373  0.7131474399575639  0.27146773586787326  1.0000
  C   C67       1.0  0.3169981450995325  0.5571823833077978  0.18691873793718178  1.0000
  C   C68       1.0  0.275629382381606  0.5499657836831483  0.18310661100543496  1.0000
  C   C69       1.0  0.2586077732229625  0.5476545834657992  0.15000475175070496  1.0000
  C   C70       1.0  0.2827090316603366  0.5518574340770135  0.1204941005789508  1.0000
  C   C71       1.0  0.32409241006995476  0.5591760698103425  0.12430186941660096  1.0000
  C   C72       1.0  0.34138319075926776  0.5624399225888179  0.15737649056587205  1.0000
  H   H45       1.0  0.25652824551157216  0.5458101291457943  0.20585665842688353  1.0000
  H   H46       1.0  0.22659038090808023  0.5418279467914164  0.1473655383086776  1.0000
  H   H47       1.0  0.3429638987461476  0.5626820100885398  0.1015545658146206  1.0000
  H   H48       1.0  0.37337667883086173  0.5685046754788814  0.159995395801621  1.0000
  Fe  Fe25      1.0  0.3926482295647544  0.5445364269311641  0.730025593560006  1.0000
  S   S49       1.0  0.42100314685960505  0.5970305833493237  0.6919192089427411  1.0000
  S   S50       1.0  0.3229720600507259  0.49751009503591404  0.7251483629732686  1.0000
  Fe  Fe26      1.0  0.47664992664715167  0.5739424767743876  0.767534714486238  1.0000
  S   S51       1.0  0.5100941126157166  0.6293168362075147  0.7314348659171596  1.0000
  S   S52       1.0  0.5226637136283953  0.5747814453105545  0.8078610562540884  1.0000
  Fe  Fe27      1.0  0.45332446255907455  0.6373163610761585  0.7381370425670883  1.0000
  S   S53       1.0  0.45065698294639506  0.6975336750889971  0.7437978947593247  1.0000
  Fe  Fe28      1.0  0.4743836779532556  0.5831580662034181  0.6892016854796961  1.0000
  S   S54       1.0  0.502860399589981  0.5840937690630449  0.6366182867979427  1.0000
  S   S55       1.0  0.42191219333259866  0.5853104932614318  0.7769000797290266  1.0000
  S   S56       1.0  0.4441336567921414  0.5273436582292625  0.7244952499047846  1.0000
  Fe  Fe29      1.0  0.111302159465861  0.513014915727104  0.5278067899354725  1.0000
  S   S57       1.0  0.11122414943038657  0.5710538494187577  0.5463548754785359  1.0000
  S   S58       1.0  0.10902780702036247  0.5125019297385145  0.9654940679620014  1.0000
  Fe  Fe30      1.0  0.1838268355868329  0.5274550487312195  0.5764039048288838  1.0000
  S   S59       1.0  0.188917428286725  0.5864014307582309  0.5984285548746262  1.0000
  S   S60       1.0  0.2253578372486503  0.4999531838397872  0.591317058733027  1.0000
  Fe  Fe31      1.0  0.11789494532755349  0.5503533381547964  0.5995941856758866  1.0000
  S   S61       1.0  0.08319627398234172  0.5591028591418027  0.6449611977678643  1.0000
  Fe  Fe32      1.0  0.18209437586126948  0.6017868641069988  0.5432598831459052  1.0000
  S   S62       1.0  0.22009010498097145  0.6689711111991842  0.5241823174046333  1.0000
  S   S63       1.0  0.1131260979825985  0.4899713550783919  0.5815018727980369  1.0000
  S   S64       1.0  0.1818469053061281  0.5450638993769008  0.5208593407583872  1.0000
  Fe  Fe33      1.0  0.481314732250569  0.8381142458829602  0.9038412111727903  1.0000
  S   S65       1.0  0.43381919455749884  0.8483512884874308  0.8752648174744656  1.0000
  S   S66       1.0  0.5106241473749562  0.8001650156556004  0.8840942364255807  1.0000
  Fe  Fe34      1.0  0.4810994038050386  0.8897584575650387  0.9668137538596105  1.0000
  S   S67       1.0  0.43233541422393973  0.9026130102708565  0.9432304201386869  1.0000
  S   S68       1.0  0.5157722488895049  0.9153599217896312  0.01752799005152883  1.0000
  Fe  Fe35      1.0  0.40017097087059555  0.8343956168429845  0.9269936367214213  1.0000
  S   S69       1.0  0.3313469665780525  0.7830352682985958  0.9260999227731229  1.0000
  Fe  Fe36      1.0  0.4705027157534345  0.9150932852922621  0.8941185344085333  1.0000
  S   S70       1.0  0.4986316249870652  0.9782827014300437  0.8669634332527459  1.0000
  S   S71       1.0  0.4462171660547333  0.82071984879858  0.9543386424212901  1.0000
  S   S72       1.0  0.5208067201506601  0.9055789307909651  0.9187959692330839  1.0000
  Fe  Fe37      1.0  0.8956873334986031  0.4275189483970942  0.860566435022793  1.0000
  S   S73       1.0  0.9135753761576928  0.47520020941951124  0.817871040359195  1.0000
  S   S74       1.0  0.9208261990149107  0.44749080892349224  0.9152968020196721  1.0000
  Fe  Fe38      1.0  0.8194169330799005  0.3595630449401616  0.8188185441432237  1.0000
  S   S75       1.0  0.8324313899996891  0.40306928352378596  0.7741384670157309  1.0000
  S   S76       1.0  0.757811667225893  0.2977278601961203  0.8211624238614452  1.0000
  Fe  Fe39      1.0  0.9006959748196895  0.4213107561079829  0.7821268941373895  1.0000
  S   S77       1.0  0.9385241620799314  0.4163717822023133  0.737029759944997  1.0000
  Fe  Fe40      1.0  0.8436724899802776  0.4517519967970878  0.8144333035545988  1.0000
  S   S78       1.0  0.8100032492751076  0.4897310579659211  0.8141700803109633  1.0000
  S   S79       1.0  0.8868608522529808  0.37456909336680916  0.8254217408857699  1.0000
  S   S80       1.0  0.8266576939585424  0.40715189756932496  0.8584498933439662  1.0000
  Fe  Fe41      1.0  0.5642932674033352  0.43885799318128693  0.9436367491141703  1.0000
  S   S81       1.0  0.6177071721153182  0.501035833112691  0.9606892253070027  1.0000
  S   S82       1.0  0.5184390971882095  0.42863700786087633  0.8998977220844325  1.0000
  Fe  Fe42      1.0  0.5812688308004024  0.3908277459011378  0.0011204266271354069  1.0000
  S   S83       1.0  0.634869566782174  0.4499436185793793  0.022760158024656363  1.0000
  S   S84       1.0  0.5661907996591188  0.3246942667631597  0.015883384495476438  1.0000
  Fe  Fe43      1.0  0.5930757547801101  0.4783838752450561  0.01463154108881315  1.0000
  S   S85       1.0  0.540209161712401  0.4414737206871036  0.5828024266918039  1.0000
  Fe  Fe44      1.0  0.6544878021694913  0.46704093912282946  0.9671860098090302  1.0000
  S   S86       1.0  0.723706783713547  0.48930459558746214  0.9572639006682284  1.0000
  S   S87       1.0  0.537368935847513  0.417652041322691  0.9971667150090008  1.0000
  S   S88       1.0  0.6030959769599544  0.4065144790366309  0.9458382970845166  1.0000
  Fe  Fe45      1.0  0.5835640013032521  0.09114845831274168  0.6029942126119504  1.0000
  S   S89       1.0  0.5214338579308829  0.07617056832720086  0.6266693385293938  1.0000
  S   S90       1.0  0.5907219038525571  0.07554947680154168  0.5473124344297242  1.0000
  Fe  Fe46      1.0  0.6329759032405383  0.14555535880392312  0.6658038076709001  1.0000
  S   S91       1.0  0.5738096752620815  0.13327478943611634  0.6937810871308674  1.0000
  S   S92       1.0  0.6996601137853398  0.1947702724984728  0.6802597153443556  1.0000
  Fe  Fe47      1.0  0.5484294509317008  0.06638144382754739  0.676013199439698  1.0000
  S   S93       1.0  0.5072409201422036  0.004696439060339394  0.7040642485105906  1.0000
  Fe  Fe48      1.0  0.553306936488719  0.14427424280742873  0.6416046379275135  1.0000
  S   S94       1.0  0.5281326316059708  0.18939504709915822  0.6342821288116894  1.0000
  S   S95       1.0  0.6094221075697622  0.0778933174576684  0.6512056370334818  1.0000
  S   S96       1.0  0.6134804120949748  0.159817937143131  0.6149185575082391  1.0000
  C   C73       1.0  0.5580015025848768  0.27022932243673  0.5361392255375584  1.0000
  C   C74       1.0  0.5378805065558712  0.27681746056638107  0.5643869794110924  1.0000
  C   C75       1.0  0.5289367650754285  0.2518728903847068  0.5943370879635175  1.0000
  C   C76       1.0  0.5404143640412492  0.22052858745695322  0.5964316087875894  1.0000
  C   C77       1.0  0.5613710492602341  0.21461648785346824  0.5684352711760912  1.0000
  C   C78       1.0  0.5699772804153667  0.23926958531471584  0.5384169698194203  1.0000
  H   H49       1.0  0.5284011794460018  0.3005212171670121  0.5629027045266911  1.0000
  H   H50       1.0  0.512632963637454  0.2566423146854713  0.6158259739113872  1.0000
  H   H51       1.0  0.5705023145308882  0.1907455920698343  0.5697012327366532  1.0000
  H   H52       1.0  0.5845521558493306  0.26031575917970473  0.035113556409970936  1.0000
  C   C79       1.0  0.7849975991307558  0.48906253877181394  0.8535888208403823  1.0000
  C   C80       1.0  0.8009796452044255  0.4839606449806765  0.8848813327885766  1.0000
  C   C81       1.0  0.7820826488378683  0.48473007855355654  0.916298277412163  1.0000
  C   C82       1.0  0.7457829243460928  0.488735222697267  0.9167843993024056  1.0000
  C   C83       1.0  0.7289599765517356  0.49296805173760483  0.8854972885763457  1.0000
  C   C84       1.0  0.7490469563020324  0.49387972413422826  0.8539529362502241  1.0000
  H   H53       1.0  0.8283718911727816  0.48006178568507013  0.8849287678400763  1.0000
  H   H54       1.0  0.7952511015200634  0.4815451818508647  0.9404272398536655  1.0000
  H   H55       1.0  0.7011865948354721  0.49652899936364925  0.8856874660475712  1.0000
  H   H56       1.0  0.7365242429551768  0.49796524300984835  0.8298213150383791  1.0000
  C   C85       1.0  0.7149650955719866  0.22201839219223468  0.72008935107544  1.0000
  C   C86       1.0  0.687567319589569  0.21044503811631854  0.748540840277442  1.0000
  C   C87       1.0  0.7009384955355342  0.2337771985495655  0.7794896478363842  1.0000
  C   C88       1.0  0.7415875266295618  0.26890614209538266  0.7820982650164728  1.0000
  C   C89       1.0  0.7687525178347094  0.2805401598522012  0.7535692149574336  1.0000
  C   C90       1.0  0.7555761230061906  0.2570155458477535  0.7228318608796029  1.0000
  H   H57       1.0  0.6563574131191996  0.1832641734652564  0.746842850449115  1.0000
  H   H58       1.0  0.6798489957225836  0.22443437662860236  0.8015277101231522  1.0000
  H   H59       1.0  0.8002632755188862  0.3072837565687781  0.7553482143610732  1.0000
  H   H60       1.0  0.7770546426110172  0.2660389444305547  0.7010371532750519  1.0000
  C   C91       1.0  0.5044471011011741  0.9984595548971904  0.7494625831730627  1.0000
  C   C92       1.0  0.529825870471918  0.031562486516566235  0.7716343004282615  1.0000
  C   C93       1.0  0.5272132080596447  0.02501842766311113  0.8076542319135883  1.0000
  C   C94       1.0  0.49956057328084014  0.9853278317196551  0.821716149036081  1.0000
  C   C95       1.0  0.4741497487247369  0.9522223303391821  0.7995830659701145  1.0000
  C   C96       1.0  0.4765256017859095  0.9588707173186052  0.7635883228193416  1.0000
  H   H61       1.0  0.5513852489341945  0.062164522885045814  0.7610021833238568  1.0000
  H   H62       1.0  0.5469125712537805  0.050825027841595594  0.8246201181938857  1.0000
  H   H63       1.0  0.4522683793448006  0.9217365860059231  0.810195190871768  1.0000
  H   H64       1.0  0.45645356511234014  0.9333025705101574  0.7465289807233111  1.0000
  C   C97       1.0  0.5170800362408617  0.9588975849955244  0.0385364279611784  1.0000
  C   C98       1.0  0.5481832173219323  0.9811178659578839  0.0635591880817028  1.0000
  C   C99       1.0  0.5612820382758406  0.016375718314697942  0.4956453154250029  1.0000
  C   C100      1.0  0.5556607906488138  0.02565963797870058  0.5299163256622816  1.0000
  C   C101      1.0  0.5212723841814222  0.995880699735104  0.5490566381733701  1.0000
  C   C102      1.0  0.48856989446467625  0.9725270230301732  0.02997672715388844  1.0000
  H   H65       1.0  0.5702546252087718  0.9706237387392108  0.07039808301326356  1.0000
  H   H66       1.0  0.5878354988941804  0.03933216455450935  0.4806957337078876  1.0000
  H   H67       1.0  0.5166361508021372  0.0026797008949197565  0.5754606935699027  1.0000
  H   H68       1.0  0.46402264563490875  0.9551975663709196  0.011231139426829628  1.0000
  C   C103      1.0  0.05745204865283183  0.4971990533560003  0.9509039361936155  1.0000
  C   C104      1.0  0.029375013213919  0.5042978741544326  0.9707144210951167  1.0000
  C   C105      1.0  0.9879178214860463  0.48985822677449137  0.9589282689965845  1.0000
  C   C106      1.0  0.9742200841468466  0.468280196631732  0.9273376877305836  1.0000
  C   C107      1.0  0.002636892578442143  0.4623667716950159  0.90701768792297  1.0000
  C   C108      1.0  0.04404854435577225  0.47666442805450804  0.9188629474640044  1.0000
  H   H69       1.0  0.03957250047692673  0.5206638547963548  0.9951451268221442  1.0000
  H   H70       1.0  0.966179873896545  0.49495201207279016  0.9745629689101859  1.0000
  H   H71       1.0  0.9924366753841145  0.44577873940263063  0.8826489848198386  1.0000
  H   H72       1.0  0.06565234973425907  0.4711901681695218  0.903350193478171  1.0000
  C   C109      1.0  0.04352196665629869  0.5189932148733828  0.6706011803190691  1.0000
  C   C110      1.0  0.024478168320273275  0.5301162036935911  0.6971734278531511  1.0000
  C   C111      1.0  0.9923171561863068  0.4991415726046441  0.7178954764207129  1.0000
  C   C112      1.0  0.9789809799139437  0.4567213357243575  0.7121392512115516  1.0000
  C   C113      1.0  0.9981711492327244  0.44564149314411344  0.6856157204958269  1.0000
  C   C114      1.0  0.03032640414031256  0.47656614663189484  0.6649296772131962  1.0000
  H   H73       1.0  0.03449240311327162  0.5628896854808492  0.7016990701300465  1.0000
  H   H74       1.0  0.9777469922076409  0.5080119958495349  0.7382190154215951  1.0000
  H   H75       1.0  0.987986884579899  0.41281684527221535  0.6811118938563713  1.0000
  H   H76       1.0  0.04474787151662944  0.46741709975168244  0.644730815664234  1.0000
  C   C115      1.0  0.25098534266466993  0.718385977360666  0.022623369284079597  1.0000
  C   C116      1.0  0.2867262607563938  0.7585553489819741  0.025339956141566145  1.0000
  C   C117      1.0  0.31257762241828085  0.778169114085764  0.9962891159674135  1.0000
  C   C118      1.0  0.3018007840661369  0.7584757011196441  0.9639331355114795  1.0000
  C   C119      1.0  0.2656062023193828  0.7187222475383366  0.9611337979280978  1.0000
  C   C120      1.0  0.2408130051354999  0.6984227115255587  0.9904023341997843  1.0000
  H   H77       1.0  0.2651754272356912  0.7449599650301605  0.4852373660595811  1.0000
  H   H78       1.0  0.3399280317641543  0.809126386116952  0.9986721194693718  1.0000
  H   H79       1.0  0.2562563915597335  0.7036593796189268  0.9361457409415753  1.0000
  H   H80       1.0  0.21294910109618742  0.6678977857192369  0.9877595444511037  1.0000
  C   C121      1.0  0.5272165208140053  0.4800561816131322  0.5956913330202788  1.0000
  C   C122      1.0  0.5392665498993134  0.5164610219590711  0.5762805042087971  1.0000
  C   C123      1.0  0.5314532547458144  0.548042537520822  0.5890709445344363  1.0000
  C   C124      1.0  0.5112427697573684  0.5433153709997525  0.6211207793515119  1.0000
  C   C125      1.0  0.4978156739717839  0.5062575095121401  0.6399028971226102  1.0000
  C   C126      1.0  0.5061712270084969  0.4749904806395527  0.6273954183067563  1.0000
  H   H81       1.0  0.5555905671799659  0.520752914378147  0.5518877860205595  1.0000
  H   H82       1.0  0.5416414515575014  0.5765053794576411  0.5742243302652449  1.0000
  H   H83       1.0  0.48122262601267457  0.5017577623587133  0.664095573677736  1.0000
  H   H84       1.0  0.49643273321518727  0.44669257566041315  0.6423629614894603  1.0000
  C   C127      1.0  0.5204917134708431  0.5334138840470571  0.8330208178160243  1.0000
  C   C128      1.0  0.555115077175066  0.5417517672367279  0.8541638247018568  1.0000
  C   C129      1.0  0.5550704156423226  0.5098866876879776  0.8745252426837359  1.0000
  C   C130      1.0  0.520211334211474  0.46936820498939835  0.87407997169951  1.0000
  C   C131      1.0  0.4857525678785727  0.4609242732494734  0.8526820364841251  1.0000
  C   C132      1.0  0.485818118143522  0.4927897607567859  0.8322178649925678  1.0000
  H   H85       1.0  0.5822253499796831  0.5730529589369101  0.8547144526696255  1.0000
  H   H86       1.0  0.5821281796829526  0.5165211440057548  0.8903049645672113  1.0000
  H   H87       1.0  0.4587156018965964  0.42956981500274594  0.8521119644158883  1.0000
  H   H88       1.0  0.4589657630129917  0.48594137265313214  0.8160576215486031  1.0000
  C   C133      1.0  0.46685976177939315  0.725204660507322  0.7831545495614324  1.0000
  C   C134      1.0  0.48902905010068154  0.7158592670632447  0.8077830431231139  1.0000
  C   C135      1.0  0.5024284279422729  0.7391749340391167  0.8386313010437793  1.0000
  C   C136      1.0  0.49298344040908976  0.7712895570579538  0.8453433850384653  1.0000
  C   C137      1.0  0.4702231642749315  0.780186790605359  0.8209684821598557  1.0000
  C   C138      1.0  0.45754372142498406  0.7574612578544777  0.789819527625263  1.0000
  H   H89       1.0  0.49646735895735083  0.6911307674178016  0.8027973421742157  1.0000
  H   H90       1.0  0.5201764020408925  0.7322416983511233  0.857357018682686  1.0000
  H   H91       1.0  0.46289053064984415  0.8049025784036333  0.8258928204639984  1.0000
  H   H92       1.0  0.4403326207263196  0.7647096984098215  0.7708075181439489  1.0000
  C   C139      1.0  0.29295622843349617  0.5014588150543516  0.6909217298895793  1.0000
  C   C140      1.0  0.3051656654366306  0.5392569904131697  0.6733036726496999  1.0000
  C   C141      1.0  0.28214153515839746  0.5400386053221803  0.6442468931772919  1.0000
  C   C142      1.0  0.24679162558873424  0.5030282694265217  0.6327767195882747  1.0000
  C   C143      1.0  0.23383226827313905  0.46578167196804987  0.6512752078722689  1.0000
  C   C144      1.0  0.25643604017739824  0.4651261621282322  0.6803791078257648  1.0000
  H   H93       1.0  0.3326586121558685  0.5677524119405143  0.6816892333518986  1.0000
  H   H94       1.0  0.2929709291397344  0.5688072172129243  0.6296935383380051  1.0000
  H   H95       1.0  0.20733623573046298  0.4368101082454745  0.6421072654446018  1.0000
  H   H96       1.0  0.2466916196272822  0.43579251793161145  0.6937983145640483  1.0000
  N   N1        1.0  0.5614450031097625  0.051832073686241875  0.9509498672410568  1.0000
  C   C145      1.0  0.5639418234532799  0.012775272748643873  0.9500937892672224  1.0000
  C   C146      1.0  0.5833628381552348  0.07768258093498437  0.9203047855981712  1.0000
  C   C147      1.0  0.5817312146061147  0.0753989942717661  0.9828807355816851  1.0000
  C   C148      1.0  0.5166937707039959  0.04133259103018516  0.9504054375894644  1.0000
  H   H97       1.0  0.5971148232898738  0.019276307633427026  0.9516465633442491  1.0000
  H   H98       1.0  0.5501449250376186  0.9949291106609285  0.925880222363416  1.0000
  H   H99       1.0  0.5463346289915415  0.9916021873087589  0.9720146695455586  1.0000
  H   H100      1.0  0.5823315492697823  0.10754371057809942  0.920157219114683  1.0000
  H   H101      1.0  0.6170826814103528  0.08573860408386214  0.9195119796785768  1.0000
  H   H102      1.0  0.5683678795323746  0.060662039386659705  0.8958441155866166  1.0000
  H   H103      1.0  0.5791348778159006  0.10432507526840351  0.9852417996234792  1.0000
  H   H104      1.0  0.6158017659173001  0.08479517991828578  0.9837330091618665  1.0000
  H   H105      1.0  0.5667892816898686  0.056045434981095044  0.006340821250223172  1.0000
  H   H106      1.0  0.5135543430318874  0.07002187853619812  0.9511923276581318  1.0000
  H   H107      1.0  0.49896707664959455  0.02142832646396098  0.972817317569186  1.0000
  H   H108      1.0  0.5004101494217469  0.023501829858047163  0.9266680033734943  1.0000
  N   N2        1.0  0.4635173096396843  0.1691844845726853  0.10540443769206287  1.0000
  C   C149      1.0  0.5009714116626434  0.16539862192941893  0.09657072451572457  1.0000
  C   C150      1.0  0.4469424441955357  0.14936600977512948  0.13945720335554457  1.0000
  C   C151      1.0  0.43086745654246467  0.14782654945252618  0.0786211513135795  1.0000
  C   C152      1.0  0.4754519304869847  0.21406182848264846  0.10700174351969616  1.0000
  H   H109      1.0  0.51460252946135  0.18001768190667197  0.07108051560812134  1.0000
  H   H110      1.0  0.49313113486301574  0.13194839217767476  0.09525220263849943  1.0000
  H   H111      1.0  0.5261598364343363  0.18102272538648775  0.11630601077470337  1.0000
  H   H112      1.0  0.41848917599261665  0.1513578615650211  0.14703644819446993  1.0000
  H   H113      1.0  0.43817763425943174  0.11558400590384152  0.13931699532483477  1.0000
  H   H114      1.0  0.4710059335388328  0.1649930217374379  0.160171819236262  1.0000
  H   H115      1.0  0.4018532602490564  0.1495599421821603  0.08458506095058693  1.0000
  H   H116      1.0  0.4216266766706306  0.11400818080676343  0.07646968375567198  1.0000
  H   H117      1.0  0.4424868420283214  0.16241361459949907  0.052714186511999994  1.0000
  H   H118      1.0  0.447616950052367  0.21815403492438462  0.11202059912476847  1.0000
  H   H119      1.0  0.4904541751285734  0.23075537263768542  0.0824041935914821  1.0000
  H   H120      1.0  0.4984847608821792  0.23056254810015903  0.12814779422985878  1.0000
  N   N3        1.0  0.3591141227841943  0.6995422232824008  0.8743097032956332  1.0000
  C   C153      1.0  0.31792829413894047  0.6716645265870096  0.8908675323237855  1.0000
  C   C154      1.0  0.3734240182339834  0.674129779075065  0.8546854075952751  1.0000
  C   C155      1.0  0.3904222220019548  0.7238423794818386  0.9013115462611055  1.0000
  C   C156      1.0  0.35466944998538624  0.728682497341751  0.8504888262109866  1.0000
  H   H121      1.0  0.30648773268472657  0.6902015232393142  0.9057634853662291  1.0000
  H   H122      1.0  0.32007157798200797  0.6494679303615793  0.9093015211788278  1.0000
  H   H123      1.0  0.2933692787842806  0.6527991189663892  0.8713632038874785  1.0000
  H   H124      1.0  0.4047707070392353  0.694294562160065  0.842397421665974  1.0000
  H   H125      1.0  0.376713419817947  0.651462844321141  0.8717493318991267  1.0000
  H   H126      1.0  0.3510042457113906  0.6559234087462013  0.8336201744910453  1.0000
  H   H127      1.0  0.38000208205231256  0.7423708891535471  0.9172873524185816  1.0000
  H   H128      1.0  0.42145334818791197  0.7464055597275419  0.8898072959758545  1.0000
  H   H129      1.0  0.3957237747691509  0.7030860705473018  0.9191336136908251  1.0000
  H   H130      1.0  0.3312195957467325  0.711458590881233  0.8298055271312696  1.0000
  H   H131      1.0  0.3851413942909482  0.750367891059349  0.8376811421145888  1.0000
  H   H132      1.0  0.34404528987251004  0.7484569079398417  0.8644724977830898  1.0000
  N   N4        1.0  0.5575015033577426  0.905492607014228  0.7896636071497717  1.0000
  C   C157      1.0  0.5680012027072954  0.9470839531699562  0.803739740543279  1.0000
  C   C158      1.0  0.5640768494019742  0.8807753474552649  0.8167065329621843  1.0000
  C   C159      1.0  0.5849560865555069  0.9110423759806504  0.759572507798698  1.0000
  C   C160      1.0  0.5128788613623587  0.8830821146916017  0.7785893608215914  1.0000
  H   H133      1.0  0.5625599848993962  0.9663132260320486  0.7842304256335707  1.0000
  H   H134      1.0  0.6016244397589563  0.9652571976259359  0.8118172855471572  1.0000
  H   H135      1.0  0.5482820477439235  0.9440029450765832  0.8268368673716124  1.0000
  H   H136      1.0  0.5565822567071201  0.8491587384470735  0.8070522484401421  1.0000
  H   H137      1.0  0.5973065395771725  0.8967751838567163  0.8259461770895823  1.0000
  H   H138      1.0  0.5435561168262368  0.875754481825774  0.8396906491781985  1.0000
  H   H139      1.0  0.5776491615699371  0.8802229265553098  0.7481714526354423  1.0000
  H   H140      1.0  0.6189064138409621  0.9277296484559149  0.7669421669485161  1.0000
  H   H141      1.0  0.5808095366853604  0.9297867769555902  0.7387833090414857  1.0000
  H   H142      1.0  0.5036851814091147  0.8513026452491502  0.7682626837228084  1.0000
  H   H143      1.0  0.5069736949961903  0.9006166464729994  0.7578249437170936  1.0000
  H   H144      1.0  0.49127820772090147  0.8790400484293982  0.8005137661272055  1.0000
  N   N5        1.0  0.3888999954920612  0.785395176139754  0.5297645653345603  1.0000
  C   C161      1.0  0.43546137083269976  0.8101579874864377  0.531698019012656  1.0000
  C   C162      1.0  0.3762961574736717  0.7446135564483986  0.5129378019326565  1.0000
  C   C163      1.0  0.37298377827370943  0.8087717473372495  0.5093701077688337  1.0000
  C   C164      1.0  0.3707984807528624  0.7780724377669993  0.5650455839174687  1.0000
  H   H145      1.0  0.4461683431274765  0.8415363501985186  0.5436443630633653  1.0000
  H   H146      1.0  0.45001380337093333  0.8160945284901064  0.5054436532552651  1.0000
  H   H147      1.0  0.44873048817790984  0.7938541895706555  0.5471859822555238  1.0000
  H   H148      1.0  0.3413528589749514  0.7243834028774648  0.512479825964905  1.0000
  H   H149      1.0  0.3875749772066154  0.748864674580356  0.48560284120015196  1.0000
  H   H150      1.0  0.3892026624704488  0.7268508843502749  0.5268077191876254  1.0000
  H   H151      1.0  0.3846744331721868  0.8135185558493777  0.4821562799867445  1.0000
  H   H152      1.0  0.38353908971090367  0.8405139809080933  0.5204451121549393  1.0000
  H   H153      1.0  0.33793538007983986  0.7919674256222922  0.508589910021212  1.0000
  H   H154      1.0  0.38208952659907647  0.7604984982611552  0.5812262421148078  1.0000
  H   H155      1.0  0.3356198091901232  0.759372065729558  0.5643884261710538  1.0000
  H   H156      1.0  0.37959818015288443  0.8082662563956747  0.5783869863657942  1.0000
  N   N6        1.0  0.32606056795715216  0.6840067853649878  0.09299813641845284  1.0000
  C   C165      1.0  0.3113902451238494  0.6675117034588952  0.057781409268691346  1.0000
  C   C166      1.0  0.34019571495238404  0.7294036925368025  0.09380934142444414  1.0000
  C   C167      1.0  0.3613879017791917  0.6770512852323802  0.10252693324330392  1.0000
  C   C168      1.0  0.2910120550905116  0.6619432042715409  0.1178848472123282  1.0000
  H   H157      1.0  0.3364402960408301  0.6844602809902164  0.03805456250133468  1.0000
  H   H158      1.0  0.28369977769675037  0.6706989925859801  0.05030884055383286  1.0000
  H   H159      1.0  0.3013809709072589  0.6335308098761676  0.05597805890926774  1.0000
  H   H160      1.0  0.3523130267184291  0.7431003885061056  0.1198021760256843  1.0000
  H   H161      1.0  0.36565224413932884  0.7471199682708048  0.07450648732788726  1.0000
  H   H162      1.0  0.3136119011480046  0.735174389576702  0.08774926981440549  1.0000
  H   H163      1.0  0.35146056280525484  0.6429961723861674  0.10187719510265794  1.0000
  H   H164      1.0  0.3728887234556853  0.688501319609656  0.12917375720592073  1.0000
  H   H165      1.0  0.3885219453975774  0.6935187704390611  0.08441433873766846  1.0000
  H   H166      1.0  0.30113653068036367  0.6725344608187543  0.14491466418661697  1.0000
  H   H167      1.0  0.2784836304951026  0.6274343493667206  0.117101669750437  1.0000
  H   H168      1.0  0.26432287481510364  0.6676182220429049  0.11196730851548131  1.0000
  N   N7        1.0  0.6951783581522885  0.3531006181413683  0.8987626455218729  1.0000
  C   C169      1.0  0.6494301157019342  0.3315410977473446  0.906449192621057  1.0000
  C   C170      1.0  0.7083452679262309  0.3216770681694493  0.891036265197251  1.0000
  C   C171      1.0  0.718756751910859  0.3783779657805682  0.9290829929677278  1.0000
  C   C172      1.0  0.7041981220818879  0.38092650956238355  0.8684832659422153  1.0000
  H   H169      1.0  0.6385573684528644  0.35453300839189933  0.9121209175587494  1.0000
  H   H170      1.0  0.6415043824465839  0.3107620396712077  0.9295203417006618  1.0000
  H   H171      1.0  0.6305681161474072  0.31192178169117457  0.8842543467429285  1.0000
  H   H172      1.0  0.691854672323666  0.3025246014604002  0.8678453248272158  1.0000
  H   H173      1.0  0.7427984922970532  0.33694472765391625  0.8853530959634718  1.0000
  H   H174      1.0  0.7017564969070667  0.2998038226465818  0.9130959513384286  1.0000
  H   H175      1.0  0.7130949940819266  0.358394774679871  0.952349792592881  1.0000
  H   H176      1.0  0.7090852020920166  0.4020092261855898  0.9359522521467835  1.0000
  H   H177      1.0  0.7533831157311642  0.3957198087608491  0.9240103901845105  1.0000
  H   H178      1.0  0.7384691745140922  0.397845992314953  0.8619951760736589  1.0000
  H   H179      1.0  0.6946755283470368  0.4050543380112772  0.8733822525297905  1.0000
  H   H180      1.0  0.6871815049838423  0.36293617292723546  0.8450390037315924  1.0000
  N   N8        1.0  0.9833718275340891  0.41857667186534336  0.05651718909092154  1.0000
  C   C173      1.0  0.9718743861161887  0.42426396918417075  0.09207450431075347  1.0000
  C   C174      1.0  0.9577489655343403  0.42656824601170507  0.031306396597000734  1.0000
  C   C175      1.0  0.9754711083565855  0.37516334636762294  0.052295436503922564  1.0000
  C   C176      1.0  0.028599959796123238  0.4483617745311434  0.050402197641542676  1.0000
  H   H181      1.0  0.9784967251000066  0.4570623590579537  0.09644086472515029  1.0000
  H   H182      1.0  0.9905055578468296  0.41816148915675544  0.11174673167916616  1.0000
  H   H183      1.0  0.9378626554553176  0.40276691569273676  0.09766911346450821  1.0000
  H   H184      1.0  0.9636869226349073  0.45937201387777504  0.033403966166595946  1.0000
  H   H185      1.0  0.9652970817686956  0.42193289402897693  0.004229913947647823  1.0000
  H   H186      1.0  0.9233747555078856  0.40507305847886316  0.03539615684548091  1.0000
  H   H187      1.0  0.9416086912767986  0.3517645339668239  0.056646271628985334  1.0000
  H   H188      1.0  0.9944204264925773  0.36820544141609196  0.07100267259255906  1.0000
  H   H189      1.0  0.9841695665468709  0.3700225421371738  0.025777962021700983  1.0000
  H   H190      1.0  0.03856505420550331  0.44584287410364154  0.023594854278920174  1.0000
  H   H191      1.0  0.048709827902464115  0.44262490958385503  0.06874664930169772  1.0000
  H   H192      1.0  0.036099278051055214  0.4814694932117987  0.05430822987374457  1.0000
  N   N9        1.0  0.7026605570152692  0.35099691219163104  0.20368572613006972  1.0000
  C   C177      1.0  0.6808441124227234  0.35980348962962105  0.17542833351865925  1.0000
  C   C178      1.0  0.7417008873161972  0.353154924743363  0.19012642695723553  1.0000
  C   C179      1.0  0.6744857498565432  0.30852526917612433  0.21761293216773495  1.0000
  C   C180      1.0  0.7135568902804403  0.38233116706262044  0.23159455486212965  1.0000
  H   H193      1.0  0.7008703193592195  0.3917447173016634  0.1643866229294847  1.0000
  H   H194      1.0  0.6508367034825324  0.3576899029766914  0.18462874323915443  1.0000
  H   H195      1.0  0.6723152446424894  0.33669402823937394  0.1539295809408496  1.0000
  H   H196      1.0  0.7592864664923309  0.34731385212783267  0.21089998052120665  1.0000
  H   H197      1.0  0.7346623177872464  0.32932751008921946  0.16948788280267416  1.0000
  H   H198      1.0  0.7634892517539938  0.3846530873507138  0.17900393078398466  1.0000
  H   H199      1.0  0.689476781803333  0.3009532734091989  0.23941738025784542  1.0000
  H   H200      1.0  0.6661512792093295  0.2841359332803018  0.19726783081965188  1.0000
  H   H201      1.0  0.6442173660686488  0.3054129391068939  0.22726821615866602  1.0000
  H   H202      1.0  0.7300392976391761  0.37648597248604543  0.25331754009932284  1.0000
  H   H203      1.0  0.6849540278228056  0.38159526891740886  0.24267908273730182  1.0000
  H   H204      1.0  0.7349685216085777  0.4148447876681708  0.22220037715164967  1.0000
  N   N10       1.0  0.03415201139114943  0.5490556852626933  0.31248072687018663  1.0000
  C   C181      1.0  0.03435569213209116  0.5292634608104849  0.2791535164268815  1.0000
  C   C182      1.0  0.0328706812469502  0.5220246483222746  0.34139483781093144  1.0000
  C   C183      1.0  0.9965841897508505  0.5544741233668367  0.3142242562104961  1.0000
  C   C184      1.0  0.0727194058114165  0.5905292217315795  0.3151515999089313  1.0000
  H   H205      1.0  0.06211342294069835  0.5244419654716508  0.2768011780225066  1.0000
  H   H206      1.0  0.03514623172249048  0.548824716580955  0.2567978929119547  1.0000
  H   H207      1.0  0.005457250573123668  0.49807750243570625  0.27614361121912206  1.0000
  H   H208      1.0  0.03305099009957376  0.5362899785993551  0.36691269460692755  1.0000
  H   H209      1.0  0.0036710311273871112  0.4907539590637847  0.34067665062510905  1.0000
  H   H210      1.0  0.060354618054361854  0.5166217276546405  0.34075274774147013  1.0000
  H   H211      1.0  0.9961718013095681  0.5744680876771104  0.2926936594481995  1.0000
  H   H212      1.0  0.994814713613175  0.5686752338591171  0.3392454472302141  1.0000
  H   H213      1.0  0.9670799898765996  0.5238178749191  0.3120643460321973  1.0000
  H   H214      1.0  0.07343359121768604  0.606347782907797  0.33998657248502134  1.0000
  H   H215      1.0  0.07463105633098278  0.6116695410910634  0.2936783015671643  1.0000
  H   H216      1.0  0.10170238036626857  0.5875932414501821  0.31400504309889105  1.0000
  N   N11       1.0  0.9321656496397941  0.5676417446914181  0.9004205380683149  1.0000
  C   C185      1.0  0.9504110602278695  0.6106840758058097  0.9144265969326487  1.0000
  C   C186      1.0  0.9046788753979669  0.5372099968672426  0.9269043169570741  1.0000
  C   C187      1.0  0.966569130951191  0.5589805136445917  0.8911911648023381  1.0000
  C   C188      1.0  0.9070009974881388  0.5637064934216867  0.8692408762355274  1.0000
  H   H217      1.0  0.9713535577719561  0.6345065227717778  0.8951241275601695  1.0000
  H   H218      1.0  0.969597035763952  0.614698594157167  0.9379846610649448  1.0000
  H   H219      1.0  0.9252431748447963  0.6181759219606415  0.9216961207575103  1.0000
  H   H220      1.0  0.8903140568524336  0.5044324321429542  0.9171507568734429  1.0000
  H   H221      1.0  0.9227061643961444  0.5387946958898568  0.9505953994364714  1.0000
  H   H222      1.0  0.8783460881967816  0.542758322555823  0.9346062042060514  1.0000
  H   H223      1.0  0.9858237059492189  0.560934202125691  0.9141870267251542  1.0000
  H   H224      1.0  0.9881325918554016  0.5813780477860921  0.8713689229299455  1.0000
  H   H225      1.0  0.9538820500002465  0.5267964672162377  0.8804259779037985  1.0000
  H   H226      1.0  0.8930279428810707  0.5317216178426795  0.8577986246819762  1.0000
  H   H227      1.0  0.9265494679213369  0.5863140672368605  0.84870504855291  1.0000
  H   H228      1.0  0.8802446066151541  0.5692989940949844  0.875258711750817  1.0000
  N   N12       1.0  0.5251884521457405  0.5451336044170639  0.969427441278303  1.0000
  C   C189      1.0  0.5150012972317659  0.559561063027528  0.0019676993718009683  1.0000
  C   C190      1.0  0.5132617499405264  0.5004315419494821  0.9728315055939455  1.0000
  C   C191      1.0  0.5710161353221046  0.5704683725615839  0.9625290493213766  1.0000
  C   C192      1.0  0.5015438131951356  0.5499875792603525  0.9404327968126173  1.0000
  H   H229      1.0  0.48083398697745766  0.5406709862787568  0.008400092889329303  1.0000
  H   H230      1.0  0.5233619031486021  0.5931256827623221  0.00034200929339700537  1.0000
  H   H231      1.0  0.5328076092176296  0.5566404378640816  0.02422192403208833  1.0000
  H   H232      1.0  0.5218327622299934  0.4888236799069256  0.9492550999834828  1.0000
  H   H233      1.0  0.5295823453556372  0.49544491013862957  0.9950602515285675  1.0000
  H   H234      1.0  0.47873949164858254  0.48006543329609525  0.9770319095776104  1.0000
  H   H235      1.0  0.5812553063437075  0.6044312394290347  0.9600417205880053  1.0000
  H   H236      1.0  0.5799123199464968  0.5604643362650021  0.9382111034325239  1.0000
  H   H237      1.0  0.5897911231131376  0.5672500376714583  0.9838203830942498  1.0000
  H   H238      1.0  0.4668681622560284  0.5317515206356499  0.9449967101606895  1.0000
  H   H239      1.0  0.5078776159367632  0.5384434399421689  0.9156799670594996  1.0000
  H   H240      1.0  0.5104198117933719  0.5834567641266452  0.9364847388362383  1.0000
  N   N13       1.0  0.42165047460176425  0.6580419412051486  0.37493840175308424  1.0000
  C   C193      1.0  0.4455002433366871  0.6358939007528447  0.36758759388883394  1.0000
  C   C194      1.0  0.38734427965566204  0.633306927556253  0.3998467056187136  1.0000
  C   C195      1.0  0.40317957935944787  0.6630911615113155  0.34251359663254327  1.0000
  C   C196      1.0  0.4504155830195455  0.6998389776778868  0.38979543335325123  1.0000
  H   H241      1.0  0.4717568075528267  0.6536908801915151  0.3488924325816736  1.0000
  H   H242      1.0  0.424876278842046  0.6042498646296022  0.35619915913643696  1.0000
  H   H243      1.0  0.45973348442531453  0.6311773512887164  0.39140991893890625  1.0000
  H   H244      1.0  0.368761379414668  0.6492453301864807  0.40585452763346813  1.0000
  H   H245      1.0  0.3649754705809205  0.6016485717136478  0.38934196660341147  1.0000
  H   H246      1.0  0.39996058554932884  0.6287457932480016  0.42465296603249947  1.0000
  H   H247      1.0  0.3852580976395729  0.680073602984493  0.347106248034728  1.0000
  H   H248      1.0  0.38106304623408416  0.6321366621063176  0.3306990459326444  1.0000
  H   H249      1.0  0.42802118487751983  0.6811283965067636  0.3229516609591434  1.0000
  H   H250      1.0  0.4337721407811911  0.7180056992482999  0.39453527222870705  1.0000
  H   H251      1.0  0.47746693633387244  0.7188783133465961  0.37218777351931603  1.0000
  H   H252      1.0  0.46389455462736795  0.6972055411686098  0.41483350843307587  1.0000
  N   N14       1.0  0.5452614160068904  0.8866282631722765  0.25928258283851824  1.0000
  C   C197      1.0  0.5440358494157866  0.9209158855225361  0.24007864127804016  1.0000
  C   C198      1.0  0.5102488834730016  0.8686868764248148  0.28449773632684827  1.0000
  C   C199      1.0  0.5857647380514981  0.9032817381559123  0.27794574780057957  1.0000
  C   C200      1.0  0.5407197675042551  0.85341398406733  0.23498082635914444  1.0000
  H   H253      1.0  0.5697357722935659  0.935150570848435  0.2204579877053418  1.0000
  H   H254      1.0  0.5473290998741419  0.9463578651741258  0.25786658102222976  1.0000
  H   H255      1.0  0.5133969220713139  0.909401115237765  0.22637159467884244  1.0000
  H   H256      1.0  0.5128851532188348  0.8926665156278524  0.3035632564399966  1.0000
  H   H257      1.0  0.4789784042956232  0.8561444546271119  0.2716486367618734  1.0000
  H   H258      1.0  0.5100441197119361  0.8426123843209343  0.2992537665697279  1.0000
  H   H259      1.0  0.587363977040046  0.8780457918708348  0.2928582565537422  1.0000
  H   H260      1.0  0.5898281389666012  0.9278864350197693  0.2969477435274144  1.0000
  H   H261      1.0  0.6130938050799492  0.9171346897903808  0.25981468596304036  1.0000
  H   H262      1.0  0.5415437887036179  0.8271169388215825  0.24886036882218077  1.0000
  H   H263      1.0  0.5665866714788695  0.8657344214405531  0.21543509805269878  1.0000
  H   H264      1.0  0.5101916658575805  0.839728737492172  0.22083236590076688  1.0000
  N   N15       1.0  0.6198108722146282  0.5197290019956157  0.36666232617453703  1.0000
  C   C201      1.0  0.6481305113869301  0.5136587586590534  0.34277988026121214  1.0000
  C   C202      1.0  0.6452291072054589  0.5552631192914869  0.3901502557052829  1.0000
  C   C203      1.0  0.5953003120496868  0.48127051629255535  0.38737871619610387  1.0000
  C   C204      1.0  0.5905131508785887  0.5285304942237024  0.34662567020598817  1.0000
  H   H265      1.0  0.6299746433953994  0.4864760934904966  0.32521010582404325  1.0000
  H   H266      1.0  0.6709525218466111  0.5075119268063258  0.35723865812138395  1.0000
  H   H267      1.0  0.6668228904177547  0.5419211974258239  0.3263921127698107  1.0000
  H   H268      1.0  0.6247378217553803  0.560425606769805  0.4086882872615111  1.0000
  H   H269      1.0  0.6674370595044637  0.5493195265509756  0.40582574912839536  1.0000
  H   H270      1.0  0.6642619531478452  0.5849752557797515  0.3755181196186353  1.0000
  H   H271      1.0  0.6162541545998623  0.4741927679248666  0.4034296657296003  1.0000
  H   H272      1.0  0.5757897347996892  0.4534127468935891  0.37079793988452076  1.0000
  H   H273      1.0  0.573332098125127  0.48466967962973617  0.4053488419707176  1.0000
  H   H274      1.0  0.5697885976473357  0.5016667441334017  0.3295368417705958  1.0000
  H   H275      1.0  0.607752967265228  0.5568910162225887  0.3300463791963795  1.0000
  H   H276      1.0  0.5692905742522381  0.5340714397465137  0.36398444587016243  1.0000
  N   N16       1.0  0.5739677430107518  0.5360710184482403  0.7286195087478322  1.0000
  C   C205      1.0  0.5319398943130101  0.5011289759179505  0.73841158361602  1.0000
  C   C206      1.0  0.5698574300556821  0.5722781498012569  0.7168483061077271  1.0000
  C   C207      1.0  0.5918451703911962  0.5223709459488692  0.7003355243394227  1.0000
  C   C208      1.0  0.6022053340162986  0.548595535868411  0.7589999017782714  1.0000
  H   H277      1.0  0.5339831343295063  0.47381762427808194  0.7487030231066352  1.0000
  H   H278      1.0  0.5101259345689264  0.4899422416947179  0.7159376738157537  1.0000
  H   H279      1.0  0.516969410132262  0.5109168943899408  0.7588513888734063  1.0000
  H   H280      1.0  0.6007713432209146  0.5989811823760778  0.7085499951897091  1.0000
  H   H281      1.0  0.547921449382731  0.5639009222828218  0.69452127018059  1.0000
  H   H282      1.0  0.5574654969298221  0.5839990847222695  0.7379029291184148  1.0000
  H   H283      1.0  0.6238002244408876  0.5477989268270468  0.6926039749152723  1.0000
  H   H284      1.0  0.5717159839183671  0.513524658684991  0.6767755165470541  1.0000
  H   H285      1.0  0.5946277044787315  0.49456460278170594  0.7080414977844781  1.0000
  H   H286      1.0  0.5896170874259739  0.5593454318618665  0.780679137994406  1.0000
  H   H287      1.0  0.634233436082658  0.5749156455205077  0.7526527743683478  1.0000
  H   H288      1.0  0.6057260100259725  0.5219725996528409  0.7689327137784286  1.0000
  N   N17       1.0  0.34238693414647015  0.4474784948503979  0.16378269097467046  1.0000
  C   C209      1.0  0.37593864953874506  0.48646492829739085  0.14786537166745503  1.0000
  C   C210      1.0  0.31658753834177  0.4577346490355226  0.1872239517450652  1.0000
  C   C211      1.0  0.36181910119384747  0.42695621295594416  0.1836632825101995  1.0000
  C   C212      1.0  0.31526556482861035  0.41883364343960267  0.1363053352135912  1.0000
  H   H289      1.0  0.3625525550535053  0.5019681728129993  0.1315137002175628  1.0000
  H   H290      1.0  0.39738971683586405  0.4802725476619067  0.1313431589633958  1.0000
  H   H291      1.0  0.39601027664403377  0.5093889276007638  0.1679633586123908  1.0000
  H   H292      1.0  0.3011335190155645  0.47295713944388473  0.17306044619632083  1.0000
  H   H293      1.0  0.2913028962164973  0.4292334182849344  0.20017347851612036  1.0000
  H   H294      1.0  0.3361903429186032  0.4799097696340154  0.2079637759779358  1.0000
  H   H295      1.0  0.33759393938780213  0.39730108899124333  0.19597797152215582  1.0000
  H   H296      1.0  0.38248553880224817  0.4477792734148301  0.20460329381753845  1.0000
  H   H297      1.0  0.38228348773211956  0.4195923009214733  0.16692436218859394  1.0000
  H   H298      1.0  0.2896251555492216  0.38901826040818743  0.14738539911531373  1.0000
  H   H299      1.0  0.33388011028849235  0.4107135815922096  0.11807042164148128  1.0000
  H   H300      1.0  0.3000474843671464  0.43343222878606624  0.12091330227139117  1.0000
  N   N18       1.0  0.49103929186270234  0.09709215976697516  0.5090189370342469  1.0000
  C   C213      1.0  0.5074374309391606  0.07542503281731006  0.48678428645313676  1.0000
  C   C214      1.0  0.5074733636918651  0.14063426158172065  0.4966988140882154  1.0000
  C   C215      1.0  0.5049056901394717  0.09784986666604745  0.5450047479280933  1.0000
  C   C216      1.0  0.4444045669168733  0.07438000247687637  0.5077916279253305  1.0000
  H   H301      1.0  0.4947967254000958  0.04214739245782306  0.4949573288845334  1.0000
  H   H302      1.0  0.5425225168630027  0.09076968612589198  0.4882563078487511  1.0000
  H   H303      1.0  0.49868358177396377  0.07513364438735648  0.4591932558217983  1.0000
  H   H304      1.0  0.5426112482767812  0.15833704268000526  0.4970186646932764  1.0000
  H   H305      1.0  0.4971755446154067  0.14142628590319384  0.469761379773282  1.0000
  H   H306      1.0  0.49634906944348184  0.1581166248438728  0.5133968367498107  1.0000
  H   H307      1.0  0.539954654006802  0.11550023640921347  0.547074673653055  1.0000
  H   H308      1.0  0.49423954646378765  0.06548786593661293  0.5546793401249472  1.0000
  H   H309      1.0  0.4924718887657979  0.11310798541035205  0.562908736655084  1.0000
  H   H310      1.0  0.43105323274805774  0.09000344836991281  0.5242778184893349  1.0000
  H   H311      1.0  0.4311109502484634  0.041513160241873015  0.5172959969455576  1.0000
  H   H312      1.0  0.4327567896173767  0.07285937116451402  0.48093604343401763  1.0000
  N   N19       1.0  0.15903992440768994  0.5152581252668328  0.7036454376950013  1.0000
  C   C217      1.0  0.19365595909738675  0.5092371284041457  0.7170490672585524  1.0000
  C   C218      1.0  0.1723522805177125  0.5605028574765439  0.7036977329500351  1.0000
  C   C219      1.0  0.12117206264043924  0.49229968204632435  0.7257547550224356  1.0000
  C   C220      1.0  0.14892900089780375  0.49906032952571133  0.6678894975460891  1.0000
  H   H313      1.0  0.18516541605119047  0.4755523066692014  0.7164256388383722  1.0000
  H   H314      1.0  0.20168150470754545  0.5203226273610151  0.7442424950556313  1.0000
  H   H315      1.0  0.22291043929123783  0.5268812809418849  0.7013160948803054  1.0000
  H   H316      1.0  0.18060348445764843  0.5740205278993875  0.7301942719132216  1.0000
  H   H317      1.0  0.20038973014918646  0.5786503484483235  0.6867193810143378  1.0000
  H   H318      1.0  0.14677826595510485  0.5660841815285128  0.6939263200755477  1.0000
  H   H319      1.0  0.09463771083560495  0.49668570228493203  0.7165752126001717  1.0000
  H   H320      1.0  0.1276637487129673  0.5033854736723674  0.7530481538549468  1.0000
  H   H321      1.0  0.10973824815931638  0.45792472740780216  0.7257880083256263  1.0000
  H   H322      1.0  0.1767464161110118  0.5156709544214034  0.6504285971425962  1.0000
  H   H323      1.0  0.123078238104763  0.5033833645585051  0.6570740680239541  1.0000
  H   H324      1.0  0.13875313492066813  0.46499187191720437  0.6665833030229138  1.0000
  N   N20       1.0  0.693503233766625  0.3552718578252542  0.459115153116147  1.0000
  C   C221      1.0  0.7279029455703968  0.3619869820849884  0.4829774300615031  1.0000
  C   C222      1.0  0.6604955311352693  0.31052631287112825  0.4595962174928097  1.0000
  C   C223      1.0  0.7105885360437754  0.3673357391453791  0.4236508218199583  1.0000
  C   C224      1.0  0.6749603065230065  0.38130137684288334  0.4702778311035508  1.0000
  H   H325      1.0  0.7533588685684101  0.3955021443978117  0.4829966133538781  1.0000
  H   H326      1.0  0.7424979390366256  0.3426471112139118  0.4754385222863406  1.0000
  H   H327      1.0  0.7160672493091371  0.35352166056198736  0.5100262407856505  1.0000
  H   H328      1.0  0.6332570108167703  0.30481421217936905  0.4428981617063068  1.0000
  H   H329      1.0  0.6728652399940589  0.28988058532604827  0.45036881471506673  1.0000
  H   H330      1.0  0.6476173847265865  0.30020398503007645  0.48617825168511886  1.0000
  H   H331      1.0  0.6854189286813485  0.36253682539958654  0.4049393916138797  1.0000
  H   H332      1.0  0.7252024197350633  0.34866448266424255  0.41433115145367416  1.0000
  H   H333      1.0  0.7352862200512329  0.40103830781440036  0.42233298067851405  1.0000
  H   H334      1.0  0.6497858232300517  0.3779845147837981  0.45223447243907244  1.0000
  H   H335      1.0  0.6990664612044316  0.41525511705721213  0.47123971538921694  1.0000
  H   H336      1.0  0.6602399505927518  0.37197182523194594  0.49641563278547346  1.0000
  N   N21       1.0  0.7008422631696427  0.14175239040899362  0.2848182994419176  1.0000
  C   C225      1.0  0.6883755442041275  0.13785545165449953  0.24804363568347093  1.0000
  C   C226      1.0  0.6643870799462428  0.13354584394061905  0.30697213148578295  1.0000
  C   C227      1.0  0.7359297579736829  0.18465852719973183  0.29144943313644606  1.0000
  C   C228      1.0  0.7146571148442326  0.11093595995771245  0.2927394618063179  1.0000
  H   H337      1.0  0.6795922478630292  0.16187823887075517  0.24081507395021967  1.0000
  H   H338      1.0  0.6605531457919069  0.10658047878482217  0.24237852436100263  1.0000
  H   H339      1.0  0.7145906008523382  0.14240840108620811  0.2304333504912312  1.0000
  H   H340      1.0  0.6517941260368936  0.15490628220101071  0.30040064076777795  1.0000
  H   H341      1.0  0.6378531604073034  0.10088203033182358  0.3035240130258667  1.0000
  H   H342      1.0  0.6729202709704397  0.13780891810500026  0.3348721015088774  1.0000
  H   H343      1.0  0.7637769784617094  0.19208415001734294  0.2748414310994173  1.0000
  H   H344      1.0  0.746644743348645  0.18884592488869578  0.31882835884693894  1.0000
  H   H345      1.0  0.7265086533242774  0.20870967481143626  0.28596198336004486  1.0000
  H   H346      1.0  0.7239987381574127  0.11278124328383352  0.3203717632179206  1.0000
  H   H347      1.0  0.7423582152576597  0.11655262589759778  0.27657987238620657  1.0000
  H   H348      1.0  0.6889887014956744  0.0782606194525618  0.28765449463504705  1.0000
  N   N22       1.0  0.6468544277824686  0.2800629543129025  0.6757153060210875  1.0000
  C   C229      1.0  0.6228386672451105  0.30252495489335224  0.6711411640140702  1.0000
  C   C230      1.0  0.6881990730097189  0.3082411433997374  0.6917624369809148  1.0000
  C   C231      1.0  0.6535715894873108  0.26591453827173694  0.6416347691824623  1.0000
  C   C232      1.0  0.6226663739492283  0.24321157023642462  0.6982786876307081  1.0000
  H   H349      1.0  0.5914704039522126  0.2817607360055857  0.659036234189966  1.0000
  H   H350      1.0  0.639962675964062  0.3304492012787462  0.6540859610004008  1.0000
  H   H351      1.0  0.6169184638816986  0.3133821972719127  0.6963800585008126  1.0000
  H   H352      1.0  0.7070119734879603  0.2920200970712618  0.6950902248123393  1.0000
  H   H353      1.0  0.7073185615010501  0.3366136087168408  0.6756346641691703  1.0000
  H   H354      1.0  0.6844976736768528  0.3188834609055115  0.7178867124415022  1.0000
  H   H355      1.0  0.622957168888713  0.2443511889740055  0.628988525739675  1.0000
  H   H356      1.0  0.671496011992055  0.24864544581554893  0.6441628020112011  1.0000
  H   H357      1.0  0.6716034610572078  0.29279406086368337  0.6238055541910866  1.0000
  H   H358      1.0  0.6387835273161656  0.2243028912951555  0.7006682185097528  1.0000
  H   H359      1.0  0.5905915738412473  0.2221331213971201  0.6877375541418785  1.0000
  H   H360      1.0  0.6186971909401052  0.2525551637319025  0.7248173884268326  1.0000
  N   N23       1.0  0.9782010512380787  0.49133772238736645  0.5686020161468003  1.0000
  C   C233      1.0  0.9988807430783239  0.5366537117842175  0.5603966935435475  1.0000
  C   C234      1.0  0.9558263030020682  0.4834364039735246  0.6021321404658772  1.0000
  C   C235      1.0  0.010548531173215858  0.47833348670570586  0.5709204101270715  1.0000
  C   C236      1.0  0.9478915587859996  0.46701586664483097  0.5409655496921859  1.0000
  H   H361      1.0  0.02258059461166617  0.5558201315054857  0.5805067957403754  1.0000
  H   H362      1.0  0.9755606467230356  0.5478375628716344  0.5588152643811294  1.0000
  H   H363      1.0  0.015838459432784724  0.5436690856198205  0.5351324195591723  1.0000
  H   H364      1.0  0.9304020411774998  0.4918657043547732  0.6011588261214666  1.0000
  H   H365      1.0  0.9412226613259305  0.4498306559744158  0.6099089587352078  1.0000
  H   H366      1.0  0.9778092403330231  0.5023373659503515  0.6232509238421047  1.0000
  H   H367      1.0  0.996462249462625  0.44445114121548573  0.577514125806864  1.0000
  H   H368      1.0  0.034390425079491305  0.49668371119606963  0.5909831479724973  1.0000
  H   H369      1.0  0.027687351867926147  0.483417964993105  0.5459645723919178  1.0000
  H   H370      1.0  0.9317365172742884  0.4327016228741855  0.5464394282421137  1.0000
  H   H371      1.0  0.9640775235618708  0.4719320114212755  0.5154459689302832  1.0000
  H   H372      1.0  0.9232848151900711  0.47635985373989376  0.538003207322527  1.0000
  N   N24       1.0  0.3756671049697664  0.5037764889325085  0.6043841849002575  1.0000
  C   C237      1.0  0.3304293290078587  0.47704355173546875  0.5960699585689443  1.0000
  C   C238      1.0  0.4015967134710188  0.49630684979783446  0.5788788747813908  1.0000
  C   C239      1.0  0.38386565412456264  0.49340762495689333  0.6394422571417125  1.0000
  C   C240      1.0  0.3868556543547511  0.5484485668120053  0.6032472859093038  1.0000
  H   H373      1.0  0.32096461787922087  0.4431298960616102  0.5961900444358568  1.0000
  H   H374      1.0  0.32265912568402444  0.48467311764223975  0.5701736680010867  1.0000
  H   H375      1.0  0.31009635338102093  0.48140538415160933  0.615251835384329  1.0000
  H   H376      1.0  0.39498231641465464  0.4632061886029703  0.5796955806581521  1.0000
  H   H377      1.0  0.3955765692937169  0.5029526796495477  0.5520316467932651  1.0000
  H   H378      1.0  0.4359299453046289  0.5168209440208665  0.5839867194826242  1.0000
  H   H379      1.0  0.41767602753538524  0.5130700361068707  0.6465150318613627  1.0000
  H   H380      1.0  0.375749065261435  0.45993534679561754  0.6414048095789388  1.0000
  H   H381      1.0  0.36498279159397284  0.49887763932074325  0.6593833096277258  1.0000
  H   H382      1.0  0.4208284899607441  0.5695174561387998  0.6094731355071601  1.0000
  H   H383      1.0  0.3680471888193839  0.5552282471465151  0.6222997317319987  1.0000
  H   H384      1.0  0.38094417591834906  0.5574070524269734  0.5772213219944863  1.0000
