data_image0
_chemical_formula_structural       FeS2FeS2FeSFeS3FeS2FeS2FeSFeS3FeS2FeS2FeSFeS3FeS2FeS2FeSFeS3FeS2FeS2FeSFeS3FeS2FeS2FeSFeS3C6H4C6H4C6H4C6H4C6H4C6H4C6H4C6H4C6H4C6H4C6H4C6H4FeS2FeS2FeSFeS3FeS2FeS2FeSFeS3FeS2FeS2FeSFeS3FeS2FeS2FeSFeS3FeS2FeS2FeSFeS3FeS2FeS2FeSFeS3C6H4C6H4C6H4C6H4C6H4C6H4C6H4C6H4C6H4C6H4C6H4C6H4NC4H12NC4H12NC4H12NC4H12NC4H12NC4H12NC4H12NC4H12NC4H12NC4H12NC4H12NC4H12NC4H12NC4H12NC4H12NC4H12NC4H12NC4H12NC4H12NC4H12NC4H12NC4H12NC4H12NC4H12
_chemical_formula_sum              "Fe48 S96 C240 H384 N24"
_cell_length_a       33.90395710492448
_cell_length_b       33.65307156590965
_cell_length_c       39.83755000492953
_cell_angle_alpha    90.01135343022771
_cell_angle_beta     90.13413974088529
_cell_angle_gamma    119.6798418656491

_space_group_name_H-M_alt    "P 1"
_space_group_IT_number       1

loop_
  _space_group_symop_operation_xyz
  'x, y, z'

loop_
  _atom_site_type_symbol
  _atom_site_label
  _atom_site_symmetry_multiplicity
  _atom_site_fract_x
  _atom_site_fract_y
  _atom_site_fract_z
  _atom_site_occupancy
  Fe  Fe1       1.0  0.42369240246221623  0.3648713967942594  0.3512919704358958  1.0000
  S   S1        1.0  0.37087852218029976  0.36496664661443856  0.3175204820485265  1.0000
  S   S2        1.0  0.45360475052435634  0.3178368102173003  0.3433532106468811  1.0000
  Fe  Fe2       1.0  0.44043992421792144  0.4527834971973808  0.3870136990337578  1.0000
  S   S3        1.0  0.3897085650909924  0.4596523267796789  0.35434861278342944  1.0000
  S   S4        1.0  0.47402992991265963  0.5106849227090009  0.4248871125978367  1.0000
  Fe  Fe3       1.0  0.34531753572968993  0.38454030443501885  0.36319566025869676  1.0000
  S   S5        1.0  0.268679867487711  0.3499814416271531  0.36994664722983606  1.0000
  Fe  Fe4       1.0  0.4196910730419082  0.4400361858153892  0.3117121301492756  1.0000
  S   S6        1.0  0.42903512871842797  0.46550056283347807  0.25813259808621625  1.0000
  S   S7        1.0  0.39426592211096134  0.37803497354063437  0.39821286657094956  1.0000
  S   S8        1.0  0.4742234326163143  0.43962166127397645  0.3432110423768164  1.0000
  Fe  Fe5       1.0  0.7047467334234094  0.08317842310879721  0.5071484164356239  1.0000
  S   S9        1.0  0.7089637425954715  0.029331313032068332  0.4765446282321924  1.0000
  S   S10       1.0  0.7605052430128795  0.15699853124377577  0.5144426472500753  1.0000
  Fe  Fe6       1.0  0.681068623806821  0.09615002560615449  0.06524057083900325  1.0000
  S   S11       1.0  0.6314275329339536  0.03764962378975745  0.033167023200004725  1.0000
  S   S12       1.0  0.6654489509747195  0.1239062525464852  0.11205404450948676  1.0000
  Fe  Fe7       1.0  0.6808620056708463  0.011387503668574661  0.0385850941738502  1.0000
  S   S13       1.0  0.6471565487318108  0.9341931556027434  0.046609553594429115  1.0000
  Fe  Fe8       1.0  0.635292387919452  0.005078318089687395  0.46448409455779194  1.0000
  S   S14       1.0  0.6038054393272078  0.9798890504734697  0.41304435638950754  1.0000
  S   S15       1.0  0.7280910006217504  0.06776151726966799  0.07315164614651487  1.0000
  S   S16       1.0  0.6327603764861215  0.06186912221948337  0.4922065146121767  1.0000
  Fe  Fe9       1.0  0.08810433044463234  0.42140670515531825  0.4277732863848958  1.0000
  S   S17       1.0  0.03125670571419092  0.3798166477175738  0.39163405866779205  1.0000
  S   S18       1.0  0.1646610399399049  0.4512519741688883  0.4240918877732101  1.0000
  Fe  Fe10      1.0  0.025702345433589412  0.42866055224328337  0.47887093369027894  1.0000
  S   S19       1.0  0.9632239614042811  0.3879042284254654  0.4474390522475637  1.0000
  S   S20       1.0  0.023134920108184517  0.4467400129980303  0.5333915330578293  1.0000
  Fe  Fe11      1.0  0.9908300614854019  0.3410599244910382  0.4370093082564867  1.0000
  S   S21       1.0  0.9444810214042352  0.26414964834712407  0.4319561182129009  1.0000
  Fe  Fe12      1.0  0.005992330727644372  0.42856926507804705  0.4036291631648078  1.0000
  S   S22       1.0  0.9688524163299049  0.44479530141742585  0.3630979377150732  1.0000
  S   S23       1.0  0.050138622261574534  0.3780210488416099  0.47199210934680574  1.0000
  S   S24       1.0  0.06607568927370974  0.4740282259878383  0.4361275993703301  1.0000
  Fe  Fe13      1.0  0.44452966152017126  0.04300187237560254  0.21812104561494092  1.0000
  S   S25       1.0  0.4412587458880397  0.993459468549785  0.2575500956591733  1.0000
  S   S26       1.0  0.4628569218399472  0.03836191451127739  0.1641605644863494  1.0000
  Fe  Fe14      1.0  0.39764010798690724  0.08183880277163831  0.26288140976555824  1.0000
  S   S27       1.0  0.39040456878131546  0.03443042842117074  0.3048284371793752  1.0000
  S   S28       1.0  0.362543455759945  0.12436880163820853  0.2690916861302507  1.0000
  Fe  Fe15      1.0  0.4622201803915478  0.05269036069271218  0.29307735461059536  1.0000
  S   S29       1.0  0.5125606373427403  0.08006506600219317  0.33627165410164517  1.0000
  Fe  Fe16      1.0  0.3697376084644426  0.979551749980588  0.2655685679518972  1.0000
  S   S30       1.0  0.30885123757461247  0.9094039495288994  0.27602897683556155  1.0000
  S   S31       1.0  0.4707794010656284  0.10377115518049722  0.2529156505881996  1.0000
  S   S32       1.0  0.3717482028828775  0.025519036293364824  0.22435121399359956  1.0000
  Fe  Fe17      1.0  0.7201718338653501  0.6675734351975705  0.11547537637087503  1.0000
  S   S33       1.0  0.7156019605532946  0.7078811208106955  0.15835780610092737  1.0000
  S   S34       1.0  0.7775143078910403  0.6531014743563281  0.10319939009264152  1.0000
  Fe  Fe18      1.0  0.6314158912633997  0.6524501865371748  0.08470925842658111  1.0000
  S   S35       1.0  0.6188346438108964  0.6908834898038166  0.12577541034599335  1.0000
  S   S36       1.0  0.587755955736147  0.6317421607801608  0.03771567986525341  1.0000
  Fe  Fe19      1.0  0.6926360816770527  0.7425494603653584  0.12095072917205264  1.0000
  S   S37       1.0  0.7188214777778054  0.8188409744377585  0.127900560229695  1.0000
  Fe  Fe20      1.0  0.6417650287680209  0.653920750917878  0.1607702720650129  1.0000
  S   S38       1.0  0.6160893135802739  0.6371766080745649  0.21433664724723103  1.0000
  S   S39       1.0  0.704023803249115  0.707127868489776  0.07744125267779312  1.0000
  S   S40       1.0  0.6476611084170176  0.6103491764708157  0.12022043030320367  1.0000
  Fe  Fe21      1.0  0.05501965846990497  0.6317973529143862  0.21851301786043076  1.0000
  S   S41       1.0  0.10087763917234062  0.6613579816920203  0.173816412745218  1.0000
  S   S42       1.0  0.08205798076111906  0.6047547711750476  0.2595050653237859  1.0000
  Fe  Fe22      1.0  0.9894070014650913  0.6629786773280631  0.19371051322625596  1.0000
  S   S43       1.0  0.0307157940268957  0.69569217830192  0.14785791177253663  1.0000
  S   S44       1.0  0.9260581021605087  0.6659619584361486  0.20868344004155298  1.0000
  Fe  Fe23      1.0  0.03673366569147168  0.6322232178576128  0.14361393161935268  1.0000
  S   S45       1.0  0.029993275678689448  0.6063684798455041  0.09012034542832822  1.0000
  Fe  Fe24      1.0  0.09237578340043116  0.7227364376871046  0.18122593745450605  1.0000
  S   S46       1.0  0.1516997773672831  0.7936772167502099  0.17005565293153438  1.0000
  S   S47       1.0  0.9908005754017951  0.5969859273140473  0.18767638054486782  1.0000
  S   S48       1.0  0.05072436086855369  0.6955656004189492  0.22795837873760844  1.0000
  C   C1        1.0  0.8188904023260457  0.6576825286799381  0.13289054294518635  1.0000
  C   C2        1.0  0.8550788366633754  0.6517018217190018  0.12202533460381533  1.0000
  C   C3        1.0  0.8883236260019604  0.6545677070590304  0.1448203111607506  1.0000
  C   C4        1.0  0.8855589309647577  0.6631379255248178  0.17886877360567183  1.0000
  C   C5        1.0  0.8493187548382244  0.6690287827214216  0.18975332161502284  1.0000
  C   C6        1.0  0.8162447203208937  0.6664870673166844  0.16691169482316034  1.0000
  H   H1        1.0  0.8574933531084559  0.6448407835072061  0.09581752470358355  1.0000
  H   H2        1.0  0.9159236880002991  0.6498750792550197  0.13606131607270022  1.0000
  H   H3        1.0  0.8468180385012342  0.6756750222038482  0.21599481794684672  1.0000
  H   H4        1.0  0.7886077282506508  0.6710990676668227  0.17567527510385703  1.0000
  C   C7        1.0  0.2660655286707068  0.8773427155477861  0.24591620206961143  1.0000
  C   C8        1.0  0.22881390384570888  0.8352039149624828  0.2553455116157926  1.0000
  C   C9        1.0  0.19369011260163685  0.8090989850385524  0.23236062524587892  1.0000
  C   C10       1.0  0.1953713657458931  0.8250807380838266  0.19970369667540538  1.0000
  C   C11       1.0  0.23256888784352903  0.8673032318355804  0.19025462026256706  1.0000
  C   C12       1.0  0.2678555634184123  0.8932636769339775  0.21318397287511653  1.0000
  H   H5        1.0  0.22719673403764848  0.8225460176476131  0.28056620912493335  1.0000
  H   H6        1.0  0.1653433754902965  0.7766224279060866  0.23994955100725204  1.0000
  H   H7        1.0  0.23427011088626504  0.8798494194061351  0.16500024477617856  1.0000
  H   H8        1.0  0.29656628079449276  0.9253550529179284  0.20545691120058623  1.0000
  C   C13       1.0  0.0499762413249914  0.5585389453858469  0.28686587505922595  1.0000
  C   C14       1.0  0.07199643858747565  0.5516563350075047  0.3142751337649159  1.0000
  C   C15       1.0  0.04757603101904608  0.5165213694636742  0.3375345286505036  1.0000
  C   C16       1.0  0.0008008609219989527  0.4880640594705288  0.33360784072014377  1.0000
  C   C17       1.0  0.978734376591946  0.49456547989969907  0.3059949646660003  1.0000
  C   C18       1.0  0.003279059347209401  0.5295587695433535  0.2825575013869951  1.0000
  H   H9        1.0  0.10814721778059753  0.5738837963016328  0.3176949265316231  1.0000
  H   H10       1.0  0.06492389130666887  0.5117891626707578  0.35866903911553555  1.0000
  H   H11       1.0  0.9426001885179203  0.47234693213563766  0.30265961749664555  1.0000
  H   H12       1.0  0.9862089492851497  0.5340877140821734  0.26115874945507817  1.0000
  C   C19       1.0  0.09030592322853263  0.5200723444519899  0.0502740229483106  1.0000
  C   C20       1.0  0.09508381946641728  0.5323707987368516  0.08436506937838545  1.0000
  C   C21       1.0  0.07610271944763462  0.5581567576548263  0.09715098423344286  1.0000
  C   C22       1.0  0.0523663578682442  0.5719598194638901  0.07580388606822688  1.0000
  C   C23       1.0  0.04738753657907979  0.5594554149329561  0.04176400433655187  1.0000
  C   C24       1.0  0.06622871197200728  0.5335620584735957  0.029012683507000453  1.0000
  H   H13       1.0  0.11361034924155661  0.5219299678140882  0.10095370998101062  1.0000
  H   H14       1.0  0.08005056116295702  0.5675318921339086  0.12343600836036987  1.0000
  H   H15       1.0  0.02917179759833856  0.5701855665383552  0.025104455718076065  1.0000
  H   H16       1.0  0.07114676755033475  0.5393746880916038  0.5050598813480792  1.0000
  C   C25       1.0  0.5775101658610228  0.007227781060593408  0.3921457034009996  1.0000
  C   C26       1.0  0.5501518779067259  0.986565209159764  0.3637568125862263  1.0000
  C   C27       1.0  0.529433832339265  0.008030469325685408  0.34644919515306055  1.0000
  C   C28       1.0  0.5364416222870707  0.05060694744355804  0.3572688620736502  1.0000
  C   C29       1.0  0.5638354980413303  0.07124142926519207  0.38555360185822857  1.0000
  C   C30       1.0  0.5841468579263893  0.049648037468725904  0.402952270713887  1.0000
  H   H17       1.0  0.5449358859258464  0.9538173664018733  0.35516023033689836  1.0000
  H   H18       1.0  0.5084778769220843  0.9918645987714512  0.3246375649305157  1.0000
  H   H19       1.0  0.569721306936171  0.10429218172431283  0.39396063855357594  1.0000
  H   H20       1.0  0.6056120908941388  0.06627783448044308  0.42435049822448295  1.0000
  C   C31       1.0  0.6090372094759913  0.100743729143569  0.12611577824707865  1.0000
  C   C32       1.0  0.6008405158799793  0.10692389977332825  0.15972750763616655  1.0000
  C   C33       1.0  0.5561561962365753  0.08796886924023431  0.17182643337373754  1.0000
  C   C34       1.0  0.5194454287475541  0.06314970270501956  0.15019571849634697  1.0000
  C   C35       1.0  0.5276806084638833  0.05721648532717816  0.11653164977456068  1.0000
  C   C36       1.0  0.5723267752447481  0.07587197521485889  0.10452103201579392  1.0000
  H   H21       1.0  0.6291610225981272  0.12628777942090696  0.17651235186015826  1.0000
  H   H22       1.0  0.5501160178186363  0.09274356067070205  0.19778735274730538  1.0000
  H   H23       1.0  0.4993606687938039  0.03830790260599248  0.09964912393230667  1.0000
  H   H24       1.0  0.5783294868565001  0.07165364234813176  0.07845668474473347  1.0000
  C   C37       1.0  0.6688762457847126  0.9032242859155477  0.06859036320859618  1.0000
  C   C38       1.0  0.6458259669025709  0.8552371847753522  0.06598423087367297  1.0000
  C   C39       1.0  0.6611284079846318  0.8290211019082063  0.08352007161718986  1.0000
  C   C40       1.0  0.6993939802170991  0.8505613677002545  0.10426874228023117  1.0000
  C   C41       1.0  0.7220038481132617  0.8985040395570761  0.1073609085261697  1.0000
  C   C42       1.0  0.7070375899027965  0.924791494304069  0.08945996371555416  1.0000
  H   H25       1.0  0.73836713753515  0.8939134107240054  0.591311648363806  1.0000
  H   H26       1.0  0.6433519092628549  0.7921841222010059  0.08089698525937224  1.0000
  H   H27       1.0  0.7516251671483106  0.9154868633099132  0.12337825061428347  1.0000
  H   H28       1.0  0.7250448872287484  0.9616636927894355  0.09180198561033154  1.0000
  C   C43       1.0  0.8099178291848291  0.18677695587147278  0.48957513058357083  1.0000
  C   C44       1.0  0.8200362584994844  0.16551998853826355  0.4634306762903198  1.0000
  C   C45       1.0  0.8615123000447847  0.18953342059940897  0.4461275793398403  1.0000
  C   C46       1.0  0.8927550011801678  0.23520661000914395  0.4543047114323839  1.0000
  C   C47       1.0  0.8821727021187927  0.2567509389662542  0.4798997857862509  1.0000
  C   C48       1.0  0.8410836024577867  0.232510051908111  0.49757458593185977  1.0000
  H   H29       1.0  0.7960879436672165  0.1305553764309647  0.4566374200263928  1.0000
  H   H30       1.0  0.8693705153480992  0.1726769360418084  0.4262387433292837  1.0000
  H   H31       1.0  0.9059531553351632  0.2918680669481805  0.4865047138659407  1.0000
  H   H32       1.0  0.8335730941986367  0.249241666637533  0.5177670643039374  1.0000
  C   C49       1.0  0.5056038631255837  0.5106760218141853  0.46015800689378583  1.0000
  C   C50       1.0  0.5158736820495808  0.543716421801513  0.48525176436169687  1.0000
  C   C51       1.0  0.54486505995134  0.5483121097838629  0.5120801995982407  1.0000
  C   C52       1.0  0.5631823695691699  0.5192351942488574  0.5142838093853664  1.0000
  C   C53       1.0  0.5514583183002874  0.4849235276038902  0.4899570599327267  1.0000
  C   C54       1.0  0.5229685708680903  0.48080146280623376  0.4628056895696667  1.0000
  H   H33       1.0  0.5015891181921366  0.5661514512143788  0.4836821935378219  1.0000
  H   H34       1.0  0.5530142262489152  0.5743088016891584  0.531001250778639  1.0000
  H   H35       1.0  0.5562363051402595  0.6071167811487682  0.9703250480418606  1.0000
  H   H36       1.0  0.5151309052171685  0.45512545987301434  0.4436504662182029  1.0000
  C   C55       1.0  0.5641418727142797  0.5888153263556569  0.22569887489102228  1.0000
  C   C56       1.0  0.5316166163205308  0.5618012805267184  0.20173481129059445  1.0000
  C   C57       1.0  0.49000963746109183  0.5244495147527307  0.2120087125453479  1.0000
  C   C58       1.0  0.48092462870420233  0.5135560160690051  0.2462018924537555  1.0000
  C   C59       1.0  0.513657992402681  0.5402804542354356  0.27010419429283306  1.0000
  C   C60       1.0  0.5549542023958344  0.5779355331574064  0.25986870099882164  1.0000
  H   H37       1.0  0.5383188619169726  0.5699845037826111  0.17535673527577245  1.0000
  H   H38       1.0  0.46486093148976476  0.5038484937513116  0.1933677803637003  1.0000
  H   H39       1.0  0.507022826833398  0.5322259322494842  0.29650260039944604  1.0000
  H   H40       1.0  0.5799587466150364  0.5987296378848339  0.27853374175477963  1.0000
  C   C61       1.0  0.24036980728852156  0.37794915306740184  0.38660075307859393  1.0000
  C   C62       1.0  0.2642073485835618  0.42313527594018185  0.39810776754363636  1.0000
  C   C63       1.0  0.24044698319517763  0.444948945448193  0.4096097357735818  1.0000
  C   C64       1.0  0.1927136683872075  0.4218763574968589  0.40980168528490657  1.0000
  C   C65       1.0  0.16885352514525911  0.3766404474720017  0.3984340588987995  1.0000
  C   C66       1.0  0.19262925759365584  0.3548259600328059  0.3868921226478223  1.0000
  H   H41       1.0  0.30094406379937755  0.44130780467003017  0.39814347507785436  1.0000
  H   H42       1.0  0.2592083576416296  0.4799593247282721  0.4183576073643398  1.0000
  H   H43       1.0  0.1321152835470965  0.35847080815424975  0.39850318605144736  1.0000
  H   H44       1.0  0.17389749709386423  0.319840975131357  0.3780756861381365  1.0000
  C   C67       1.0  0.4279036553037187  0.2653960748460048  0.3208693314606645  1.0000
  C   C68       1.0  0.38177351109986685  0.24242904324231204  0.31247217355886037  1.0000
  C   C69       1.0  0.36236397021396954  0.19958912564657857  0.29617300310756967  1.0000
  C   C70       1.0  0.38884833179623507  0.17941844798924617  0.28795427227824105  1.0000
  C   C71       1.0  0.4352641197154685  0.20309075915993163  0.2954042820824502  1.0000
  C   C72       1.0  0.4545920812047419  0.2457292807703545  0.31193558875924104  1.0000
  H   H45       1.0  0.36081363605387695  0.25715745930597367  0.3191707204787291  1.0000
  H   H46       1.0  0.32647652206715777  0.1817345208386582  0.29031400916363803  1.0000
  H   H47       1.0  0.45618249328673643  0.18841338181180148  0.28850571475772196  1.0000
  H   H48       1.0  0.49042358290066584  0.26352701193112127  0.31796085705066146  1.0000
  Fe  Fe25      1.0  0.42832558226400974  0.35171870800151606  0.8593109305066835  1.0000
  S   S49       1.0  0.4231171311578953  0.39609705676635626  0.8194699629406665  1.0000
  S   S50       1.0  0.3878300872281647  0.27419818773527765  0.8551876975443785  1.0000
  Fe  Fe26      1.0  0.48921961128984115  0.43421277409400155  0.9040111776836388  1.0000
  S   S51       1.0  0.48958056427312735  0.4849687746002562  0.8671544692912939  1.0000
  S   S52       1.0  0.5231183916669486  0.448303206057848  0.9552003095857051  1.0000
  Fe  Fe27      1.0  0.4145501041423817  0.4347150501753484  0.8623183267756986  1.0000
  S   S53       1.0  0.3637046000764212  0.46003775135564284  0.8599096778533888  1.0000
  Fe  Fe28      1.0  0.4980929272446855  0.44195256564243257  0.8275517550277481  1.0000
  S   S54       1.0  0.5477979317276193  0.4624771095480228  0.784184890848031  1.0000
  S   S55       1.0  0.4137858693143562  0.3868788374981704  0.9016620151100324  1.0000
  S   S56       1.0  0.503646953828146  0.39473120849114063  0.8650312088478844  1.0000
  Fe  Fe29      1.0  0.7635044094064356  0.10756836770698139  0.026648051279317242  1.0000
  S   S57       1.0  0.7203562326947848  0.048276617730106476  0.9925649338847988  1.0000
  S   S58       1.0  0.8405957983981777  0.14697242507336092  0.021896347751323653  1.0000
  Fe  Fe30      1.0  0.6115235288365939  0.014217279538584204  0.5363707315618543  1.0000
  S   S59       1.0  0.6095110022249248  0.9557197676327561  0.5078548294659938  1.0000
  S   S60       1.0  0.5488003670023638  0.9953845675063409  0.5673532577530784  1.0000
  Fe  Fe31      1.0  0.6824977623451358  0.9852246643396534  0.522754258740098  1.0000
  S   S61       1.0  0.715682534196024  0.9511297007306903  0.5516562688609932  1.0000
  Fe  Fe32      1.0  0.674494706890544  0.07871875944143673  0.9897065624232021  1.0000
  S   S62       1.0  0.657070542198026  0.09073371424200995  0.9369081134532756  1.0000
  S   S63       1.0  0.6827640335486069  0.04083329579542618  0.5541612263310621  1.0000
  S   S64       1.0  0.7200933677185916  0.1401217629080732  0.02139141525306454  1.0000
  Fe  Fe33      1.0  0.12726841262025335  0.4021149895610645  0.9359154742736976  1.0000
  S   S65       1.0  0.07520499325239204  0.39361343718715947  0.8968927893733141  1.0000
  S   S66       1.0  0.17280111978401377  0.3699301596939406  0.9344624464004849  1.0000
  Fe  Fe34      1.0  0.10123135002502207  0.4582508436111448  0.9824865493167194  1.0000
  S   S67       1.0  0.04905562164923283  0.45587409743802254  0.9466227716941511  1.0000
  S   S68       1.0  0.11456883898165043  0.48764908787617944  0.035312944880210306  1.0000
  Fe  Fe35      1.0  0.028055764631389257  0.3813168427599659  0.9405938324538278  1.0000
  S   S69       1.0  0.9512364628948274  0.3343954646038862  0.9423181930380965  1.0000
  Fe  Fe36      1.0  0.0999966336530306  0.4683326962414693  0.9061449739718163  1.0000
  S   S70       1.0  0.12264645892315477  0.5216249415908643  0.8647164294085881  1.0000
  S   S71       1.0  0.07768670428291362  0.38316515156167796  0.9786893836316306  1.0000
  S   S72       1.0  0.1546972115950483  0.47737318371609405  0.9428510501318081  1.0000
  Fe  Fe37      1.0  0.48952869980748637  0.03535894806866056  0.7483734550259302  1.0000
  S   S73       1.0  0.43729338273253693  0.9718336462945709  0.7747535483066204  1.0000
  S   S74       1.0  0.5525686225092133  0.045832876454773755  0.7210396041647763  1.0000
  Fe  Fe38      1.0  0.4514185309984446  0.09498087451804782  0.7767026002539489  1.0000
  S   S75       1.0  0.39587844717921356  0.036013197646520174  0.8046172860016109  1.0000
  S   S76       1.0  0.4757583247204261  0.1711994904776363  0.7781307395351326  1.0000
  Fe  Fe39      1.0  0.4500865752428636  0.01871028362560545  0.8190270363597286  1.0000
  S   S77       1.0  0.45889467476508494  0.005837881253575095  0.8738113464725535  1.0000
  Fe  Fe40      1.0  0.38767559019795683  0.9943048017181286  0.7579958492870296  1.0000
  S   S78       1.0  0.32051167432740485  0.9532520976551042  0.7300625168550946  1.0000
  S   S79       1.0  0.505546005621701  0.07998105087878023  0.7938314059007786  1.0000
  S   S80       1.0  0.43982759488439266  0.05533750999756795  0.7288075792620988  1.0000
  Fe  Fe41      1.0  0.7358540928236367  0.6600353457099678  0.6015176805764064  1.0000
  S   S81       1.0  0.7128193280628283  0.7077751253041856  0.6226309307421104  1.0000
  S   S82       1.0  0.806036174007361  0.66744850837957  0.5947649760344456  1.0000
  Fe  Fe42      1.0  0.6407731563246422  0.5924384348693337  0.5745210558237502  1.0000
  S   S83       1.0  0.6108256891839897  0.633955706012638  0.593714852129462  1.0000
  S   S84       1.0  0.6006100219728384  0.5248453598675401  0.5471292499414866  1.0000
  Fe  Fe43      1.0  0.6734147210390122  0.6956425453897731  0.5743966976005398  1.0000
  S   S85       1.0  0.6599255330537733  0.7407946117673148  0.5386569603625903  1.0000
  Fe  Fe44      1.0  0.6515888805069213  0.6423579748028091  0.6403905548621661  1.0000
  S   S86       1.0  0.6121769682313735  0.6344159371379342  0.6883104776755977  1.0000
  S   S87       1.0  0.7006968282015091  0.6527755587242547  0.5519163230280348  1.0000
  S   S88       1.0  0.6773648606014264  0.5959834682078031  0.6225564897124695  1.0000
  Fe  Fe45      1.0  0.03322285184999679  0.5999661262086693  0.7198010420347895  1.0000
  S   S89       1.0  0.10320777570662262  0.6335165677083812  0.6978110684815366  1.0000
  S   S90       1.0  0.9975677043983177  0.5377618796471372  0.7531915924603577  1.0000
  Fe  Fe46      1.0  0.012894744249924761  0.6730992818993077  0.6939922971997573  1.0000
  S   S91       1.0  0.0821693618683767  0.7144624867772321  0.670570319465597  1.0000
  S   S92       1.0  0.9557953352410716  0.6892012559514662  0.7019847009668472  1.0000
  Fe  Fe47      1.0  0.07128517519572565  0.6460385049127811  0.6525174564378816  1.0000
  S   S93       1.0  0.09499983614790074  0.6428070318360468  0.5998704880841398  1.0000
  Fe  Fe48      1.0  0.11023407984968149  0.6995561618746406  0.7171137211882594  1.0000
  S   S94       1.0  0.17483300792801376  0.7420912474538783  0.7473613437995402  1.0000
  S   S95       1.0  0.00014621522561664158  0.6061107107597349  0.672506065387348  1.0000
  S   S96       1.0  0.042405726575153076  0.664724418815731  0.7424291527277269  1.0000
  C   C73       1.0  0.8461415059073524  0.6718775578116202  0.6254317230433363  1.0000
  C   C74       1.0  0.8831621109993134  0.6668408188894704  0.6152549503115297  1.0000
  C   C75       1.0  0.9168007222789326  0.6716508711844854  0.6383758431973433  1.0000
  C   C76       1.0  0.9141728689752213  0.6824047526897989  0.6718924005018649  1.0000
  C   C77       1.0  0.8769958017777643  0.6870882490535223  0.6821843383422709  1.0000
  C   C78       1.0  0.8429387469680363  0.6815208928391275  0.6591539274821223  1.0000
  H   H49       1.0  0.8859698373698268  0.6594754913259673  0.589210637894048  1.0000
  H   H50       1.0  0.9451242285184253  0.6678622191695609  0.6300914686197223  1.0000
  H   H51       1.0  0.8746355266873503  0.6953898594907902  0.708068412544304  1.0000
  H   H52       1.0  0.8148082361788014  0.6857379297451328  0.6672912576444199  1.0000
  C   C79       1.0  0.2803324822871974  0.8945744666026433  0.7355499401808935  1.0000
  C   C80       1.0  0.2395120407770091  0.8754079298160948  0.7171279975335834  1.0000
  C   C81       1.0  0.20672815883994003  0.828818068872797  0.7204912045145078  1.0000
  C   C82       1.0  0.2146454160423209  0.800934864492178  0.7422735158503135  1.0000
  C   C83       1.0  0.25540701572348345  0.820047218695233  0.7606939157036782  1.0000
  C   C84       1.0  0.28814872651779416  0.8666449790776567  0.7573626880594101  1.0000
  H   H53       1.0  0.23308666230765956  0.8969298159968071  0.7004164359400465  1.0000
  H   H54       1.0  0.17520914589688932  0.8147230536343109  0.7065673036958355  1.0000
  H   H55       1.0  0.26183954995293907  0.7987594851090324  0.7776231776549332  1.0000
  H   H56       1.0  0.31941974015154256  0.8809834718668997  0.7716492390027061  1.0000
  C   C85       1.0  0.0318542482693116  0.5296685541272357  0.7827800112412432  1.0000
  C   C86       1.0  0.011941480562660084  0.5017793508362807  0.8109809052150243  1.0000
  C   C87       1.0  0.03915026082047085  0.4971636030303853  0.8357723493941588  1.0000
  C   C88       1.0  0.0863826893803167  0.5200690634724305  0.8322210982140965  1.0000
  C   C89       1.0  0.10599238333258443  0.5464335095263466  0.8033809500434552  1.0000
  C   C90       1.0  0.0789560996514298  0.5515627592272244  0.7789012755914605  1.0000
  H   H57       1.0  0.9754820305253278  0.4844426845128162  0.8140375509835821  1.0000
  H   H58       1.0  0.023708627222468907  0.4767775935730377  0.857939992802398  1.0000
  H   H59       1.0  0.1423942050372542  0.5632809458948226  0.8001268818038821  1.0000
  H   H60       1.0  0.09456149036938899  0.5723040002416858  0.7569659470701533  1.0000
  C   C91       1.0  0.04228314721796646  0.5017936109483471  0.5506198732356605  1.0000
  C   C92       1.0  0.03497648497557392  0.5053693255622678  0.5849065607001034  1.0000
  C   C93       1.0  0.05045268833909872  0.5483426380625278  0.6000690768015012  1.0000
  C   C94       1.0  0.07396884793040746  0.5882782277938216  0.5811295633785133  1.0000
  C   C95       1.0  0.08168935673372853  0.5848276084706217  0.5468492014075079  1.0000
  C   C96       1.0  0.06559676788074113  0.5417053382555631  0.53154077123071  1.0000
  H   H61       1.0  0.01698307243103779  0.4746695575672007  0.5998399027494862  1.0000
  H   H62       1.0  0.044394755523207124  0.55052869418596  0.62648145042048  1.0000
  H   H63       1.0  0.09968308934131231  0.6155807006167706  0.5319986055829673  1.0000
  H   H64       1.0  0.06256438711493478  0.5245106791538766  0.0026964321094917754  1.0000
  C   C97       1.0  0.6014928735479846  0.06504184180128857  0.9200581840562001  1.0000
  C   C98       1.0  0.5628319165954727  0.04144923163672565  0.9400594931682816  1.0000
  C   C99       1.0  0.5192540771542137  0.02291906165793023  0.9255526889607899  1.0000
  C   C100      1.0  0.5140459476239841  0.027490947810930928  0.8909871210413082  1.0000
  C   C101      1.0  0.5527775620360689  0.05048000360235781  0.8710168856184699  1.0000
  C   C102      1.0  0.5962208283501415  0.06950303354734251  0.8855398039638472  1.0000
  H   H65       1.0  0.5664927717934315  0.03779869583095752  0.9666875381075389  1.0000
  H   H66       1.0  0.48948500817602103  0.004988478127028406  0.9411836768448751  1.0000
  H   H67       1.0  0.5493830460667241  0.053465486028125  0.8443269315233142  1.0000
  H   H68       1.0  0.6259116865401751  0.08745288443970332  0.8698514661395751  1.0000
  C   C103      1.0  0.5506878549834299  0.008930451256084382  0.6102252710920432  1.0000
  C   C104      1.0  0.509726395763295  0.9951356514931626  0.6272582189439329  1.0000
  C   C105      1.0  0.5097224365846156  0.005282823292589001  0.6614721858551121  1.0000
  C   C106      1.0  0.5508014977075687  0.02933845624951361  0.678828510982739  1.0000
  C   C107      1.0  0.5917661414073098  0.042578462180620225  0.6619173825797425  1.0000
  C   C108      1.0  0.5917670768792084  0.032516875744708074  0.6276596998227885  1.0000
  H   H69       1.0  0.47783146155875034  0.9767199615029075  0.613866098159938  1.0000
  H   H70       1.0  0.47798261829250743  0.994818680749215  0.6743401751038847  1.0000
  H   H71       1.0  0.6236496635183725  0.06121473260964905  0.6752819069501987  1.0000
  H   H72       1.0  0.6234740418398012  0.04334578756371221  0.614706562354587  1.0000
  C   C109      1.0  0.6992224710344779  0.892410131464275  0.5480614682602799  1.0000
  C   C110      1.0  0.715749541087997  0.8729133688149296  0.5715057659958559  1.0000
  C   C111      1.0  0.7034626899107426  0.8263442958576293  0.5694376090756772  1.0000
  C   C112      1.0  0.6748634010113717  0.7989777086397425  0.5436317061535015  1.0000
  C   C113      1.0  0.6580979167084681  0.8184560268379855  0.5203489222187664  1.0000
  C   C114      1.0  0.6700116470162223  0.8648640845824588  0.5226044096051947  1.0000
  H   H73       1.0  0.6162343707543985  0.8382311991485163  0.04993662248012831  1.0000
  H   H74       1.0  0.7167064101827588  0.811820293065426  0.5874539106443872  1.0000
  H   H75       1.0  0.6360008427200365  0.7975980341706422  0.5002692043466905  1.0000
  H   H76       1.0  0.6571441701556453  0.879434810528775  0.5043297988775755  1.0000
  C   C115      1.0  0.8716243139159306  0.20123357299986916  0.002476349031021563  1.0000
  C   C116      1.0  0.8500885107800802  0.22433651942979727  0.989781324859259  1.0000
  C   C117      1.0  0.8751004198939167  0.2652986132543617  0.9716972132906587  1.0000
  C   C118      1.0  0.9220394647449265  0.2841231480341258  0.9667527863503825  1.0000
  C   C119      1.0  0.9439902657005163  0.2621071439711852  0.9806771355245082  1.0000
  C   C120      1.0  0.9187794971525991  0.22066954725136603  0.9982629988621147  1.0000
  H   H77       1.0  0.8140069809646571  0.21020759257527943  0.9934184621970499  1.0000
  H   H78       1.0  0.8579248544894236  0.28237139724982685  0.9613010678788877  1.0000
  H   H79       1.0  0.980126557534204  0.2762315034875083  0.9770730956121239  1.0000
  H   H80       1.0  0.9357812712258436  0.20310584540019336  0.008106982816708408  1.0000
  C   C121      1.0  0.5424662277908414  0.5001200676996957  0.9773558654973119  1.0000
  C   C122      1.0  0.5581098543621835  0.5033718760094901  0.010487912512989972  1.0000
  C   C123      1.0  0.5725706009642227  0.5436841144667787  0.029274040863252804  1.0000
  C   C124      1.0  0.5713874416274258  0.5809785741161191  0.014974912448312061  1.0000
  C   C125      1.0  0.5564714786793921  0.5780099767982025  0.9816772192858372  1.0000
  C   C126      1.0  0.5422358172050834  0.5378045411664002  0.9628511888357754  1.0000
  H   H81       1.0  0.5584412685053312  0.4742979804842312  0.021809121073164794  1.0000
  H   H82       1.0  0.5837994972439433  0.545585471090051  0.05497102813745669  1.0000
  H   H83       1.0  0.5652460271392908  0.46206385418957124  0.4916981625046037  1.0000
  H   H84       1.0  0.5313945685655482  0.5360577608825849  0.9370860221138759  1.0000
  C   C127      1.0  0.5970013499879636  0.5885684423975854  0.716526823946375  1.0000
  C   C128      1.0  0.6159723203441888  0.5600889904080694  0.7141492079473597  1.0000
  C   C129      1.0  0.600777541008978  0.521889939572203  0.735341566543281  1.0000
  C   C130      1.0  0.5669879357409837  0.5121689358212622  0.7594153623158219  1.0000
  C   C131      1.0  0.5486157307691214  0.541161858541563  0.7623136118968162  1.0000
  C   C132      1.0  0.5636640681085693  0.5792821900738353  0.7409381351751533  1.0000
  H   H85       1.0  0.6422972877856579  0.5674221185458143  0.6959312223319181  1.0000
  H   H86       1.0  0.6153810327549462  0.4997875929131431  0.7331710700574867  1.0000
  H   H87       1.0  0.5226667632833144  0.5340539916101674  0.780840089158248  1.0000
  H   H88       1.0  0.5490496592821602  0.6013805879684354  0.7430787144601132  1.0000
  C   C133      1.0  0.3113849903019072  0.4352135351282437  0.8816350694014902  1.0000
  C   C134      1.0  0.28226205950661737  0.4532613872035029  0.8769005566597858  1.0000
  C   C135      1.0  0.24010501621559768  0.4341876170980634  0.8934100534377732  1.0000
  C   C136      1.0  0.2265106332735612  0.3965412337354973  0.9146055652917041  1.0000
  C   C137      1.0  0.2559124549605388  0.3787745748359398  0.9196298174974143  1.0000
  C   C138      1.0  0.29838477423878074  0.398298569812227  0.903496489320269  1.0000
  H   H89       1.0  0.292146888217308  0.48200862812210316  0.8601870560121369  1.0000
  H   H90       1.0  0.2177719794660308  0.4481511394266032  0.889322647311283  1.0000
  H   H91       1.0  0.24567346844758509  0.3498044984651104  0.9361667063521627  1.0000
  H   H92       1.0  0.3207999201099747  0.3845691960588056  0.9077669116698059  1.0000
  C   C139      1.0  0.4124039247953642  0.24559137094769923  0.8338994388513447  1.0000
  C   C140      1.0  0.38842099513469597  0.1975983891518836  0.8314719676481337  1.0000
  C   C141      1.0  0.40708200032936587  0.17412066235264842  0.8143078983910333  1.0000
  C   C142      1.0  0.4500310985001279  0.19856557922650625  0.7995743177791489  1.0000
  C   C143      1.0  0.47392006805503906  0.24648141974766494  0.8020689030547342  1.0000
  C   C144      1.0  0.4552681726522708  0.2699031186128613  0.8191424788591196  1.0000
  H   H93       1.0  0.3551292184351276  0.1785260477605244  0.8426756948694696  1.0000
  H   H94       1.0  0.3879883233000847  0.13724899305209423  0.8121263404400226  1.0000
  H   H95       1.0  0.507093454435679  0.2657340523128729  0.7906931066314348  1.0000
  H   H96       1.0  0.47402974455856156  0.30684737747558966  0.8206935921980406  1.0000
  N   N1        1.0  0.48722203387994123  0.14512905715449653  0.888636995288148  1.0000
  C   C145      1.0  0.4913776308355083  0.1908774912760396  0.891382926357453  1.0000
  C   C146      1.0  0.44320207249466254  0.11309786555830637  0.8729615539446133  1.0000
  C   C147      1.0  0.4897787487814394  0.12816282624986286  0.922355705021604  1.0000
  C   C148      1.0  0.5244508874880709  0.14812494443623847  0.8676229315515234  1.0000
  H   H97       1.0  0.5242447618366887  0.21604341396543725  0.9030563845055661  1.0000
  H   H98       1.0  0.4635936590341875  0.1899010110191497  0.9068395966836309  1.0000
  H   H99       1.0  0.4895145456530514  0.20437694029051157  0.8662224165821913  1.0000
  H   H100      1.0  0.4379963269350846  0.07777409930921597  0.8719078753207913  1.0000
  H   H101      1.0  0.4142165949269108  0.11152571506552955  0.8871055607614707  1.0000
  H   H102      1.0  0.4412870428268662  0.12340077678384809  0.8467682001087918  1.0000
  H   H103      1.0  0.48664443287834597  0.09358420140589208  0.9208633787659302  1.0000
  H   H104      1.0  0.4620447266769953  0.12520486013183119  0.9388871749209656  1.0000
  H   H105      1.0  0.5227307288506723  0.15122500242126846  0.9349048540797676  1.0000
  H   H106      1.0  0.5217982857316623  0.11398961430849819  0.8647666303723248  1.0000
  H   H107      1.0  0.558277640894687  0.17146405643902152  0.8788412800973494  1.0000
  H   H108      1.0  0.5236496271138974  0.16093588325656238  0.8419646009348015  1.0000
  N   N2        1.0  0.2554569841104261  0.4290188976711648  0.2889530923592532  1.0000
  C   C149      1.0  0.2297609473435461  0.378462520654541  0.28806704817917866  1.0000
  C   C150      1.0  0.23022088858203021  0.44601003905492004  0.30907015618749084  1.0000
  C   C151      1.0  0.26152862026490736  0.4470757733228384  0.25439575572040135  1.0000
  C   C152      1.0  0.30045871755357934  0.44450679157386014  0.304329885327278  1.0000
  H   H109      1.0  0.19590026615135187  0.3654274335217269  0.2760689173019761  1.0000
  H   H110      1.0  0.2238496165523631  0.3638034333865738  0.3138275353133175  1.0000
  H   H111      1.0  0.24848114887063866  0.36434388769584675  0.27406906461859887  1.0000
  H   H112      1.0  0.19612312102948382  0.43519148624728354  0.29815969911354545  1.0000
  H   H113      1.0  0.2247717071522106  0.4326493333008877  0.335219090938198  1.0000
  H   H114      1.0  0.24888580220405818  0.48401418455238876  0.3108031741480977  1.0000
  H   H115      1.0  0.2808331136058862  0.4851649554303196  0.25423379324615925  1.0000
  H   H116      1.0  0.2282688941767526  0.43598449326845345  0.2418909019872968  1.0000
  H   H117      1.0  0.2807516579732501  0.435052012847338  0.23870501376106198  1.0000
  H   H118      1.0  0.320993590603937  0.4824793815230403  0.3055141678499483  1.0000
  H   H119      1.0  0.3204724866628469  0.43205793133125103  0.2900427724934083  1.0000
  H   H120      1.0  0.2970642938068517  0.43153937057920544  0.33041229390120685  1.0000
  N   N3        1.0  0.27623379295443234  0.2926842272228132  0.8347350932943651  1.0000
  C   C153      1.0  0.22735792445096328  0.2585001018957082  0.8332542525105133  1.0000
  C   C154      1.0  0.3012966651417157  0.280359402790599  0.810390824405218  1.0000
  C   C155      1.0  0.2935712262939048  0.2934431264664992  0.8689313006877883  1.0000
  C   C156      1.0  0.28272963409235186  0.33839427073975387  0.826476401707516  1.0000
  H   H121      1.0  0.20757091697291524  0.26684213736866974  0.8514610651506469  1.0000
  H   H122      1.0  0.22130719660560327  0.22363850965476134  0.8394049283612638  1.0000
  H   H123      1.0  0.213050063717952  0.2570566043938765  0.8078190267422517  1.0000
  H   H124      1.0  0.3382500078271212  0.3057467846448626  0.810712973595188  1.0000
  H   H125      1.0  0.2982474415494563  0.24661359067980987  0.816446665661145  1.0000
  H   H126      1.0  0.2888292563531481  0.27869759796653193  0.7843069072659107  1.0000
  H   H127      1.0  0.3302557616243559  0.3190906329886591  0.8709203584838258  1.0000
  H   H128      1.0  0.2902779031136523  0.25982106253317144  0.8757353073543699  1.0000
  H   H129      1.0  0.2751593688694966  0.3020587225311618  0.8881066764114471  1.0000
  H   H130      1.0  0.3190574071819869  0.3654290477311643  0.8286667838330193  1.0000
  H   H131      1.0  0.26304041552087376  0.348150509903237  0.8436505330083256  1.0000
  H   H132      1.0  0.2715421410975901  0.3396557788909312  0.8004263768655363  1.0000
  N   N4        1.0  0.7181150282954278  0.6163715511851635  0.007752988545051354  1.0000
  C   C157      1.0  0.6874611601380755  0.6306673265778373  0.9922175734829854  1.0000
  C   C158      1.0  0.6971798932254059  0.5903689559345546  0.03874255229291834  1.0000
  C   C159      1.0  0.7620140857632043  0.6572439496372073  0.01608094868836374  1.0000
  C   C160      1.0  0.7257218848694309  0.5870606152907585  0.9840449312064878  1.0000
  H   H133      1.0  0.7026265623973219  0.6515935310048616  0.9693095857210666  1.0000
  H   H134      1.0  0.6795890835853104  0.6514929203182498  0.009871546045636448  1.0000
  H   H135      1.0  0.6545150767819927  0.6005680858823843  0.9847824391683833  1.0000
  H   H136      1.0  0.7198668837159125  0.5800520113252468  0.05171421034961221  1.0000
  H   H137      1.0  0.6904876667209097  0.6113635759708191  0.05691343822535733  1.0000
  H   H138      1.0  0.6642923065142625  0.5589197990390562  0.033471540951895085  1.0000
  H   H139      1.0  0.785763997747834  0.6476982208589869  0.028292323254127227  1.0000
  H   H140      1.0  0.7575190679907173  0.6799422721278644  0.034129218589650234  1.0000
  H   H141      1.0  0.7789644001949028  0.677852593405249  0.9933908592596106  1.0000
  H   H142      1.0  0.7486821999479614  0.5756600738970565  0.9950787018736931  1.0000
  H   H143      1.0  0.7413731693552709  0.6055449013426994  0.9603017889829061  1.0000
  H   H144      1.0  0.6931847108565758  0.5558211070951704  0.9773629038667475  1.0000
  N   N5        1.0  0.582153313073907  0.8886105871338106  0.6059499207984131  1.0000
  C   C161      1.0  0.6224789084441379  0.9348116701773974  0.6063230931162751  1.0000
  C   C162      1.0  0.5423037020127796  0.8915856159106956  0.5941659895121417  1.0000
  C   C163      1.0  0.5736654566169601  0.8693912435883695  0.6402340914203298  1.0000
  C   C164      1.0  0.5903298211205171  0.8588719520908837  0.5830381238013386  1.0000
  H   H145      1.0  0.6297275076410089  0.9499906394839661  0.5808068234491777  1.0000
  H   H146      1.0  0.6534179201476673  0.9339948813670945  0.6147618129364899  1.0000
  H   H147      1.0  0.6175185657399415  0.9584681132269957  0.6230723977414849  1.0000
  H   H148      1.0  0.5111208926295693  0.8574337219259421  0.5934906881032315  1.0000
  H   H149      1.0  0.5354289266375035  0.9141842492774893  0.6106888708845764  1.0000
  H   H150      1.0  0.5476671668756523  0.9062222836125684  0.5683969620223162  1.0000
  H   H151      1.0  0.5674466896834186  0.8911718109474537  0.6581107534735221  1.0000
  H   H152      1.0  0.60319921496253  0.8668184927904056  0.6498672227622452  1.0000
  H   H153      1.0  0.5434683193816966  0.8344613701037603  0.6408998677530674  1.0000
  H   H154      1.0  0.5605448914451387  0.8237464550179834  0.5817623540291162  1.0000
  H   H155      1.0  0.6201277976637023  0.8557625372623079  0.5912518528590947  1.0000
  H   H156      1.0  0.5975179185793846  0.8728704222048373  0.5570365864859627  1.0000
  N   N6        1.0  0.9624584426273665  0.6211485389476624  0.31388977115271804  1.0000
  C   C165      1.0  0.9422083099811609  0.6355117244871749  0.28690792055386005  1.0000
  C   C166      1.0  0.9350570657427041  0.5710831665896294  0.31848420730506866  1.0000
  C   C167      1.0  0.9634704329468047  0.6445280037294787  0.34554241244638967  1.0000
  C   C168      1.0  0.009232450933465586  0.6334296255448747  0.30443788299066277  1.0000
  H   H157      1.0  0.96254298033124  0.672936009669666  0.2819290949540428  1.0000
  H   H158      1.0  0.9070375773443267  0.6275175047330677  0.2930348510716818  1.0000
  H   H159      1.0  0.9404295547401155  0.6179217763638885  0.262772448141412  1.0000
  H   H160      1.0  0.950178052957951  0.5587178515005273  0.33789715737551723  1.0000
  H   H161      1.0  0.8997531807423458  0.5606159290738402  0.3262907427640972  1.0000
  H   H162      1.0  0.9328433746008007  0.5525837378495072  0.2947603207057956  1.0000
  H   H163      1.0  0.978881643149978  0.634511523506911  0.36627942639893063  1.0000
  H   H164      1.0  0.9286794240874101  0.6359638773073372  0.3534684580427015  1.0000
  H   H165      1.0  0.9838062860817389  0.6823803745690131  0.34279597382721894  1.0000
  H   H166      1.0  0.025075480185023036  0.6209020142469474  0.3230983329868746  1.0000
  H   H167      1.0  0.031602868387735183  0.6710846909041861  0.3021381786550716  1.0000
  H   H168      1.0  0.009724664241044678  0.6182701528536024  0.2797599696938148  1.0000
  N   N7        1.0  0.6398192902094753  0.6580730437763015  0.45568556247251746  1.0000
  C   C169      1.0  0.6850825553783365  0.6963442653667283  0.4648327925565719  1.0000
  C   C170      1.0  0.6306180987924237  0.6615625663440308  0.41983610846045927  1.0000
  C   C171      1.0  0.6048816433433861  0.660338413235845  0.4764096519714696  1.0000
  C   C172      1.0  0.6385595170990992  0.6140726693863694  0.46164274989947485  1.0000
  H   H169      1.0  0.6927172159596023  0.6950024320594129  0.49182914484345813  1.0000
  H   H170      1.0  0.6871217331441548  0.7300874408173172  0.46092726393250916  1.0000
  H   H171      1.0  0.7125301606301154  0.6957561123926638  0.44999441584182837  1.0000
  H   H172      1.0  0.6308130600381339  0.6941489791437799  0.4145691691469027  1.0000
  H   H173      1.0  0.6564753421770024  0.6602317829882488  0.4034418382822264  1.0000
  H   H174      1.0  0.5967224886903367  0.6329113852601812  0.41214666755475865  1.0000
  H   H175      1.0  0.5701090249374124  0.6343610192235422  0.46844144940342675  1.0000
  H   H176      1.0  0.6072533547798294  0.694487969681982  0.47470924361521105  1.0000
  H   H177      1.0  0.6087306795835391  0.6543961398866763  0.5034363241333812  1.0000
  H   H178      1.0  0.6052699807936941  0.584514288104178  0.454090018099331  1.0000
  H   H179      1.0  0.6437844391865373  0.6094328635073178  0.4886761246145933  1.0000
  H   H180      1.0  0.6653686030211179  0.6116857395480142  0.4472384038271953  1.0000
  N   N8        1.0  0.6308856800131051  0.7737832371631029  0.21067276759109843  1.0000
  C   C173      1.0  0.6713737606030769  0.7684458197461487  0.20728651425192024  1.0000
  C   C174      1.0  0.5900650826606161  0.7281484235647646  0.21407199169420904  1.0000
  C   C175      1.0  0.6264659466711455  0.7969103142867793  0.18049318410915804  1.0000
  C   C176      1.0  0.6358829358396363  0.8015695291228961  0.24077401585944097  1.0000
  H   H181      1.0  0.6753204754491027  0.7497996951439772  0.22896849489248994  1.0000
  H   H182      1.0  0.703073326817621  0.8020546770473718  0.2047337498158001  1.0000
  H   H183      1.0  0.6687944398588157  0.7485439499140808  0.18444918843034375  1.0000
  H   H184      1.0  0.5586683689045663  0.7305570283155771  0.21664743216043714  1.0000
  H   H185      1.0  0.585604538886633  0.7061532282565477  0.19188181736170368  1.0000
  H   H186      1.0  0.5925873366498452  0.7094778813875411  0.23634410579989337  1.0000
  H   H187      1.0  0.6571505956868756  0.8311154041722622  0.17685244503844122  1.0000
  H   H188      1.0  0.5963614827129501  0.8017019071932655  0.18199285101071236  1.0000
  H   H189      1.0  0.6229812281518443  0.7769168725762375  0.1572786556446669  1.0000
  H   H190      1.0  0.666467250461398  0.8361753312499557  0.23890459288497878  1.0000
  H   H191      1.0  0.6396366304890027  0.7850989901195676  0.26388329960121554  1.0000
  H   H192      1.0  0.6058459438093322  0.8062139762579401  0.24422290719841028  1.0000
  N   N9        1.0  0.5172928538213681  0.4939518850035005  0.6392078098554528  1.0000
  C   C177      1.0  0.4951296894514684  0.4440279182177197  0.6337905685400054  1.0000
  C   C178      1.0  0.5061268021347943  0.515370947800956  0.6110899529982016  1.0000
  C   C179      1.0  0.5669174469660893  0.5130532156205165  0.6407933570061642  1.0000
  C   C180      1.0  0.5014501033651672  0.5036045114397886  0.6711364984906751  1.0000
  H   H193      1.0  0.5029843959564344  0.42698780533759306  0.6546655920699341  1.0000
  H   H194      1.0  0.5069432529521195  0.4359286733898435  0.6099860075545244  1.0000
  H   H195      1.0  0.45757957367373553  0.42837347325819203  0.6322480928959014  1.0000
  H   H196      1.0  0.5186213598104594  0.5095909496103109  0.5867107817073172  1.0000
  H   H197      1.0  0.46888114833718425  0.5014280024410697  0.6087322155289421  1.0000
  H   H198      1.0  0.5221685766989272  0.5530488126844458  0.6146568663182576  1.0000
  H   H199      1.0  0.5767461236675283  0.49732894385361104  0.6613910512020882  1.0000
  H   H200      1.0  0.5844904359213724  0.5505744360888926  0.645390036802088  1.0000
  H   H201      1.0  0.5804438582254797  0.5072210296737185  0.6169982449667858  1.0000
  H   H202      1.0  0.5172142290068145  0.5411444125291959  0.6755847585011168  1.0000
  H   H203      1.0  0.5107157830070157  0.48921789128203796  0.6930413715691793  1.0000
  H   H204      1.0  0.4640044174396553  0.4889939312049229  0.6713058308973776  1.0000
  N   N10       1.0  0.9579166542873  0.38722838241184127  0.04365749328067532  1.0000
  C   C181      1.0  0.9994631323342422  0.39059740726126463  0.02911912736412354  1.0000
  C   C182      1.0  0.9705159280980227  0.4212215836108127  0.07095519575739524  1.0000
  C   C183      1.0  0.9290452999051227  0.34061922043135334  0.057085553729109964  1.0000
  C   C184      1.0  0.9328741905361043  0.3965319138444772  0.017234542747010195  1.0000
  H   H205      1.0  0.021446119573713236  0.4248906624950313  0.017936375401367055  1.0000
  H   H206      1.0  0.9911573264272456  0.3647811442287769  0.008924302111901872  1.0000
  H   H207      1.0  0.020257206330318807  0.3852017733977195  0.048321802610657154  1.0000
  H   H208      1.0  0.9906367739829712  0.4160479288498105  0.09086432547068234  1.0000
  H   H209      1.0  0.991790507844349  0.45672591617596736  0.06141314614855952  1.0000
  H   H210      1.0  0.9400192643082103  0.4193403030565917  0.08292170171207211  1.0000
  H   H211      1.0  0.8971374138020767  0.3365674168515137  0.06811516693022987  1.0000
  H   H212      1.0  0.9470717979826134  0.3324059871074187  0.07691629216492674  1.0000
  H   H213      1.0  0.9192367750524866  0.31425176207608735  0.03701017528664572  1.0000
  H   H214      1.0  0.9014923173728249  0.3948306944456569  0.027272315327016194  1.0000
  H   H215      1.0  0.9226570260155694  0.3712860843255462  0.9963474872579566  1.0000
  H   H216      1.0  0.9541535888449216  0.4310715593589677  0.006039323857681245  1.0000
  N   N11       1.0  0.5056458206875324  0.3897624291705241  0.251152145679939  1.0000
  C   C185      1.0  0.5298386388846925  0.38155815590937014  0.27883948870022174  1.0000
  C   C186      1.0  0.523730002390464  0.4394940211957855  0.2472260008042884  1.0000
  C   C187      1.0  0.4567112221474064  0.36737829146240364  0.25900716882964386  1.0000
  C   C188      1.0  0.5121269788332411  0.3705887320079083  0.21962199019793688  1.0000
  H   H217      1.0  0.5254598302649908  0.39553697022320355  0.3030436911235105  1.0000
  H   H218      1.0  0.5668814211270301  0.3978190570584177  0.2738542122262945  1.0000
  H   H219      1.0  0.516528594649267  0.34430210606177036  0.2828270698594191  1.0000
  H   H220      1.0  0.5187616874894906  0.4548746374613342  0.27047522302167265  1.0000
  H   H221      1.0  0.5606875689721154  0.4578564127559049  0.24152921286754878  1.0000
  H   H222      1.0  0.5061905943321692  0.44690593178855187  0.22652846813711933  1.0000
  H   H223      1.0  0.43736856424490317  0.3739701852276229  0.23924620724264078  1.0000
  H   H224      1.0  0.45099412218672574  0.3804998929084396  0.2829785442016187  1.0000
  H   H225      1.0  0.44159997243063687  0.32969351330919067  0.2619054310661254  1.0000
  H   H226      1.0  0.49405489550915893  0.3760822779650259  0.19830154879245734  1.0000
  H   H227      1.0  0.49882469417136027  0.3330673173117338  0.22182903614765834  1.0000
  H   H228      1.0  0.5487005208408915  0.38685437597510736  0.2128435445850267  1.0000
  N   N12       1.0  0.162364781937033  0.4762757451689422  0.5300919445051022  1.0000
  C   C189      1.0  0.14646323620886045  0.4980085814376311  0.5054078324138539  1.0000
  C   C190      1.0  0.1748399466844822  0.4454165811428595  0.5124347308703653  1.0000
  C   C191      1.0  0.12563941599975023  0.4497250287178208  0.554362708044762  1.0000
  C   C192      1.0  0.20240876530013616  0.5120764797197201  0.548062118892476  1.0000
  H   H229      1.0  0.1381498492830815  0.5227103789130785  0.5175844135524313  1.0000
  H   H230      1.0  0.11511066788873137  0.47202526504982006  0.49270189126474295  1.0000
  H   H231      1.0  0.1721582162042725  0.5163248166036376  0.48546935817630843  1.0000
  H   H232      1.0  0.14557966797685315  0.41854343867136307  0.49802659792884624  1.0000
  H   H233      1.0  0.20246010700193368  0.46435231212011974  0.4938659369276354  1.0000
  H   H234      1.0  0.1865014366753884  0.4278724332638056  0.5302043527227858  1.0000
  H   H235      1.0  0.13648853728219404  0.43352421234625726  0.57389914554348  1.0000
  H   H236      1.0  0.09509463871121204  0.42196207840725164  0.5416205391104723  1.0000
  H   H237      1.0  0.1142632519448667  0.47170619266758895  0.5672720135661268  1.0000
  H   H238      1.0  0.21556215605415954  0.4969063138099355  0.5667614027568922  1.0000
  H   H239      1.0  0.19390000499869522  0.5357113954806703  0.5617677388989365  1.0000
  H   H240      1.0  0.2304601740542687  0.5329954305114318  0.5303033336459902  1.0000
  N   N13       1.0  0.404537775473341  0.5080570531575922  0.9650865619836743  1.0000
  C   C193      1.0  0.3686545849145223  0.47087966715038937  0.9852122606275775  1.0000
  C   C194      1.0  0.3845074827672266  0.5307878754330825  0.9451732538213445  1.0000
  C   C195      1.0  0.4248739908519216  0.48865545823532014  0.9421995982824017  1.0000
  C   C196      1.0  0.44010978261522227  0.5417776815057653  0.9876101271467385  1.0000
  H   H241      1.0  0.3526454567267265  0.4842523840774495  0.0029361851243296933  1.0000
  H   H242      1.0  0.3825215435275176  0.45259932124152596  0.00018573469208282845  1.0000
  H   H243      1.0  0.3411039319107213  0.44510688142106153  0.9688661790429856  1.0000
  H   H244      1.0  0.36895533155123716  0.5460598357721812  0.9615624174881411  1.0000
  H   H245      1.0  0.41045737230473495  0.5585207723063655  0.9291890661167521  1.0000
  H   H246      1.0  0.3574378387844923  0.5062123302095425  0.927990287491175  1.0000
  H   H247      1.0  0.44146028911975205  0.47217788185859916  0.956224761740148  1.0000
  H   H248      1.0  0.45098880262418706  0.5154479471015757  0.9257588636478284  1.0000
  H   H249      1.0  0.39874923918237637  0.4623238586772556  0.925478321454073  1.0000
  H   H250      1.0  0.4674195703837542  0.5704982323961817  0.9731452026341001  1.0000
  H   H251      1.0  0.4566068935077256  0.525953227218736  0.002534892232653574  1.0000
  H   H252      1.0  0.4260378003378322  0.556814763392262  0.005603786457140769  1.0000
  N   N14       1.0  0.4535857549995518  0.1447802794145805  0.3817351732634821  1.0000
  C   C197      1.0  0.4704879720629036  0.1759245703839186  0.4109669714798116  1.0000
  C   C198      1.0  0.48744297450234697  0.16353559909315218  0.3544662321179257  1.0000
  C   C199      1.0  0.41024451394440836  0.1404985405130291  0.369942460027169  1.0000
  C   C200      1.0  0.44632479503880995  0.09926314499421195  0.3915627823868263  1.0000
  H   H253      1.0  0.44582003860888153  0.1628615489528864  0.43206649437836386  1.0000
  H   H254      1.0  0.4763643118030416  0.2106362443550514  0.40438798839223355  1.0000
  H   H255      1.0  0.503235544902723  0.17989738747491993  0.4203475499984448  1.0000
  H   H256      1.0  0.49505942174803325  0.19848520009984802  0.34720001413121143  1.0000
  H   H257      1.0  0.5200353342319096  0.16548031255349785  0.36197709267137373  1.0000
  H   H258      1.0  0.4752706169050759  0.141577762031477  0.33160487839694  1.0000
  H   H259      1.0  0.39757761190328444  0.11885450351812667  0.3469328002339224  1.0000
  H   H260      1.0  0.41411290953838925  0.1744669600475038  0.3635718658735903  1.0000
  H   H261      1.0  0.38334639152937566  0.12479998097787268  0.3893817220618618  1.0000
  H   H262      1.0  0.4334282125795466  0.07485389984141266  0.370117710312579  1.0000
  H   H263      1.0  0.421432116832635  0.08410519315693939  0.41235698497953216  1.0000
  H   H264      1.0  0.4785972704818008  0.10101782069282042  0.39983176539714566  1.0000
  N   N15       1.0  0.8747713137966434  0.29839853627284035  0.3605062228974843  1.0000
  C   C201      1.0  0.9220370713202858  0.31292003483412156  0.3507552585822358  1.0000
  C   C202      1.0  0.8540769014448021  0.3144526491231831  0.33505623848866634  1.0000
  C   C203      1.0  0.8745387673351187  0.3184688326335346  0.3934398394838888  1.0000
  C   C204      1.0  0.8486247304961598  0.2479583919688655  0.36287238921577736  1.0000
  H   H265      1.0  0.9387226765049832  0.30133383440198563  0.3693548014459814  1.0000
  H   H266      1.0  0.9429315857928084  0.3508492299471951  0.3491111043120243  1.0000
  H   H267      1.0  0.9236021931814341  0.2986391393517521  0.325941653331805  1.0000
  H   H268      1.0  0.8184304324168057  0.304298214275928  0.3416546890010361  1.0000
  H   H269      1.0  0.8734246006821593  0.3525083618813721  0.33287745092709087  1.0000
  H   H270      1.0  0.8537247884853754  0.3000818008236269  0.30982073122081244  1.0000
  H   H271      1.0  0.8940995776703687  0.3565574316731464  0.3926066376362363  1.0000
  H   H272      1.0  0.8900075875491132  0.3071356585799451  0.41322354573395575  1.0000
  H   H273      1.0  0.8394524099712307  0.3081470164914722  0.40173071437140334  1.0000
  H   H274      1.0  0.8129476306086313  0.23572183475076688  0.3707508096282551  1.0000
  H   H275      1.0  0.8639862898536776  0.23511344294165423  0.38172930459869137  1.0000
  H   H276      1.0  0.8477438683991909  0.23151783577788795  0.3384371064678398  1.0000
  N   N16       1.0  0.16957304794183056  0.7256046820414865  0.08570718849575563  1.0000
  C   C205      1.0  0.1932369728189767  0.7488708755912471  0.054525554654135326  1.0000
  C   C206      1.0  0.15642880380498694  0.6766894275067277  0.08386219258127851  1.0000
  C   C207      1.0  0.12841306690978954  0.7297153870542117  0.0896161292702066  1.0000
  C   C208      1.0  0.20006130001561512  0.7471673077308799  0.11478848778763995  1.0000
  H   H277      1.0  0.2244566375837551  0.7463664711596858  0.050744933429596684  1.0000
  H   H278      1.0  0.20352225367140933  0.7858460228803276  0.055171695899130575  1.0000
  H   H279      1.0  0.1710141660553914  0.733450133684801  0.032163390859411174  1.0000
  H   H280      1.0  0.13804552456170127  0.6580175004051522  0.10687191120188598  1.0000
  H   H281      1.0  0.13315027084139747  0.6593140212171379  0.062312747176174604  1.0000
  H   H282      1.0  0.18646420579770182  0.6719335077481856  0.08104621437817101  1.0000
  H   H283      1.0  0.11003715222892002  0.7126320431363092  0.11289850535669559  1.0000
  H   H284      1.0  0.10408777226058928  0.7132157779207432  0.06847730452854983  1.0000
  H   H285      1.0  0.13677853964163392  0.7660912027299115  0.09150096487559223  1.0000
  H   H286      1.0  0.21017283660991065  0.7840054229245348  0.1171750425520222  1.0000
  H   H287      1.0  0.23151697901886095  0.7447464602761743  0.11285840215212208  1.0000
  H   H288      1.0  0.18316379873210573  0.7306997214919383  0.1388114005774594  1.0000
  N   N17       1.0  0.8763573787884196  0.5486026076848842  0.725711363234221  1.0000
  C   C209      1.0  0.8889758844186221  0.5134236184734349  0.7177500604310999  1.0000
  C   C210      1.0  0.912727508478518  0.5851955971048878  0.7460339795455376  1.0000
  C   C211      1.0  0.8335153553659719  0.5276443491449084  0.7449221878763324  1.0000
  C   C212      1.0  0.870249316217852  0.5682794331199177  0.6942467480162309  1.0000
  H   H289      1.0  0.8946775549526453  0.49845941184954595  0.7409655699719414  1.0000
  H   H290      1.0  0.9211936370224659  0.5281304747224952  0.703272887642296  1.0000
  H   H291      1.0  0.8623401873285874  0.4850784556431932  0.7025443032528877  1.0000
  H   H292      1.0  0.9047239644902357  0.6127052623278912  0.752287687944673  1.0000
  H   H293      1.0  0.9188035907137699  0.5716889154172916  0.7698216313357195  1.0000
  H   H294      1.0  0.945354580161203  0.6017844951389995  0.7321689983128608  1.0000
  H   H295      1.0  0.8232912594663101  0.5534810120189061  0.7514340453760765  1.0000
  H   H296      1.0  0.8369285847404087  0.5124201313195644  0.7688079774023103  1.0000
  H   H297      1.0  0.8052155467082157  0.5000730591967449  0.7302413527468254  1.0000
  H   H298      1.0  0.8599432865909963  0.5943828845635697  0.6994203605515527  1.0000
  H   H299      1.0  0.8438117815917012  0.5416828484666281  0.6777911117886423  1.0000
  H   H300      1.0  0.902322911086547  0.5857734567096019  0.6795639138627214  1.0000
  N   N18       1.0  0.23980503213471904  0.9997603511399803  0.24478715474914156  1.0000
  C   C213      1.0  0.1989407968232611  0.9550627626596123  0.23805297535206818  1.0000
  C   C214      1.0  0.2690136874547329  0.9935717016372788  0.26934352876935974  1.0000
  C   C215      1.0  0.22641451971853174  0.03211499351514337  0.25858852049104686  1.0000
  C   C216      1.0  0.2651672055670947  0.018363394303070546  0.21320675351630614  1.0000
  H   H301      1.0  0.20819382626192487  0.929830239742055  0.22801211093196844  1.0000
  H   H302      1.0  0.1762272777638959  0.9581385977640546  0.21929654542997937  1.0000
  H   H303      1.0  0.17894730506349588  0.9399873100240924  0.2613239207185502  1.0000
  H   H304      1.0  0.29968441558369924  0.02666015101488895  0.27572212555419257  1.0000
  H   H305      1.0  0.25073092608759306  0.9779691171211298  0.2931134316499875  1.0000
  H   H306      1.0  0.28096138565052664  0.9706922573306356  0.2591919840331276  1.0000
  H   H307      1.0  0.2042286401765952  0.03760689462068284  0.24078346549424584  1.0000
  H   H308      1.0  0.2568143818095551  0.06617131790926255  0.26372065229919905  1.0000
  H   H309      1.0  0.20767435015982094  0.019422583350980415  0.2826410839508634  1.0000
  H   H310      1.0  0.296691270598949  0.0517694879504765  0.21754585813518165  1.0000
  H   H311      1.0  0.24442478422608485  0.024055886554293426  0.19417374099118276  1.0000
  H   H312      1.0  0.2755027057469526  0.9945917633851166  0.20195009144024997  1.0000
  N   N19       1.0  0.2123017910287215  0.7675815467138857  0.6260007000320797  1.0000
  C   C217      1.0  0.22272480568157801  0.746859713230689  0.5970676511343554  1.0000
  C   C218      1.0  0.19663729230016044  0.735079276432652  0.654356238718279  1.0000
  C   C219      1.0  0.1761387562741448  0.7778778996619086  0.616460309958449  1.0000
  C   C220      1.0  0.2534617095207519  0.8102885379890237  0.6361614623753772  1.0000
  H   H313      1.0  0.23462704438410859  0.770368125215869  0.5751278900686806  1.0000
  H   H314      1.0  0.19206293943729028  0.7146059585339305  0.5888615546362294  1.0000
  H   H315      1.0  0.24952994420141092  0.7381750839097994  0.603444371414654  1.0000
  H   H316      1.0  0.16629374353844487  0.7020708350603047  0.6472828237093045  1.0000
  H   H317      1.0  0.22334861173881795  0.7273610276216405  0.6629885647227931  1.0000
  H   H318      1.0  0.18716028125055392  0.748993346764891  0.6762743203755195  1.0000
  H   H319      1.0  0.14452178134742358  0.7462445476085697  0.608730972708412  1.0000
  H   H320      1.0  0.18664462013428357  0.8022019555869279  0.5950490016103099  1.0000
  H   H321      1.0  0.16723914824430325  0.7934206510888068  0.6377495991577846  1.0000
  H   H322      1.0  0.2813787702759406  0.8037797103821568  0.6437449122450198  1.0000
  H   H323      1.0  0.24661043356102977  0.8265957863188376  0.65803211046511  1.0000
  H   H324      1.0  0.26625247125710494  0.8357844221610629  0.6154506138949046  1.0000
  N   N20       1.0  0.13968594195018375  0.6747745030606881  0.8383760600763329  1.0000
  C   C221      1.0  0.16436524194272462  0.6658692488234053  0.8115467706055253  1.0000
  C   C222      1.0  0.1280076220407139  0.7093996602419689  0.8267476577890728  1.0000
  C   C223      1.0  0.16885547426970765  0.6918676389225343  0.8685463763155368  1.0000
  C   C224      1.0  0.09764689275305902  0.6319332064110068  0.846649906637092  1.0000
  H   H325      1.0  0.17437288511239424  0.6404495186949166  0.8196619424948474  1.0000
  H   H326      1.0  0.19583127851860202  0.6976824243938337  0.8041907614743986  1.0000
  H   H327      1.0  0.14320557435023792  0.6524095011928236  0.7884500365401069  1.0000
  H   H328      1.0  0.10657420486818218  0.6977105472004073  0.8036873857238102  1.0000
  H   H329      1.0  0.10905692915000881  0.7168721679425762  0.8461575834925174  1.0000
  H   H330      1.0  0.15899553577014947  0.7422073015837358  0.8202410055092407  1.0000
  H   H331      1.0  0.15138491803319787  0.6990231789590755  0.889330719864334  1.0000
  H   H332      1.0  0.20101114479611554  0.7240532732045369  0.8630786335054622  1.0000
  H   H333      1.0  0.1781259489946142  0.666316519306794  0.8778969280807216  1.0000
  H   H334      1.0  0.07760485107940368  0.6374530094581247  0.8662937587617492  1.0000
  H   H335      1.0  0.10534528089146138  0.6054207709558042  0.8562769436634715  1.0000
  H   H336      1.0  0.0753548735100068  0.6173038197636903  0.8241984122955334  1.0000
  N   N21       1.0  0.8353797559860544  0.09180818415154132  0.5495631590445812  1.0000
  C   C225      1.0  0.8124917161809755  0.07349477515974295  0.5170745060015425  1.0000
  C   C226      1.0  0.8576984896051537  0.0658182562371277  0.5605816405371409  1.0000
  C   C227      1.0  0.8013582589128079  0.08701499522821164  0.5747590456463224  1.0000
  C   C228      1.0  0.8695706933273754  0.14071572207746402  0.5456930266884262  1.0000
  H   H337      1.0  0.7941979783657811  0.09148124570487731  0.5086956678346549  1.0000
  H   H338      1.0  0.7870899145482718  0.03637502235691422  0.5188484953516747  1.0000
  H   H339      1.0  0.8370467348689976  0.0777186285870213  0.49701032370984577  1.0000
  H   H340      1.0  0.8752523090445833  0.07852670998241253  0.5851240701785483  1.0000
  H   H341      1.0  0.8324574424038378  0.028742487539494894  0.5635786703340272  1.0000
  H   H342      1.0  0.8833630842471658  0.06850153929643381  0.5419799729481336  1.0000
  H   H343      1.0  0.8172242698548965  0.10019942508087097  0.5997254420393122  1.0000
  H   H344      1.0  0.7746351360442401  0.05052217223231138  0.5778834656710924  1.0000
  H   H345      1.0  0.7840117456427719  0.10643605553403951  0.5671521506544639  1.0000
  H   H346      1.0  0.8533546117643254  0.16116193991559546  0.5380463128413266  1.0000
  H   H347      1.0  0.8950009626220143  0.14589542497157848  0.5260541851264233  1.0000
  H   H348      1.0  0.8881336619977054  0.1556240865173146  0.5695715907999039  1.0000
  N   N22       1.0  0.7897008390063515  0.1364057651629329  0.9075604939755875  1.0000
  C   C229      1.0  0.8129763873185611  0.16045495162977158  0.8764722485072671  1.0000
  C   C230      1.0  0.7513910448807009  0.0906966601636641  0.8990601740771738  1.0000
  C   C231      1.0  0.7722820333260539  0.16321622473805916  0.9251619669010922  1.0000
  C   C232      1.0  0.8221640301593333  0.1313955925560057  0.9295544995083435  1.0000
  H   H349      1.0  0.7894877943254182  0.1651402254784984  0.859470590729418  1.0000
  H   H350      1.0  0.8264279479729764  0.1411006708295479  0.8624708943373415  1.0000
  H   H351      1.0  0.8422197224200957  0.1950243398016172  0.882127580038763  1.0000
  H   H352      1.0  0.7329976526150754  0.07180246953589937  0.9219833705670051  1.0000
  H   H353      1.0  0.725818973628393  0.09319066939703761  0.882922871446638  1.0000
  H   H354      1.0  0.7630343430336879  0.06931998591290793  0.8857558357829484  1.0000
  H   H355      1.0  0.7566474887351394  0.14731374478719236  0.9496415181293835  1.0000
  H   H356      1.0  0.7455716755230357  0.16530315030113898  0.9102153480183424  1.0000
  H   H357      1.0  0.7997535248157782  0.19873559083337805  0.9302668776037243  1.0000
  H   H358      1.0  0.8060705298626796  0.11432358692598422  0.9536431542408238  1.0000
  H   H359      1.0  0.8518259655922251  0.1652198451929868  0.9360909004360088  1.0000
  H   H360      1.0  0.835417899709978  0.1105931154801482  0.917466719991377  1.0000
  N   N23       1.0  0.5554516959261494  0.16011306456128518  0.6773472924192006  1.0000
  C   C233      1.0  0.5470918584844475  0.16073348551666147  0.7136922127289578  1.0000
  C   C234      1.0  0.5583697275471468  0.20112847464364317  0.6614010689815409  1.0000
  C   C235      1.0  0.5176503574723159  0.118619104485698  0.6620987681926348  1.0000
  C   C236      1.0  0.5985165794306939  0.15986154607317632  0.672275993797496  1.0000
  H   H361      1.0  0.5454952298096146  0.1306375860347486  0.7266442843829601  1.0000
  H   H362      1.0  0.5142983616723178  0.15979748009884726  0.7184095718042798  1.0000
  H   H363      1.0  0.5742499147014207  0.1919429396824949  0.726145452582789  1.0000
  H   H364      1.0  0.5642449167671173  0.20149953507126964  0.6338869427337183  1.0000
  H   H365      1.0  0.5264730737579417  0.20244959287889247  0.6651497720434086  1.0000
  H   H366      1.0  0.5866360711880435  0.23308604183458137  0.6722682690876983  1.0000
  H   H367      1.0  0.5132764733527307  0.08725213957151737  0.6746882724006751  1.0000
  H   H368      1.0  0.5236009647682224  0.11555780804232386  0.6349881666195305  1.0000
  H   H369      1.0  0.4847842556003109  0.11830261843801337  0.6645187237090752  1.0000
  H   H370      1.0  0.6278483608952841  0.19091866273801616  0.6831443174732991  1.0000
  H   H371      1.0  0.6053906349396525  0.15812445329357602  0.6451549065611522  1.0000
  H   H372      1.0  0.5976150899348088  0.1297541087170881  0.6846099970054765  1.0000
  N   N24       1.0  0.5817117271266704  0.9589454915728124  0.1258621533848036  1.0000
  C   C237      1.0  0.6295242015163555  0.9954534605823065  0.12265626894924002  1.0000
  C   C238      1.0  0.5572103406061478  0.9552405281410485  0.09423207551103299  1.0000
  C   C239      1.0  0.5601763886594917  0.970160229411436  0.1537647347285219  1.0000
  C   C240      1.0  0.5801261080082663  0.9150055666584705  0.13265110298204924  1.0000
  H   H373      1.0  0.6488410153258122  0.0005862361412973804  0.1463745192316078  1.0000
  H   H374      1.0  0.6320285094716275  0.028732255348257834  0.11615496551792771  1.0000
  H   H375      1.0  0.6472210798801507  0.9873681641403714  0.1026003306673741  1.0000
  H   H376      1.0  0.521002187777969  0.9280048426647205  0.09566688472512634  1.0000
  H   H377      1.0  0.5578283295489734  0.987829431614649  0.08825140206614562  1.0000
  H   H378      1.0  0.5728003155430184  0.9470644632372978  0.07260788578628102  1.0000
  H   H379      1.0  0.523671654643375  0.9440859658733115  0.15647164908582337  1.0000
  H   H380      1.0  0.5618496092782655  0.0036586324035527973  0.1496181639013559  1.0000
  H   H381      1.0  0.5774141462126384  0.9727411705731206  0.17812390667697023  1.0000
  H   H382      1.0  0.5445659584649344  0.88667309558094  0.13543463785028678  1.0000
  H   H383      1.0  0.5990643510376064  0.916858216608516  0.1559751652758594  1.0000
  H   H384      1.0  0.5958050131024281  0.9056264902302109  0.11171323810547215  1.0000
