data_image0
_chemical_formula_structural       FeS2FeS2FeSFeS3FeS2FeS2FeSFeS3FeS2FeS2FeSFeS3FeS2FeS2FeSFeS3FeS2FeS2FeSFeS3FeS2FeS2FeSFeS3C6H4C6H4C6H4C6H4C6H4C6H4C6H4C6H4C6H4C6H4C6H4C6H4NC4H12NC4H12NC4H12NC4H12NC4H12NC4H12NC4H12NC4H12NC4H12NC4H12NC4H12NC4H12
_chemical_formula_sum              "Fe24 S48 C120 H192 N12"
_cell_length_a       28.62316146464776
_cell_length_b       28.789036142971216
_cell_length_c       30.015210779374762
_cell_angle_alpha    89.40419197708509
_cell_angle_beta     89.6476924046801
_cell_angle_gamma    120.57527964086952

_space_group_name_H-M_alt    "P 1"
_space_group_IT_number       1

loop_
  _space_group_symop_operation_xyz
  'x, y, z'

loop_
  _atom_site_type_symbol
  _atom_site_label
  _atom_site_symmetry_multiplicity
  _atom_site_fract_x
  _atom_site_fract_y
  _atom_site_fract_z
  _atom_site_occupancy
  Fe  Fe1       1.0  0.8049967611415159  0.5061032114471369  0.23440778347002378  1.0000
  S   S1        1.0  0.8683304159115588  0.5894545479397664  0.25449594299790157  1.0000
  S   S2        1.0  0.8026413827314326  0.4915240134251167  0.16056787754641738  1.0000
  Fe  Fe2       1.0  0.7552255400405831  0.47662725532336814  0.32897635707270995  1.0000
  S   S3        1.0  0.8157214882765862  0.5577457031784596  0.3555426895682702  1.0000
  S   S4        1.0  0.6791887899184113  0.4185126440576769  0.3675957624776997  1.0000
  Fe  Fe3       1.0  0.8001766889853734  0.5898339922690349  0.2919473705707522  1.0000
  S   S5        1.0  0.7842864246929252  0.659448890773138  0.2895293526909675  1.0000
  Fe  Fe4       1.0  0.8773485545070534  0.5486403992720177  0.3152959447093322  1.0000
  S   S6        1.0  0.956588532259859  0.5555541185018255  0.33699784831874463  1.0000
  S   S7        1.0  0.7368672577541002  0.5093779904076735  0.26762888344254043  1.0000
  S   S8        1.0  0.8171071832703022  0.46439682214892325  0.2928513660437749  1.0000
  Fe  Fe5       1.0  0.5844184103966509  0.7162475810032244  0.15205304819326987  1.0000
  S   S9        1.0  0.5008178956921592  0.7047048682551246  0.15898020946796973  1.0000
  S   S10       1.0  0.5928734539510558  0.6444596065767619  0.17182422197647093  1.0000
  Fe  Fe6       1.0  0.6277749633733078  0.8238979952166744  0.10288492792390602  1.0000
  S   S11       1.0  0.547364068242  0.8195148102954939  0.10488198431597903  1.0000
  S   S12       1.0  0.7054521225451128  0.8964704482304793  0.0769327568986981  1.0000
  Fe  Fe7       1.0  0.5424877486767254  0.7921788100660943  0.17595942847864648  1.0000
  S   S13       1.0  0.5164591632172749  0.8339513295689273  0.22538775025722718  1.0000
  Fe  Fe8       1.0  0.511957461215099  0.7323779947802544  0.0875028775301188  1.0000
  S   S14       1.0  0.4367076757055285  0.6868239063370761  0.04559243421717274  1.0000
  S   S15       1.0  0.6256936550866228  0.8019983633604851  0.1754165358640192  1.0000
  S   S16       1.0  0.593057222360466  0.7387029348498207  0.07916118149624983  1.0000
  Fe  Fe9       1.0  0.8226401730029138  0.2741151426354655  0.027063085606918502  1.0000
  S   S17       1.0  0.8366975918558481  0.20562160016936604  0.01310047613945775  1.0000
  S   S18       1.0  0.8303279557994815  0.2973791327672844  0.0996155884075627  1.0000
  Fe  Fe10      1.0  0.7930186463563572  0.2805570199145994  0.930959541103478  1.0000
  S   S19       1.0  0.8038782015732967  0.21219477503831505  0.909702337249014  1.0000
  S   S20       1.0  0.771015473569856  0.326427838000828  0.8817649127870882  1.0000
  Fe  Fe11      1.0  0.7605234827517573  0.1714252833064882  0.9737195668158466  1.0000
  S   S21       1.0  0.6928881619705309  0.0838480474336053  0.9748568595947894  1.0000
  Fe  Fe12      1.0  0.8795256888564034  0.2520692072412322  0.9505569468816527  1.0000
  S   S22       1.0  0.9528773868938327  0.24915499343212702  0.9250227415668012  1.0000
  S   S23       1.0  0.7429336664902236  0.23663470356007327  0.9917240612548784  1.0000
  S   S24       1.0  0.8722134512639851  0.3239113986452005  0.9678467748010684  1.0000
  Fe  Fe13      1.0  0.23282878680274713  0.4663785994290759  0.8183634405588878  1.0000
  S   S25       1.0  0.2981798647918832  0.5502073127417674  0.7966077253237661  1.0000
  S   S26       1.0  0.15663547757054397  0.462345195620981  0.8453769153521179  1.0000
  Fe  Fe14      1.0  0.29738205815626073  0.4151283507835836  0.7861138530855443  1.0000
  S   S27       1.0  0.366092602388015  0.4943901751419501  0.7618392493482631  1.0000
  S   S28       1.0  0.301753978507698  0.33889849640257774  0.7807608554287355  1.0000
  Fe  Fe15      1.0  0.3558538592742334  0.5272392493689471  0.8262687856720146  1.0000
  S   S29       1.0  0.43523496342656903  0.578172426922442  0.8622206306573704  1.0000
  Fe  Fe16      1.0  0.3024851362774768  0.5097247117758904  0.7345903376837375  1.0000
  S   S30       1.0  0.30829018920984175  0.5356078187636035  0.6623944917814957  1.0000
  S   S31       1.0  0.29049910661067946  0.44664410716051234  0.852793915251913  1.0000
  S   S32       1.0  0.23373300398998664  0.42737683748231076  0.7541570459878242  1.0000
  Fe  Fe17      1.0  0.48466130028286847  0.1914123127891119  0.6120841279587589  1.0000
  S   S33       1.0  0.5650679031958759  0.19715589068660938  0.6219195924370977  1.0000
  S   S34       1.0  0.4076591060337443  0.12299114580832309  0.583147651695179  1.0000
  Fe  Fe18      1.0  0.5208775745451437  0.2990447293549742  0.6560772027362243  1.0000
  S   S35       1.0  0.6041940804318761  0.31356620430648635  0.6704298346271359  1.0000
  S   S36       1.0  0.4992188438336503  0.3637947986924239  0.6650011612817728  1.0000
  Fe  Fe19      1.0  0.602017295780774  0.28432277295952463  0.6009305263364785  1.0000
  S   S37       1.0  0.6813356141572622  0.3299155099308746  0.5619773959120836  1.0000
  Fe  Fe20      1.0  0.5615434654623882  0.22605161503593707  0.69044701102187  1.0000
  S   S38       1.0  0.5813573682755416  0.1874364117507534  0.747469362786396  1.0000
  S   S39       1.0  0.5217642461111901  0.276134543575328  0.5849605847633889  1.0000
  S   S40       1.0  0.47812531708165196  0.21386916580387366  0.6824215571132191  1.0000
  Fe  Fe21      1.0  0.34944928018065313  0.8523373064818343  0.4738447916613268  1.0000
  S   S41       1.0  0.3645751255974519  0.7860783746549141  0.4947887252326119  1.0000
  S   S42       1.0  0.4212315347648619  0.9360143841603117  0.4844027920061364  1.0000
  Fe  Fe22      1.0  0.23506850897143902  0.7717267937253386  0.440746171259119  1.0000
  S   S43       1.0  0.24117712637854902  0.6998106542091124  0.4615115281378493  1.0000
  S   S44       1.0  0.16496857739139037  0.769584425280685  0.4035223810452794  1.0000
  Fe  Fe23      1.0  0.2804071944727117  0.7465336589071135  0.5236379165051163  1.0000
  S   S45       1.0  0.269252082564698  0.7230738204865003  0.5969404905643423  1.0000
  Fe  Fe24      1.0  0.32513936684337114  0.7465641524312996  0.4308242521088742  1.0000
  S   S46       1.0  0.3538888515423361  0.7034445243708581  0.3854096225484479  1.0000
  S   S47       1.0  0.26687419614121644  0.8148843787840474  0.5055802153725033  1.0000
  S   S48       1.0  0.3172443634436407  0.8162617168742692  0.40716022832099963  1.0000
  C   C1        1.0  0.4160167112303598  0.9870878749304961  0.5119192544401352  1.0000
  C   C2        1.0  0.4638407280701178  0.034335968823120955  0.5236207919936657  1.0000
  C   C3        1.0  0.46166560223394526  0.07586124557153445  0.5459572365161314  1.0000
  C   C4        1.0  0.41155154429447094  0.0706691839851675  0.5563912704633929  1.0000
  C   C5        1.0  0.3636166632423081  0.023337928407619172  0.5447673105187415  1.0000
  C   C6        1.0  0.3657856436877056  0.9814881391324729  0.5227638539491976  1.0000
  H   H1        1.0  0.502826625785387  0.03905118434561561  0.5150852001271402  1.0000
  H   H2        1.0  0.4988078213050283  0.11231085098792976  0.5542831938584092  1.0000
  H   H3        1.0  0.32469060142619116  0.019114130699266377  0.5526159058983601  1.0000
  H   H4        1.0  0.3286947461375348  0.9453296383805486  0.5136870420637749  1.0000
  C   C7        1.0  0.3539353833449975  0.34313091474895435  0.7463088585388454  1.0000
  C   C8        1.0  0.3805152939507706  0.38524118748356756  0.7151803512684008  1.0000
  C   C9        1.0  0.4248199498932832  0.3907626500977558  0.6904484491310515  1.0000
  C   C10       1.0  0.4423816156110409  0.353693098461008  0.6960197929505902  1.0000
  C   C11       1.0  0.4150321346970296  0.3105911295810044  0.7262975448390514  1.0000
  C   C12       1.0  0.3707950949512002  0.3053261683910491  0.7513662627460078  1.0000
  H   H5        1.0  0.36676099899438974  0.41348357398405644  0.7098759568065401  1.0000
  H   H6        1.0  0.44548546483500057  0.4239022076727943  0.6667588580510364  1.0000
  H   H7        1.0  0.42864430522944147  0.2820623335421915  0.7311235400049677  1.0000
  H   H8        1.0  0.35036767485796005  0.2726265151426525  0.7754565858382639  1.0000
  C   C13       1.0  0.283784271649013  0.6732631204279286  0.6145892563494897  1.0000
  C   C14       1.0  0.28994742330378664  0.6667661561234453  0.6602321296267967  1.0000
  C   C15       1.0  0.29904537268484044  0.6256008494751892  0.6753026505856148  1.0000
  C   C16       1.0  0.30111804708494977  0.5902637569570378  0.6448327748046717  1.0000
  C   C17       1.0  0.2961179624872319  0.5975839333676802  0.5991904442571961  1.0000
  C   C18       1.0  0.28772286599802455  0.6391010455224705  0.5840481346582167  1.0000
  H   H9        1.0  0.2875030716960379  0.6935000573275483  0.6839559630038855  1.0000
  H   H10       1.0  0.304543734768851  0.6211367496958708  0.7103588553229992  1.0000
  H   H11       1.0  0.2981740984048949  0.5706402954541951  0.5754198535289582  1.0000
  H   H12       1.0  0.28326394637544317  0.6439576322098117  0.5488022971309751  1.0000
  C   C19       1.0  0.00923718418242192  0.3085291323360469  0.9026303313773136  1.0000
  C   C20       1.0  0.009280087982064256  0.3570642365932293  0.8999423982676141  1.0000
  C   C21       1.0  0.05475893425700453  0.40376265904124403  0.8822832492944455  1.0000
  C   C22       1.0  0.10052957289591903  0.40238209871386366  0.8670807655707599  1.0000
  C   C23       1.0  0.10041339534445036  0.35376558746389675  0.8693545406072352  1.0000
  C   C24       1.0  0.05488377968872604  0.3070099470292552  0.8871245265463552  1.0000
  H   H13       1.0  0.9744059970930461  0.35875036343352906  0.9116849563348652  1.0000
  H   H14       1.0  0.054556889375946556  0.4412106987666998  0.8807408130161986  1.0000
  H   H15       1.0  0.13546353779474352  0.3522567120916214  0.8577237039494805  1.0000
  H   H16       1.0  0.05520613463794133  0.26964499616068743  0.8890995956616596  1.0000
  C   C25       1.0  0.7169314542285199  0.28749598190816517  0.8456632020804197  1.0000
  C   C26       1.0  0.6921799262471526  0.2313042346146713  0.8452957843445738  1.0000
  C   C27       1.0  0.6502222775572095  0.20111315957000234  0.8153414607995909  1.0000
  C   C28       1.0  0.6325813173973649  0.22679779529906183  0.7856747257168343  1.0000
  C   C29       1.0  0.6567349547112155  0.28296459432732585  0.786400106304168  1.0000
  C   C30       1.0  0.699034946963825  0.31326464097755163  0.8161930071613542  1.0000
  H   H17       1.0  0.7052375545584737  0.21102764712938582  0.8681857958200294  1.0000
  H   H18       1.0  0.6313257800871355  0.15762511071804516  0.8152240178421718  1.0000
  H   H19       1.0  0.6424684984245257  0.3029117325583814  0.7643802295776386  1.0000
  H   H20       1.0  0.7176967340751842  0.356698877876922  0.8167291063642157  1.0000
  C   C31       1.0  0.3985518074913203  0.7400150810197893  0.34074922948765823  1.0000
  C   C32       1.0  0.4137849397435011  0.7130496712419253  0.3104957260010626  1.0000
  C   C33       1.0  0.44963965197443756  0.7412625379530462  0.274790334638778  1.0000
  C   C34       1.0  0.47043608196052555  0.7966950367212128  0.269127932625135  1.0000
  C   C35       1.0  0.45461589042100686  0.8234923567238642  0.299045663013735  1.0000
  C   C36       1.0  0.4188411104442331  0.7953064180983325  0.3347445398663963  1.0000
  H   H21       1.0  0.39832205298952544  0.6703029540336723  0.31501979945596825  1.0000
  H   H22       1.0  0.4616780859856388  0.7202588979433792  0.2520415042171798  1.0000
  H   H23       1.0  0.47078277841006994  0.8664197034102473  0.29505559847989876  1.0000
  H   H24       1.0  0.4080587457451538  0.8166858835533526  0.35815192409663504  1.0000
  C   C37       1.0  0.7012977093473208  0.9486848962570876  0.04946350233736269  1.0000
  C   C38       1.0  0.6531770026080237  0.9389646825630755  0.029589951855818253  1.0000
  C   C39       1.0  0.6511112743828738  0.98098391817357  0.007201532909688835  1.0000
  C   C40       1.0  0.6967648053989669  0.03318118584429646  0.00517014115068215  1.0000
  C   C41       1.0  0.7445651774101525  0.04326883579081517  0.02596762344961978  1.0000
  C   C42       1.0  0.7469977304229702  0.0009408602073819328  0.04757994225207031  1.0000
  H   H25       1.0  0.617920906528327  0.898752445238448  0.03042053905927733  1.0000
  H   H26       1.0  0.6140697934196916  0.9729001024241578  0.9910092535963185  1.0000
  H   H27       1.0  0.7796680073407658  0.08351088587979107  0.025119231416557582  1.0000
  H   H28       1.0  0.7842138137063064  0.008762408277101175  0.06325495309870284  1.0000
  C   C43       1.0  0.43765893388031063  0.6589062552097785  0.9937304318011994  1.0000
  C   C44       1.0  0.4857641994975456  0.6659484379524341  0.9750348470705122  1.0000
  C   C45       1.0  0.48449678918574757  0.6410052809956015  0.9346387534571667  1.0000
  C   C46       1.0  0.4352481045382903  0.6090709398149095  0.9126586012883692  1.0000
  C   C47       1.0  0.38716684653215283  0.6019069770113129  0.9314145268091677  1.0000
  C   C48       1.0  0.38844142583605246  0.626832001291011  0.9717949565350134  1.0000
  H   H29       1.0  0.5239555925424773  0.6909828425345582  0.991434123838416  1.0000
  H   H30       1.0  0.521875771024588  0.646997942708694  0.920095804509175  1.0000
  H   H31       1.0  0.34902293659692063  0.5773940469159788  0.9147122642489378  1.0000
  H   H32       1.0  0.351066552646854  0.6211995193173364  0.9860934654418717  1.0000
  C   C49       1.0  0.6811695451639032  0.3948400852111425  0.4216400460840161  1.0000
  C   C50       1.0  0.6320387323348211  0.3609830090356287  0.44426323907252646  1.0000
  C   C51       1.0  0.6316966590234332  0.3412877719520539  0.48738215340441715  1.0000
  C   C52       1.0  0.680567766435782  0.35517760562818645  0.5082027803710294  1.0000
  C   C53       1.0  0.7298171697103334  0.38940136120925767  0.4856932036651118  1.0000
  C   C54       1.0  0.7301815851132052  0.4094251699307192  0.4425793574953959  1.0000
  H   H33       1.0  0.5939863311790455  0.3493808268036924  0.4281843257188784  1.0000
  H   H34       1.0  0.5935716619309057  0.31458557492367173  0.5041352700246888  1.0000
  H   H35       1.0  0.7677982142004423  0.40027582725148897  0.5015531126109067  1.0000
  H   H36       1.0  0.7682769547245833  0.43552548136922026  0.42541838880109634  1.0000
  C   C55       1.0  0.012954927003312688  0.6152695822048868  0.35705559758368793  1.0000
  C   C56       1.0  0.0557704384412776  0.6122417874203966  0.37674645507869753  1.0000
  C   C57       1.0  0.10193378329752427  0.6589265720595446  0.39224088110612726  1.0000
  C   C58       1.0  0.10609590558164816  0.7092879228644252  0.38743242034110176  1.0000
  C   C59       1.0  0.06347968298458465  0.7123542824700437  0.3673531850177735  1.0000
  C   C60       1.0  0.016892001445020233  0.6655275384003322  0.3524963816430662  1.0000
  H   H37       1.0  0.052919563226969446  0.5734722935554806  0.3806020510178247  1.0000
  H   H38       1.0  0.13412435216850685  0.6558224851167772  0.4079707157971386  1.0000
  H   H39       1.0  0.0664235104792261  0.7511776820044385  0.36344690042318517  1.0000
  H   H40       1.0  0.9842754792330275  0.6684154051926965  0.33728627685194595  1.0000
  C   C61       1.0  0.7295283408340955  0.6548756283701564  0.25866392820552053  1.0000
  C   C62       1.0  0.7281620017921192  0.7019185994596326  0.24841361296661488  1.0000
  C   C63       1.0  0.6863732217322392  0.6995927316061646  0.2220860711815064  1.0000
  C   C64       1.0  0.6453755922071415  0.6500106620193867  0.20620087432399214  1.0000
  C   C65       1.0  0.6463045340927607  0.6030006509055398  0.2171293061893807  1.0000
  C   C66       1.0  0.688072437763463  0.6054005226317839  0.24317191642848168  1.0000
  H   H41       1.0  0.7599039752733912  0.7404560617728264  0.2603621436146245  1.0000
  H   H42       1.0  0.6859970118071164  0.7361278659539724  0.2140129357569507  1.0000
  H   H43       1.0  0.6144903624363961  0.5644294114521234  0.20533836947527515  1.0000
  H   H44       1.0  0.6877332067040273  0.5687698526094586  0.2513096941003568  1.0000
  C   C67       1.0  0.8045581890156053  0.43433730245874314  0.14309950463902982  1.0000
  C   C68       1.0  0.8144035819265139  0.4295320891247495  0.09803476289558238  1.0000
  C   C69       1.0  0.8201962540564569  0.38630178756476247  0.08390538237688878  1.0000
  C   C70       1.0  0.8164846962805241  0.347972803484663  0.11493266074064948  1.0000
  C   C71       1.0  0.8051439365436771  0.3520180702067243  0.15980301493771054  1.0000
  C   C72       1.0  0.798879980718731  0.39494463235327404  0.1738279697143725  1.0000
  H   H45       1.0  0.8185045657697199  0.459718583965507  0.07403895924288871  1.0000
  H   H46       1.0  0.8288476037217168  0.38331543374472965  0.049233349713441045  1.0000
  H   H47       1.0  0.8016234890397345  0.3220284155907514  0.18377278730302918  1.0000
  H   H48       1.0  0.7898697263045131  0.3976372348497687  0.20839529501861445  1.0000
  N   N1        1.0  0.6204245526857959  0.9808329110477441  0.15988453817318793  1.0000
  C   C73       1.0  0.6588368355918905  0.03122763075414081  0.13566377423514941  1.0000
  C   C74       1.0  0.5708915285048953  0.9500867141975663  0.13323858433632285  1.0000
  C   C75       1.0  0.6058061001037874  0.9937943466466549  0.2034348222254374  1.0000
  C   C76       1.0  0.646056822115317  0.9479779317729974  0.16717270570423293  1.0000
  H   H49       1.0  0.6968700589470677  0.05552371830809166  0.15459565179621793  1.0000
  H   H50       1.0  0.6408453287864943  0.05700303742611923  0.12926990334348476  1.0000
  H   H51       1.0  0.6705410199457433  0.022553266582364007  0.10270139862382877  1.0000
  H   H52       1.0  0.5410488186058614  0.9116721921718353  0.15049514036080613  1.0000
  H   H53       1.0  0.5504459503986019  0.9736147154882129  0.1270854922706237  1.0000
  H   H54       1.0  0.5804494171966632  0.9395307839052465  0.100158820602122  1.0000
  H   H55       1.0  0.5767055921272087  0.9563235254337895  0.22232223134700324  1.0000
  H   H56       1.0  0.5863077324266597  0.01855182355621765  0.19933274433157  1.0000
  H   H57       1.0  0.6421662760335065  0.016641429704860045  0.22456644641024126  1.0000
  H   H58       1.0  0.6187107049423076  0.9101560211156482  0.18616474740057187  1.0000
  H   H59       1.0  0.6843848201216521  0.9702809024116669  0.18608503656289677  1.0000
  H   H60       1.0  0.6560267769054077  0.9359864341653596  0.1350989427332039  1.0000
  N   N2        1.0  0.23948171724731906  0.7357088111135196  0.2930436272912253  1.0000
  C   C77       1.0  0.18350187727627096  0.7169292502908595  0.27841429146116947  1.0000
  C   C78       1.0  0.23755081403642442  0.7088121538231219  0.33572473197282915  1.0000
  C   C79       1.0  0.26841714878289263  0.7947858918163805  0.2990537843936285  1.0000
  C   C80       1.0  0.2686199632155941  0.7223926500434524  0.25936819043924964  1.0000
  H   H61       1.0  0.18317713612133918  0.7356610072735381  0.24591196043458052  1.0000
  H   H62       1.0  0.1612962087620863  0.7276043208660994  0.30310793573401906  1.0000
  H   H63       1.0  0.15986287639999266  0.6723252361087982  0.2749148923107776  1.0000
  H   H64       1.0  0.21626771120174906  0.6641809947620599  0.3327575959540876  1.0000
  H   H65       1.0  0.27899728204057017  0.7223237036243555  0.34776410108443867  1.0000
  H   H66       1.0  0.2163771658802659  0.718207090725609  0.3621140997565485  1.0000
  H   H67       1.0  0.3112129708150473  0.8105038686359377  0.30923195802072984  1.0000
  H   H68       1.0  0.2484012317014005  0.8061169230666427  0.3253259135771251  1.0000
  H   H69       1.0  0.26952183004284674  0.8164047116861696  0.26778720013747354  1.0000
  H   H70       1.0  0.3108423412037473  0.7356882028472763  0.2701362598948452  1.0000
  H   H71       1.0  0.2716378654681518  0.7424892911132719  0.22673411410181188  1.0000
  H   H72       1.0  0.2479700870702873  0.678136036651553  0.25399960929995347  1.0000
  N   N3        1.0  0.14487398378108018  0.5332611240609514  0.7296498011364081  1.0000
  C   C81       1.0  0.08993958390716932  0.500401023044868  0.7495289958036233  1.0000
  C   C82       1.0  0.18025099615242168  0.5754432499036484  0.7612889921982949  1.0000
  C   C83       1.0  0.141925196711706  0.5588048091926372  0.6875875831647817  1.0000
  C   C84       1.0  0.16743391098355398  0.498179187273462  0.7203591495893767  1.0000
  H   H73       1.0  0.06233467705999203  0.4675233104026034  0.7269791974791542  1.0000
  H   H74       1.0  0.07145970741658465  0.5254260906697902  0.7569054958577651  1.0000
  H   H75       1.0  0.09109465181205256  0.4809437966183624  0.7815359022129272  1.0000
  H   H76       1.0  0.22191854957824494  0.6012537647209629  0.7473921413692622  1.0000
  H   H77       1.0  0.16410327463494068  0.6022284844516531  0.7696597403520753  1.0000
  H   H78       1.0  0.18406462208449598  0.5573962186203522  0.793104808726575  1.0000
  H   H79       1.0  0.11474230026079452  0.528138305301039  0.6632923601994911  1.0000
  H   H80       1.0  0.1825397000586893  0.5824969977370487  0.6711335014872275  1.0000
  H   H81       1.0  0.12662185516655636  0.5868969639280456  0.6933455076695966  1.0000
  H   H82       1.0  0.1428786356651504  0.46674330701048333  0.6956431589299371  1.0000
  H   H83       1.0  0.16853697923697494  0.47706883565576885  0.7511771788375297  1.0000
  H   H84       1.0  0.209641922394411  0.5216888625047498  0.7068786892251454  1.0000
  N   N4        1.0  0.7861109659708198  0.6240709652974878  0.12977228616881176  1.0000
  C   C85       1.0  0.7683292396040262  0.6332354669027088  0.08610884281938347  1.0000
  C   C86       1.0  0.797678054626588  0.6691379375875852  0.15960291102276725  1.0000
  C   C87       1.0  0.8356785409265851  0.6208408022980483  0.12375614854865225  1.0000
  C   C88       1.0  0.742636854479549  0.5729251393831645  0.14971871791861724  1.0000
  H   H85       1.0  0.7590125713634033  0.5997285884201464  0.06291632435052819  1.0000
  H   H86       1.0  0.8002204077918027  0.6714792523583694  0.0700345924054453  1.0000
  H   H87       1.0  0.731037303339258  0.6360081275925176  0.0896793702105465  1.0000
  H   H88       1.0  0.8107109925231691  0.6632411450267431  0.19307040868374803  1.0000
  H   H89       1.0  0.8305561613209862  0.7084399800325979  0.14590865962848265  1.0000
  H   H90       1.0  0.761143208019014  0.6728451130765122  0.16474439060626422  1.0000
  H   H91       1.0  0.8497692687054704  0.6134926393362743  0.15616514203747656  1.0000
  H   H92       1.0  0.8695304986500615  0.6586845419260736  0.10884431715102716  1.0000
  H   H93       1.0  0.8282323025773455  0.5868347223560632  0.101755530732488  1.0000
  H   H94       1.0  0.7042671271466112  0.5733870574667197  0.15416473073339598  1.0000
  H   H95       1.0  0.7545056790850723  0.5653308529014258  0.18298286346661063  1.0000
  H   H96       1.0  0.7338332909417098  0.5377025930098187  0.1287772864760246  1.0000
  N   N5        1.0  0.4135641955854595  0.8778516127219077  0.617299529565979  1.0000
  C   C89       1.0  0.36535870237826046  0.8749502312952226  0.596851158040058  1.0000
  C   C90       1.0  0.4032569213889485  0.8226016342629333  0.6252245539527739  1.0000
  C   C91       1.0  0.42461863039949094  0.9063910677806648  0.6600482565056722  1.0000
  C   C92       1.0  0.46085913635619496  0.9075123447666888  0.5869093512432202  1.0000
  H   H97       1.0  0.37059292505432806  0.9157394716785895  0.5921622456310286  1.0000
  H   H98       1.0  0.32796740999448903  0.849962942681909  0.6173307419681886  1.0000
  H   H99       1.0  0.3579519197758072  0.8565120530983801  0.563460868101888  1.0000
  H   H100      1.0  0.39357490899358516  0.799631366529612  0.593655771421904  1.0000
  H   H101      1.0  0.4389603724326386  0.8229655004412849  0.6400116461021522  1.0000
  H   H102      1.0  0.3678784739995633  0.7990750842309117  0.6481256304527068  1.0000
  H   H103      1.0  0.46050300212784473  0.9089977970181778  0.6766771042701345  1.0000
  H   H104      1.0  0.3893336072104418  0.8853726842201862  0.6834428321782979  1.0000
  H   H105      1.0  0.43295623615375955  0.9483787494721939  0.6549812425656186  1.0000
  H   H106      1.0  0.49832807270024615  0.9114326996553672  0.6013882203796284  1.0000
  H   H107      1.0  0.46877926469932374  0.9488650765167541  0.5791519309549776  1.0000
  H   H108      1.0  0.45399707346748785  0.8866879206143985  0.5544321294143176  1.0000
  N   N6        1.0  0.9540216149025574  0.46815569042674143  0.22452656356805922  1.0000
  C   C93       1.0  0.9149731690510917  0.42785956820570525  0.2569451934265623  1.0000
  C   C94       1.0  0.9545933665419735  0.44083120972528  0.18322572164082523  1.0000
  C   C95       1.0  0.008746228948914414  0.49583227735045327  0.24410311994278378  1.0000
  C   C96       1.0  0.9378023070935042  0.5082329050878717  0.21400956051897776  1.0000
  H   H109      1.0  0.9137949997726158  0.4472555405877798  0.2885810351702698  1.0000
  H   H110      1.0  0.9257489035122265  0.3968054735189934  0.2655423678645061  1.0000
  H   H111      1.0  0.8731191611521758  0.40633363179523446  0.24351806213865643  1.0000
  H   H112      1.0  0.9142902936199568  0.42085011428074776  0.16695216074974858  1.0000
  H   H113      1.0  0.9844223913100522  0.46979256107954365  0.1583244704306375  1.0000
  H   H114      1.0  0.96489788500358  0.40899901083463014  0.18993375432443887  1.0000
  H   H115      1.0  0.03925843570587406  0.5268891113180607  0.22078703625458002  1.0000
  H   H116      1.0  0.02227873776718603  0.46678668841954873  0.25247743884285334  1.0000
  H   H117      1.0  0.009380297476981214  0.5166021165679433  0.27547397363741233  1.0000
  H   H118      1.0  0.9657393965069109  0.5387836866006485  0.18908542157324706  1.0000
  H   H119      1.0  0.9376126579096158  0.5301097197771956  0.24429057424710404  1.0000
  H   H120      1.0  0.8962834446049818  0.4886817320697171  0.20005317729854216  1.0000
  N   N7        1.0  0.4883066313247398  0.474381558220137  0.8205370758825508  1.0000
  C   C97       1.0  0.4316072446872884  0.4454515632973394  0.83722269106962  1.0000
  C   C98       1.0  0.5034437197738619  0.434762940107366  0.8061141323884435  1.0000
  C   C99       1.0  0.5245139528249264  0.5077660439152515  0.8564751769971687  1.0000
  C   C100      1.0  0.4934945355527516  0.5095664843162205  0.7823016285269602  1.0000
  H   H121      1.0  0.418969834904095  0.47382381260096185  0.849387541781385  1.0000
  H   H122      1.0  0.4255131509250739  0.4170455760616168  0.8650594213120173  1.0000
  H   H123      1.0  0.4030505526572571  0.4214823527951578  0.8105832781449704  1.0000
  H   H124      1.0  0.5456705484875131  0.45495211072809616  0.7925462658188738  1.0000
  H   H125      1.0  0.5002840488056985  0.4075723741706644  0.8340700697730059  1.0000
  H   H126      1.0  0.4762603617186872  0.4086869945628034  0.7793881366193905  1.0000
  H   H127      1.0  0.5676782688830055  0.5301425115170751  0.8451236422993621  1.0000
  H   H128      1.0  0.521262177830982  0.4825905248978979  0.8860238854094521  1.0000
  H   H129      1.0  0.5139556696901113  0.538190070260103  0.8676998836055649  1.0000
  H   H130      1.0  0.5357686697080387  0.5321294918520086  0.7688992423066331  1.0000
  H   H131      1.0  0.4820363826057587  0.5397996118865842  0.7919535074361647  1.0000
  H   H132      1.0  0.4667362200170543  0.4857036933505337  0.7544893651484099  1.0000
  N   N8        1.0  0.7538845460331145  0.3064380185029346  0.6743287897647195  1.0000
  C   C101      1.0  0.7760254247858309  0.2960439405612522  0.7151617857547771  1.0000
  C   C102      1.0  0.7464968466552729  0.3530919199820095  0.6812215361530619  1.0000
  C   C103      1.0  0.701012982241145  0.2582950452782717  0.6643483367036421  1.0000
  C   C104      1.0  0.7916807491041876  0.31823800397940355  0.636397309704361  1.0000
  H   H133      1.0  0.78287831882024  0.2616049691455943  0.7109396712436075  1.0000
  H   H134      1.0  0.7475787721920493  0.28559254291523195  0.744035523043288  1.0000
  H   H135      1.0  0.8152046680880102  0.33197706352253276  0.7246101811792255  1.0000
  H   H136      1.0  0.7291647280984382  0.36154429413132927  0.6511564642265495  1.0000
  H   H137      1.0  0.7183007655600349  0.34566815323183686  0.7096419669806489  1.0000
  H   H138      1.0  0.7856006237264088  0.3903148674818652  0.6884878447103413  1.0000
  H   H139      1.0  0.6840267092619824  0.26401611077325615  0.6329307301879534  1.0000
  H   H140      1.0  0.6707727033692517  0.2495328548042006  0.6913231775847646  1.0000
  H   H141      1.0  0.704321023533913  0.2216822886249305  0.6605882026059722  1.0000
  H   H142      1.0  0.7758500612700271  0.326533974168508  0.6052410070415405  1.0000
  H   H143      1.0  0.7975351345771198  0.28357059581952404  0.6297223523667789  1.0000
  H   H144      1.0  0.8321400595831009  0.3542436351219981  0.6427090088827925  1.0000
  N   N9        1.0  0.8455003871481518  0.08492337849289833  0.9060111700619826  1.0000
  C   C105      1.0  0.8680668594652471  0.10952657379724647  0.9494402302638951  1.0000
  C   C106      1.0  0.8714338234573153  0.1263458322556034  0.8702683394121833  1.0000
  C   C107      1.0  0.7862853385667133  0.06330861011081974  0.906378394946127  1.0000
  C   C108      1.0  0.8562907600149253  0.04063977177265279  0.8981198319302414  1.0000
  H   H145      1.0  0.912944092421077  0.12769651783848585  0.9500952321182163  1.0000
  H   H146      1.0  0.8499692863185875  0.07956223869317088  0.9773202849062392  1.0000
  H   H147      1.0  0.8601361179933827  0.14270707202319644  0.9564133382976734  1.0000
  H   H148      1.0  0.8560519939027545  0.1093528040738659  0.8368533399921166  1.0000
  H   H149      1.0  0.863629475538823  0.16011317262264382  0.875176421580583  1.0000
  H   H150      1.0  0.9163829512077644  0.1447815792351572  0.8698910619220296  1.0000
  H   H151      1.0  0.7677300719456535  0.045012391085629086  0.8740057411779848  1.0000
  H   H152      1.0  0.7766689771294615  0.09556411362043897  0.9129419359232864  1.0000
  H   H153      1.0  0.7652569792565622  0.03181771970970793  0.9328590184281653  1.0000
  H   H154      1.0  0.8397596252352293  0.021085412804547232  0.8656206958630226  1.0000
  H   H155      1.0  0.8372270888346932  0.008834416221474186  0.9246678039908073  1.0000
  H   H156      1.0  0.900660340819483  0.05570765597418786  0.8978026634926154  1.0000
  N   N10       1.0  0.6727515850879642  0.5559132873316449  0.4040835045910704  1.0000
  C   C109      1.0  0.6252182706240038  0.5568506984257857  0.4224369908909961  1.0000
  C   C110      1.0  0.7191000904003922  0.6117494824808299  0.3992456473084211  1.0000
  C   C111      1.0  0.6592755953691779  0.5303573747873095  0.3599682605689819  1.0000
  C   C112      1.0  0.68732308668936  0.5245839659328656  0.4344656587609484  1.0000
  H   H157      1.0  0.5895141040765564  0.515276547338689  0.426205652124867  1.0000
  H   H158      1.0  0.6132115547552223  0.5802078252959412  0.40027580697274273  1.0000
  H   H159      1.0  0.6338588571043673  0.5757142709567461  0.45584535715437274  1.0000
  H   H160      1.0  0.7557254462670082  0.6125048737342936  0.385560153554797  1.0000
  H   H161      1.0  0.709880181387037  0.6361941720318646  0.3757530796758548  1.0000
  H   H162      1.0  0.7303394209660925  0.6326820487697141  0.43174480126881387  1.0000
  H   H163      1.0  0.6944007715434001  0.5292416947147451  0.34543234726137656  1.0000
  H   H164      1.0  0.648118552099808  0.5527827858459456  0.33599388959797566  1.0000
  H   H165      1.0  0.6251024650078902  0.48777301863975003  0.3622158811952398  1.0000
  H   H166      1.0  0.7227130488503036  0.5225156186343695  0.4214127135459916  1.0000
  H   H167      1.0  0.653376732205089  0.48205391614920867  0.4384626994687966  1.0000
  H   H168      1.0  0.697908361853012  0.5425431879458724  0.46815256894143104  1.0000
  N   N11       1.0  0.34556615976613153  0.23124958618508346  0.6007022659530913  1.0000
  C   C113      1.0  0.29197595920728353  0.18321873335908284  0.5922483593258052  1.0000
  C   C114      1.0  0.37011698173416  0.2203015617826036  0.6395108138998427  1.0000
  C   C115      1.0  0.3393140483561406  0.2781602213743729  0.6100463339440502  1.0000
  C   C116      1.0  0.3812425267753348  0.2432765831747036  0.5611824291710479  1.0000
  H   H169      1.0  0.27205136967578153  0.18988809110055338  0.5631711583950313  1.0000
  H   H170      1.0  0.26430604182597905  0.1727433258057734  0.6216476122816696  1.0000
  H   H171      1.0  0.29589683012054246  0.14737512767695315  0.5850329338090261  1.0000
  H   H172      1.0  0.41150853206346616  0.25487609855078996  0.6455490792365819  1.0000
  H   H173      1.0  0.34560832254561075  0.2131000399649636  0.6704705691715632  1.0000
  H   H174      1.0  0.37385987837231643  0.18408802605634741  0.6343397899329279  1.0000
  H   H175      1.0  0.3141473624674903  0.2713114235071269  0.6405989531238051  1.0000
  H   H176      1.0  0.3199051800697945  0.2871285062995732  0.5818819782714457  1.0000
  H   H177      1.0  0.3794347422689473  0.3151225722185848  0.6156761984530895  1.0000
  H   H178      1.0  0.42172024622185533  0.27994422674667946  0.5662391500525875  1.0000
  H   H179      1.0  0.36348398146560745  0.2504527422614205  0.5308900334715515  1.0000
  H   H180      1.0  0.38830153027300834  0.2093543814728683  0.5540819316638075  1.0000
  N   N12       1.0  0.44617536973834426  0.5504532529165873  0.08762673924341469  1.0000
  C   C117      1.0  0.4012378653480881  0.5349967602473956  0.05611303802763161  1.0000
  C   C118      1.0  0.45503341817396115  0.5046781676143612  0.09487148565499638  1.0000
  C   C119      1.0  0.43233304923428645  0.5655493736399125  0.1305404389830604  1.0000
  C   C120      1.0  0.4963424354375716  0.5969386969318136  0.06909442907588358  1.0000
  H   H181      1.0  0.3923436215364049  0.5681659838465306  0.0514669972882693  1.0000
  H   H182      1.0  0.36309403925740696  0.49892731596330875  0.06826348445215202  1.0000
  H   H183      1.0  0.4111789366455564  0.5259916444600697  0.02254694085066466  1.0000
  H   H184      1.0  0.48864110311705433  0.5153971738214729  0.11873262625865558  1.0000
  H   H185      1.0  0.4180131230129583  0.4687615368516788  0.1088534768029632  1.0000
  H   H186      1.0  0.4659281896849097  0.49260104661163134  0.06314039795632327  1.0000
  H   H187      1.0  0.4232224955377371  0.598582144093357  0.12575429326057497  1.0000
  H   H188      1.0  0.46651955139244766  0.5801430034575367  0.15444375065651833  1.0000
  H   H189      1.0  0.39591989897710667  0.5309313745606788  0.14651519493004156  1.0000
  H   H190      1.0  0.53159734934237  0.6085054999921337  0.09115697546792319  1.0000
  H   H191      1.0  0.49197862397554365  0.6329196210169112  0.06553385798325963  1.0000
  H   H192      1.0  0.5067036617709371  0.588390538378407  0.03556338346360443  1.0000
