data_image0
_chemical_formula_structural       FeS2FeS2FeSFeS3FeSCHSFeHFeSFeSFeS2FeS2CFeS3CH6CHCHCH2C6H4C6H4CHCHCH4C3H3CH3C2H2CH3CH5C2NH2CH2CH2FeH5NHCNHNHNH6CH5SH3C2H2CHC2NH4C4S2H2CHCHCHCFeHSFeHSFeC2S2HFe2SHFeS2FeSFeS3H3CS2CH2C8H4C3HSH3C3H2CHC2NH5CHSHNCHC2H7NCH3CHCH4CH2S2CH2C3H4C2SHCH3C2H2CHCH3C2HSHCFeH2CSFeCSFeS2FeHFeCS2HSH4C8H8C2SH3C3H6CH2CSH4SC2HCH3CHC2H2C2H5CH2NCH2NH2NCH4C2H3NSNH2CHCHCNC3SH3CSH3CHCFeS2FeSCFeSFeS2NSHFeSHFeSCHCH5CSHC2HC2H2C6H4SH6CHCHCHSH2CH2C6H2CH4CHNCHNCH2CS2HCHSH2C2H3CH3CNHC2H5CHFeNH2SFe2S3HSCSFeC2HSH4CHCFeH8C2H6CH3C3H2CH2CH2CH3CFeHCH4CSCNSCFeH2SH6CFeC2H2CSC2H2SCSC2H2C2HSCFeCSNH2CHC2HCHCHCHC3HC2SH2C3FeS3FeS2FeS2CSCHSHFeSFeSC7H7FeH2C6H7C4HNH5CHSNC4H12CH3C2H2CHCHCH2FeH5C2HFe2CHNHSCHCH3CNCH2FeH8CHCSHS2NHC2H2CH2CHFeS2FeS2HFeS3FeS2FeS2FeSFeHS5HFeCHFeSFeSC3NHSH2C2H3C6H4C6H4C6H4CH2C2H2CNHCH4CFeHCNC3H5CH4C4HCHC2NC4H12CH2CH3CFeHNH7NH5C2H2C2H8CHCH2CH3SFeS2FeSFeS4H2CSFeS2FeS2FeS2FeSFeHS2C6H4CHFeC3H10C7H4C4H3CHSNCH3CNC2HC2H3CHCHCHCHNSH3CH2C3H5CH4NHCH2C3H2CFeCHC2H4NH6CH3C2H3CH2C2H6CFeSFeS2FeSFeS3CFeS2FeS2FeHFeS3C2SFeS2CNH2C7H4C2HCH3CSH2C2HC2HCNC6H4CHSC4H9CH4NC2H7CSCH2CH2CNC4H13CH2CNH3C2HCHFeCHCH4CHC2H9CH3SFeS2FeSHFeSFeS3FeS2CSFeSFeS3FeS2Fe2H2S2HCHCHC2H2C6H4CH4FeHCH4C6H4C6H3C3NCHC2H3C2H4NC2H6CH3CH2NCH4CH4CHNCH2FeC2HCH8SH2CH3CHC2NS2HCSHSHFeSCS2Fe2S2FeH2S2FeS2FeS2HC6H6C6H5CH4C2NHCH2C2FeHCH2NSCHCH3CH2SHCHFeNC4H12FeC2HC2HCH2FeHSCHC2HCH10SH7NCH3CH7SH2SFeSFeS2H2SFeS2FeSFeS4HC2H2CH3CHCHC3H5C8H8C4H2CHCH4CFeH4CHNC2HC2H3CH2CHSCNSHCH2C2H2FeCH6FeC2H4CH2C2H3CHC2SFeSHFeS2FeSFeS3CHFeHFeHSCH6CH4CHSHC4H2C6H5C2HC2HC2H2NH2NC4H12NCSHSH2SH3C2HCH3C3HSC4HNCSCH2NH3CH2SC3HCHCHSC2H3SCSFeSCFeSHFeHFeSCSHCH3C2H6SH5C6H4CHCH3CNH2SHNH5CSH6C2H4C3SHC2SCH2S2C3HCNHCHCHNH3FeCH2SFeSCFeSFeSC2HFeSCFeS2FeSFeS3HS2H3C6H5C2H4SCHCH3C2H3C2HCH2SHCH2CHFeH2SHCH2CH2C2NHNC2HNC4H2FeHCH4CHCH4NCH4CH2CH2SFeHSH3SCH2CH2CH2C2HCSC3SFeHSFeCSFeHCS2FeS2FeS2FeSFeS3FeSCFeSFeSFeS2CH2SCHNC6H6C2HC7H4CH5C2H3CH4C3HSH6SCH3CSCHNC4H13NCHCH2CHNSCHCHCH2C3H2C2H2NH16CH3C2
_chemical_formula_sum              "Fe144 S288 C720 H1152 N72"
_cell_length_a       57.9809
_cell_length_b       57.9053
_cell_length_c       36.861
_cell_angle_alpha    90.2989
_cell_angle_beta     91.8169
_cell_angle_gamma    118.559

_space_group_name_H-M_alt    "P 1"
_space_group_IT_number       1

loop_
  _space_group_symop_operation_xyz
  'x, y, z'

loop_
  _atom_site_type_symbol
  _atom_site_label
  _atom_site_symmetry_multiplicity
  _atom_site_fract_x
  _atom_site_fract_y
  _atom_site_fract_z
  _atom_site_occupancy
  Fe  Fe1       1.0  0.19057  0.10908  0.07780  1.0000
  S   S1        1.0  0.21825  0.14513  0.04774  1.0000
  S   S2        1.0  0.16428  0.06915  0.04977  1.0000
  Fe  Fe2       1.0  0.19834  0.14080  0.14891  1.0000
  S   S3        1.0  0.22614  0.17830  0.12289  1.0000
  S   S4        1.0  0.19398  0.14349  0.21009  1.0000
  Fe  Fe3       1.0  0.19748  0.16462  0.07478  1.0000
  S   S5        1.0  0.18620  0.19473  0.05227  1.0000
  Fe  Fe4       1.0  0.24444  0.15545  0.09880  1.0000
  S   S6        1.0  0.28968  0.17651  0.09959  1.0000
  S   S7        1.0  0.16848  0.12834  0.10253  1.0000
  S   S8        1.0  0.21795  0.11816  0.12717  1.0000
  Fe  Fe5       1.0  0.46208  0.20110  0.15988  1.0000
  S   S9        1.0  0.43355  0.16250  0.18225  1.0000
  C   C1        1.0  0.40790  0.15068  0.07520  1.0000
  H   H1        1.0  0.47463  0.04144  0.44338  1.0000
  S   S10       1.0  0.44163  0.19289  0.26064  1.0000
  Fe  Fe6       1.0  0.46155  0.17371  0.23088  1.0000
  H   H2        1.0  0.47031  0.02859  0.07235  1.0000
  Fe  Fe7       1.0  0.41612  0.18512  0.20928  1.0000
  S   S11       1.0  0.37120  0.16471  0.20848  1.0000
  Fe  Fe8       1.0  0.14261  0.24551  0.38715  1.0000
  S   S12       1.0  0.44331  0.22365  0.18420  1.0000
  Fe  Fe9       1.0  0.12426  0.19590  0.34058  1.0000
  S   S13       1.0  0.16362  0.22492  0.36421  1.0000
  S   S14       1.0  0.11969  0.18250  0.28158  1.0000
  Fe  Fe10      1.0  0.09667  0.19380  0.41170  1.0000
  S   S15       1.0  0.13481  0.22318  0.43992  1.0000
  S   S16       1.0  0.05789  0.16700  0.43833  1.0000
  C   C2        1.0  0.17527  0.24115  0.25665  1.0000
  Fe  Fe11      1.0  0.15221  0.19996  0.41400  1.0000
  S   S17       1.0  0.18147  0.18718  0.43648  1.0000
  S   S18       1.0  0.10334  0.21751  0.36077  1.0000
  S   S19       1.0  0.11405  0.16966  0.38837  1.0000
  C   C3        1.0  0.08612  0.16406  0.03516  1.0000
  H   H3        1.0  0.10695  0.09823  0.34222  1.0000
  H   H4        1.0  0.39846  0.13007  0.06447  1.0000
  H   H5        1.0  0.08873  0.21149  0.02778  1.0000
  H   H6        1.0  0.36150  0.16678  0.04489  1.0000
  H   H7        1.0  0.10549  0.17962  0.02633  1.0000
  H   H8        1.0  0.41842  0.20077  0.07626  1.0000
  C   C4        1.0  0.03901  0.17412  0.46899  1.0000
  H   H9        1.0  0.46995  0.09180  0.05508  1.0000
  C   C5        1.0  0.36811  0.14327  0.10389  1.0000
  H   H10       1.0  0.48607  0.11021  0.38658  1.0000
  C   C6        1.0  0.48641  0.18630  0.04098  1.0000
  H   H11       1.0  0.38835  0.19581  0.09565  1.0000
  H   H12       1.0  0.35265  0.14934  0.10609  1.0000
  C   C7        1.0  0.17378  0.15527  0.22905  1.0000
  C   C8        1.0  0.15429  0.15736  0.20828  1.0000
  C   C9        1.0  0.13777  0.16558  0.22480  1.0000
  C   C10       1.0  0.14082  0.17213  0.26203  1.0000
  C   C11       1.0  0.16078  0.17075  0.28263  1.0000
  C   C12       1.0  0.17702  0.16210  0.26624  1.0000
  H   H13       1.0  0.15160  0.15212  0.17963  1.0000
  H   H14       1.0  0.12245  0.16670  0.20862  1.0000
  H   H15       1.0  0.16360  0.17624  0.31115  1.0000
  H   H16       1.0  0.19223  0.16078  0.28235  1.0000
  C   C13       1.0  0.34931  0.16795  0.17675  1.0000
  C   C14       1.0  0.32326  0.14749  0.17287  1.0000
  C   C15       1.0  0.30503  0.14937  0.14849  1.0000
  C   C16       1.0  0.31242  0.17209  0.12835  1.0000
  C   C17       1.0  0.33862  0.19237  0.13174  1.0000
  C   C18       1.0  0.35695  0.19039  0.15589  1.0000
  H   H17       1.0  0.31718  0.12995  0.18867  1.0000
  H   H18       1.0  0.28518  0.13326  0.14539  1.0000
  H   H19       1.0  0.34459  0.21002  0.11621  1.0000
  H   H20       1.0  0.37684  0.20642  0.15889  1.0000
  C   C19       1.0  0.48684  0.10158  0.41323  1.0000
  H   H21       1.0  0.11330  0.09823  0.40863  1.0000
  C   C20       1.0  0.26754  0.17602  0.25859  1.0000
  H   H22       1.0  0.37653  0.14417  0.13182  1.0000
  C   C21       1.0  0.26317  0.15719  0.19873  1.0000
  H   H23       1.0  0.24161  0.14597  0.20169  1.0000
  H   H24       1.0  0.41789  0.15133  0.10179  1.0000
  H   H25       1.0  0.18404  0.14012  0.39199  1.0000
  H   H26       1.0  0.24389  0.19057  0.20606  1.0000
  C   C22       1.0  0.40210  0.18756  0.09362  1.0000
  C   C23       1.0  0.26573  0.19979  0.20588  1.0000
  C   C24       1.0  0.17343  0.05087  0.02009  1.0000
  H   H27       1.0  0.13633  0.24140  0.29485  1.0000
  H   H28       1.0  0.13889  0.16252  0.48716  1.0000
  H   H29       1.0  0.21196  0.06383  0.04448  1.0000
  C   C25       1.0  0.37623  0.15967  0.04297  1.0000
  H   H30       1.0  0.46687  0.06487  0.46453  1.0000
  H   H31       1.0  0.14582  0.11376  0.42938  1.0000
  H   H32       1.0  0.27629  0.19419  0.27597  1.0000
  C   C26       1.0  0.14758  0.09147  0.36686  1.0000
  C   C27       1.0  0.46141  0.07680  0.03262  1.0000
  H   H33       1.0  0.24575  0.16652  0.26062  1.0000
  H   H34       1.0  0.03452  0.12918  0.02553  1.0000
  C   C28       1.0  0.19238  0.15380  0.47756  1.0000
  H   H35       1.0  0.48143  0.19919  0.02539  1.0000
  H   H36       1.0  0.36582  0.13936  0.03105  1.0000
  H   H37       1.0  0.02291  0.15283  0.02870  1.0000
  C   C29       1.0  0.48019  0.06270  0.44539  1.0000
  H   H38       1.0  0.35813  0.12233  0.09444  1.0000
  H   H39       1.0  0.05943  0.21610  0.46315  1.0000
  H   H40       1.0  0.01476  0.13325  0.48093  1.0000
  H   H41       1.0  0.16853  0.22831  0.01856  1.0000
  H   H42       1.0  0.44562  0.03754  0.39006  1.0000
  C   C30       1.0  0.03942  0.14897  0.03669  1.0000
  C   C31       1.0  0.17054  0.13894  0.36902  1.0000
  N   N1        1.0  0.38858  0.16027  0.07892  1.0000
  H   H43       1.0  0.04003  0.14809  0.06683  1.0000
  H   H44       1.0  0.17296  0.23177  0.28353  1.0000
  C   C32       1.0  0.12684  0.11566  0.34151  1.0000
  H   H45       1.0  0.12613  0.23298  0.24821  1.0000
  H   H46       1.0  0.45053  0.06647  0.36624  1.0000
  C   C33       1.0  0.17484  0.16384  0.47104  1.0000
  H   H47       1.0  0.16877  0.15724  0.37052  1.0000
  H   H48       1.0  0.27400  0.21853  0.22193  1.0000
  Fe  Fe12      1.0  0.47013  0.23010  0.23350  1.0000
  H   H49       1.0  0.42362  0.16308  0.05648  1.0000
  H   H50       1.0  0.27133  0.14401  0.20697  1.0000
  H   H51       1.0  0.44162  0.03289  0.07201  1.0000
  H   H52       1.0  0.05409  0.20026  0.02895  1.0000
  H   H53       1.0  0.48627  0.16596  0.12732  1.0000
  N   N2        1.0  0.47102  0.05735  0.03510  1.0000
  H   H54       1.0  0.41091  0.18860  0.12124  1.0000
  C   C34       1.0  0.48282  0.18450  0.07861  1.0000
  N   N3        1.0  0.47906  0.07333  0.40936  1.0000
  H   H55       1.0  0.43775  0.06090  0.41100  1.0000
  N   N4        1.0  0.06461  0.16951  0.02326  1.0000
  H   H56       1.0  0.20955  0.16035  0.46135  1.0000
  N   N5        1.0  0.14457  0.11529  0.37100  1.0000
  H   H57       1.0  0.18006  0.13923  0.34319  1.0000
  H   H58       1.0  0.16109  0.09073  0.38846  1.0000
  H   H59       1.0  0.12837  0.07324  0.36863  1.0000
  H   H60       1.0  0.26635  0.16109  0.16934  1.0000
  H   H61       1.0  0.31191  0.18142  0.22822  1.0000
  H   H62       1.0  0.13469  0.11579  0.31425  1.0000
  C   C35       1.0  0.19752  0.05091  0.02429  1.0000
  H   H63       1.0  0.13223  0.13345  0.41162  1.0000
  H   H64       1.0  0.12429  0.13349  0.34355  1.0000
  H   H65       1.0  0.31389  0.21310  0.23531  1.0000
  H   H66       1.0  0.39114  0.17241  0.02353  1.0000
  H   H67       1.0  0.47192  0.05742  0.09343  1.0000
  S   S20       1.0  0.47341  0.14341  0.25020  1.0000
  H   H68       1.0  0.31029  0.19979  0.19018  1.0000
  H   H69       1.0  0.15574  0.09081  0.34014  1.0000
  H   H70       1.0  0.27411  0.16231  0.27017  1.0000
  C   C36       1.0  0.30408  0.19463  0.21859  1.0000
  C   C37       1.0  0.13343  0.11510  0.40662  1.0000
  H   H71       1.0  0.08336  0.14511  0.02338  1.0000
  H   H72       1.0  0.47386  0.10493  0.43166  1.0000
  C   C38       1.0  0.15260  0.15503  0.49192  1.0000
  H   H73       1.0  0.08758  0.16313  0.06523  1.0000
  C   C39       1.0  0.46335  0.04348  0.06981  1.0000
  C   C40       1.0  0.04353  0.19974  0.47604  1.0000
  N   N6        1.0  0.27515  0.18194  0.22050  1.0000
  H   H74       1.0  0.27141  0.20479  0.17720  1.0000
  H   H75       1.0  0.16323  0.22514  0.23647  1.0000
  H   H76       1.0  0.07130  0.19633  0.06790  1.0000
  H   H77       1.0  0.43756  0.02816  0.00393  1.0000
  C   C41       1.0  0.45202  0.05891  0.39347  1.0000
  C   C42       1.0  0.06993  0.19553  0.03772  1.0000
  C   C43       1.0  0.45940  0.03806  0.00458  1.0000
  C   C44       1.0  0.01820  0.15309  0.48597  1.0000
  S   S21       1.0  0.47016  0.20343  0.09973  1.0000
  S   S22       1.0  0.49135  0.21100  0.20630  1.0000
  H   H78       1.0  0.46525  0.02237  0.00659  1.0000
  H   H79       1.0  0.15631  0.14972  0.00240  1.0000
  C   C45       1.0  0.16448  0.18939  0.01426  1.0000
  H   H80       1.0  0.46715  0.08773  0.00686  1.0000
  C   C46       1.0  0.15916  0.20974  0.00364  1.0000
  H   H81       1.0  0.22084  0.03297  0.00765  1.0000
  C   C47       1.0  0.20247  0.03333  0.00343  1.0000
  H   H82       1.0  0.43964  0.06725  0.03360  1.0000
  C   C48       1.0  0.48933  0.16778  0.09847  1.0000
  Fe  Fe13      1.0  0.05697  0.21431  0.84502  1.0000
  H   H83       1.0  0.05943  0.15051  0.97089  1.0000
  S   S23       1.0  0.04110  0.21465  0.78774  1.0000
  Fe  Fe14      1.0  0.09127  0.20439  0.90138  1.0000
  H   H84       1.0  0.14547  0.00355  0.95255  1.0000
  S   S24       1.0  0.10845  0.17737  0.91576  1.0000
  Fe  Fe15      1.0  0.04896  0.21618  0.92705  1.0000
  C   C49       1.0  0.15235  0.16552  0.99462  1.0000
  C   C50       1.0  0.05642  0.18639  0.64289  1.0000
  S   S25       1.0  0.04737  0.18479  0.88948  1.0000
  S   S26       1.0  0.48509  0.10136  0.93275  1.0000
  H   H85       1.0  0.00490  0.14515  0.58749  1.0000
  Fe  Fe16      1.0  0.41058  0.23959  0.70725  1.0000
  Fe  Fe17      1.0  0.19944  0.04311  0.56817  1.0000
  S   S27       1.0  0.16794  0.04492  0.60021  1.0000
  H   H86       1.0  0.20128  0.12748  0.50940  1.0000
  Fe  Fe18      1.0  0.24221  0.09834  0.59735  1.0000
  S   S28       1.0  0.21314  0.10308  0.63091  1.0000
  S   S29       1.0  0.28483  0.13093  0.59273  1.0000
  Fe  Fe19      1.0  0.19838  0.06077  0.64614  1.0000
  S   S30       1.0  0.19760  0.04949  0.70544  1.0000
  Fe  Fe20      1.0  0.18583  0.08701  0.58149  1.0000
  S   S31       1.0  0.16055  0.10558  0.56323  1.0000
  S   S32       1.0  0.22920  0.05704  0.61510  1.0000
  S   S33       1.0  0.21554  0.08422  0.54673  1.0000
  H   H87       1.0  0.00002  0.15344  0.95223  1.0000
  H   H88       1.0  0.02338  0.13613  0.66135  1.0000
  H   H89       1.0  0.24260  0.16530  0.53166  1.0000
  C   C51       1.0  0.15482  0.03376  0.99390  1.0000
  S   S34       1.0  0.36666  0.21134  0.71287  1.0000
  S   S35       1.0  0.43779  0.22875  0.67851  1.0000
  C   C52       1.0  0.17511  0.02138  0.72894  1.0000
  H   H90       1.0  0.02455  0.20214  0.60802  1.0000
  H   H91       1.0  0.03559  0.17207  0.57507  1.0000
  C   C53       1.0  0.48472  0.20705  0.78340  1.0000
  C   C54       1.0  0.18785  0.13529  0.50487  1.0000
  C   C55       1.0  0.34438  0.18873  0.67924  1.0000
  C   C56       1.0  0.35169  0.18800  0.64361  1.0000
  C   C57       1.0  0.33329  0.17003  0.61772  1.0000
  C   C58       1.0  0.30746  0.15229  0.62710  1.0000
  C   C59       1.0  0.30023  0.15279  0.66285  1.0000
  C   C60       1.0  0.31853  0.17100  0.68864  1.0000
  H   H92       1.0  0.37145  0.20148  0.63585  1.0000
  H   H93       1.0  0.33914  0.16989  0.59017  1.0000
  H   H94       1.0  0.28047  0.13929  0.67060  1.0000
  H   H95       1.0  0.31253  0.17140  0.71602  1.0000
  C   C61       1.0  0.15995  0.01652  0.97263  1.0000
  C   C62       1.0  0.18325  0.01586  0.76262  1.0000
  C   C63       1.0  0.01583  0.18726  0.62951  1.0000
  H   H96       1.0  0.33592  0.13534  0.76907  1.0000
  S   S36       1.0  0.10079  0.23073  0.85292  1.0000
  H   H97       1.0  0.44168  0.14141  0.78633  1.0000
  H   H98       1.0  0.44968  0.18147  0.75214  1.0000
  H   H99       1.0  0.44126  0.00283  0.66973  1.0000
  C   C64       1.0  0.16602  0.12710  0.52651  1.0000
  C   C65       1.0  0.47565  0.16153  0.82246  1.0000
  C   C66       1.0  0.01518  0.14999  0.65960  1.0000
  H   H100      1.0  0.42154  0.00840  0.63582  1.0000
  H   H101      1.0  0.06647  0.17415  0.64505  1.0000
  C   C67       1.0  0.26126  0.17833  0.62097  1.0000
  H   H102      1.0  0.13135  0.13062  0.53618  1.0000
  C   C68       1.0  0.01325  0.18902  0.76495  1.0000
  C   C69       1.0  0.13014  0.18258  0.95375  1.0000
  N   N7        1.0  0.37775  0.16034  0.77591  1.0000
  H   H103      1.0  0.05894  0.19635  0.66980  1.0000
  H   H104      1.0  0.25869  0.18963  0.64353  1.0000
  H   H105      1.0  0.39339  0.19093  0.81730  1.0000
  H   H106      1.0  0.01755  0.15900  0.68714  1.0000
  H   H107      1.0  0.41707  0.19208  0.78605  1.0000
  C   C70       1.0  0.14835  0.13691  0.51967  1.0000
  H   H108      1.0  0.13842  0.22230  0.96553  1.0000
  S   S37       1.0  0.02060  0.20926  0.97278  1.0000
  H   H109      1.0  0.34680  0.16950  0.76192  1.0000
  N   N8        1.0  0.02832  0.17023  0.63213  1.0000
  C   C71       1.0  0.46267  0.18285  0.77469  1.0000
  H   H110      1.0  0.03500  0.14424  0.59724  1.0000
  C   C72       1.0  0.21960  0.16952  0.59251  1.0000
  C   C73       1.0  0.00602  0.18306  0.51574  1.0000
  H   H111      1.0  0.04710  0.17376  0.97318  1.0000
  H   H112      1.0  0.06691  0.20191  0.62276  1.0000
  H   H113      1.0  0.03048  0.22400  0.50411  1.0000
  H   H114      1.0  0.14549  0.00637  0.51417  1.0000
  H   H115      1.0  0.12634  0.14375  0.94922  1.0000
  H   H116      1.0  0.28275  0.18620  0.61770  1.0000
  H   H117      1.0  0.37795  0.14360  0.82780  1.0000
  N   N9        1.0  0.24795  0.17978  0.58684  1.0000
  C   C74       1.0  0.25142  0.16386  0.55820  1.0000
  H   H118      1.0  0.40229  0.14495  0.79788  1.0000
  H   H119      1.0  0.20994  0.14847  0.60012  1.0000
  H   H120      1.0  0.25745  0.22002  0.59665  1.0000
  C   C75       1.0  0.14205  0.20637  0.97361  1.0000
  H   H121      1.0  0.40292  0.15986  0.73456  1.0000
  C   C76       1.0  0.00190  0.15753  0.50940  1.0000
  H   H122      1.0  0.38015  0.17080  0.71971  1.0000
  H   H123      1.0  0.20268  0.02906  0.77394  1.0000
  H   H124      1.0  0.08168  0.18498  0.97245  1.0000
  H   H125      1.0  0.13623  0.03376  0.99022  1.0000
  C   C77       1.0  0.18355  0.01574  0.97793  1.0000
  H   H126      1.0  0.28094  0.21569  0.57077  1.0000
  H   H127      1.0  0.01798  0.19797  0.65558  1.0000
  S   S38       1.0  0.05540  0.24451  0.88193  1.0000
  S   S39       1.0  0.09250  0.23485  0.94048  1.0000
  C   C78       1.0  0.25959  0.20743  0.57555  1.0000
  H   H128      1.0  0.20904  0.17073  0.56744  1.0000
  H   H129      1.0  0.24200  0.14271  0.56526  1.0000
  C   C79       1.0  0.45826  0.16021  0.79401  1.0000
  C   C80       1.0  0.13535  0.16220  0.96447  1.0000
  C   C81       1.0  0.38260  0.15668  0.73769  1.0000
  H   H130      1.0  0.21616  0.18062  0.61450  1.0000
  H   H131      1.0  0.24989  0.20921  0.54992  1.0000
  H   H132      1.0  0.27259  0.17019  0.55441  1.0000
  H   H133      1.0  0.34601  0.15810  0.80715  1.0000
  C   C82       1.0  0.14979  0.00430  0.71488  1.0000
  C   C83       1.0  0.02587  0.15733  0.59645  1.0000
  S   S40       1.0  0.46986  0.13223  0.84474  1.0000
  H   H134      1.0  0.25347  0.15767  0.62973  1.0000
  C   C84       1.0  0.35043  0.15556  0.77871  1.0000
  H   H135      1.0  0.99367  0.13811  0.65325  1.0000
  H   H136      1.0  0.36867  0.13656  0.72705  1.0000
  H   H137      1.0  0.36841  0.12086  0.78985  1.0000
  C   C85       1.0  0.38175  0.14158  0.79885  1.0000
  C   C86       1.0  0.39622  0.18752  0.78845  1.0000
  H   H138      1.0  0.00957  0.15822  0.80058  1.0000
  H   H139      1.0  0.39339  0.20215  0.77214  1.0000
  C   C87       1.0  0.00182  0.16301  0.77637  1.0000
  H   H140      1.0  0.21809  0.00671  0.65484  1.0000
  C   C88       1.0  0.99426  0.17946  0.98821  1.0000
  H   H141      1.0  0.99442  0.17560  0.62248  1.0000
  H   H142      1.0  0.14292  0.00872  0.68962  1.0000
  H   H143      1.0  0.17624  0.00684  0.65091  1.0000
  C   C89       1.0  0.00310  0.19493  0.73333  1.0000
  C   C90       1.0  0.06301  0.16960  0.98321  1.0000
  H   H144      1.0  0.01175  0.21501  0.72440  1.0000
  S   S41       1.0  0.19372  0.00563  0.53900  1.0000
  H   H145      1.0  0.46588  0.04756  0.97790  1.0000
  C   C91       1.0  0.02705  0.20414  0.49924  1.0000
  Fe  Fe21      1.0  0.46579  0.24805  0.72671  1.0000
  H   H146      1.0  0.11298  0.40259  0.38791  1.0000
  H   H147      1.0  0.14503  0.42714  0.40437  1.0000
  C   C92       1.0  0.13821  0.37916  0.42107  1.0000
  S   S42       1.0  0.16357  0.29059  0.38369  1.0000
  Fe  Fe22      1.0  0.16664  0.45627  0.22847  1.0000
  C   C93       1.0  0.03410  0.46667  0.45206  1.0000
  S   S43       1.0  0.13856  0.46367  0.19148  1.0000
  Fe  Fe23      1.0  0.17623  0.41189  0.26066  1.0000
  S   S44       1.0  0.21327  0.44113  0.29064  1.0000
  S   S45       1.0  0.15666  0.36684  0.26340  1.0000
  Fe  Fe24      1.0  0.18971  0.46127  0.30585  1.0000
  H   H148      1.0  0.45607  0.30389  0.40968  1.0000
  Fe  Fe25      1.0  0.22243  0.46491  0.23962  1.0000
  C   C94       1.0  0.16031  0.49617  0.36480  1.0000
  S   S46       1.0  0.15240  0.43107  0.27789  1.0000
  S   S47       1.0  0.18702  0.43423  0.20811  1.0000
  H   H149      1.0  0.21904  0.45344  0.09971  1.0000
  S   S48       1.0  0.47715  0.34875  0.35700  1.0000
  H   H150      1.0  0.18320  0.42003  0.39851  1.0000
  H   H151      1.0  0.18304  0.47917  0.44058  1.0000
  H   H152      1.0  0.43905  0.27414  0.43459  1.0000
  H   H153      1.0  0.17962  0.48727  0.11319  1.0000
  C   C95       1.0  0.07265  0.47101  0.42284  1.0000
  C   C96       1.0  0.12866  0.37060  0.35665  1.0000
  C   C97       1.0  0.16087  0.31150  0.35044  1.0000
  C   C98       1.0  0.18019  0.33816  0.35027  1.0000
  C   C99       1.0  0.17926  0.35535  0.32391  1.0000
  C   C100      1.0  0.15885  0.34612  0.29740  1.0000
  C   C101      1.0  0.13944  0.31950  0.29768  1.0000
  C   C102      1.0  0.14030  0.30234  0.32418  1.0000
  H   H154      1.0  0.19621  0.34548  0.37043  1.0000
  H   H155      1.0  0.19451  0.37565  0.32381  1.0000
  H   H156      1.0  0.12344  0.31216  0.27748  1.0000
  H   H157      1.0  0.12499  0.28207  0.32442  1.0000
  H   H158      1.0  0.19044  0.28223  0.21244  1.0000
  H   H159      1.0  0.04410  0.47197  0.47952  1.0000
  H   H160      1.0  0.18107  0.46429  0.14424  1.0000
  H   H161      1.0  0.33534  0.42854  0.21463  1.0000
  C   C103      1.0  0.46689  0.28784  0.29072  1.0000
  C   C104      1.0  0.46275  0.30614  0.31107  1.0000
  S   S49       1.0  0.19016  0.47023  0.36619  1.0000
  H   H162      1.0  0.45080  0.27231  0.27503  1.0000
  H   H163      1.0  0.44334  0.30446  0.31100  1.0000
  H   H164      1.0  0.34877  0.49435  0.25075  1.0000
  C   C105      1.0  0.29076  0.45489  0.14857  1.0000
  C   C106      1.0  0.27464  0.45903  0.17276  1.0000
  C   C107      1.0  0.18340  0.28244  0.28419  1.0000
  H   H165      1.0  0.28571  0.43503  0.14017  1.0000
  H   H166      1.0  0.25732  0.44247  0.18279  1.0000
  H   H167      1.0  0.08410  0.47567  0.44915  1.0000
  H   H168      1.0  0.33412  0.44610  0.17547  1.0000
  H   H169      1.0  0.08718  0.48089  0.40150  1.0000
  H   H170      1.0  0.22253  0.45943  0.14798  1.0000
  C   C108      1.0  0.37662  0.49232  0.19501  1.0000
  H   H171      1.0  0.10572  0.47578  0.14408  1.0000
  H   H172      1.0  0.02460  0.44491  0.44875  1.0000
  C   C109      1.0  0.16970  0.27304  0.22084  1.0000
  S   S50       1.0  0.38534  0.48974  0.03132  1.0000
  H   H173      1.0  0.21772  0.48734  0.05892  1.0000
  H   H174      1.0  0.32706  0.45950  0.25260  1.0000
  H   H175      1.0  0.16349  0.28853  0.22031  1.0000
  H   H176      1.0  0.01817  0.47219  0.45194  1.0000
  S   S51       1.0  0.33468  0.46974  0.10841  1.0000
  C   C110      1.0  0.17301  0.48724  0.42398  1.0000
  C   C111      1.0  0.18807  0.47379  0.11770  1.0000
  H   H177      1.0  0.47711  0.28319  0.37486  1.0000
  C   C112      1.0  0.17165  0.40370  0.37853  1.0000
  H   H178      1.0  0.13821  0.42098  0.35667  1.0000
  H   H179      1.0  0.14469  0.36391  0.42308  1.0000
  H   H180      1.0  0.10706  0.36126  0.35981  1.0000
  C   C113      1.0  0.47880  0.27342  0.39994  1.0000
  H   H181      1.0  0.17921  0.38934  0.38054  1.0000
  C   C114      1.0  0.03831  0.47385  0.38760  1.0000
  C   C115      1.0  0.34743  0.44554  0.19743  1.0000
  H   H182      1.0  0.45848  0.30502  0.45834  1.0000
  H   H183      1.0  0.16039  0.49506  0.33550  1.0000
  C   C116      1.0  0.33991  0.47560  0.23458  1.0000
  C   C117      1.0  0.31358  0.47617  0.13565  1.0000
  H   H184      1.0  0.02806  0.45231  0.38153  1.0000
  H   H185      1.0  0.11693  0.36951  0.42682  1.0000
  H   H186      1.0  0.06351  0.44941  0.41788  1.0000
  H   H187      1.0  0.13425  0.35470  0.35781  1.0000
  H   H188      1.0  0.36532  0.45223  0.26689  1.0000
  C   C118      1.0  0.48350  0.32660  0.33128  1.0000
  H   H189      1.0  0.32689  0.47717  0.21302  1.0000
  H   H190      1.0  0.14899  0.39419  0.44298  1.0000
  N   N10       1.0  0.16688  0.26156  0.25721  1.0000
  C   C119      1.0  0.13437  0.41126  0.38344  1.0000
  H   H191      1.0  0.36211  0.44148  0.18406  1.0000
  H   H192      1.0  0.13278  0.37881  0.32887  1.0000
  N   N11       1.0  0.14321  0.39117  0.38491  1.0000
  H   H193      1.0  0.17603  0.41236  0.35108  1.0000
  H   H194      1.0  0.17849  0.29881  0.28398  1.0000
  N   N12       1.0  0.36024  0.47050  0.21885  1.0000
  C   C120      1.0  0.28126  0.48457  0.18431  1.0000
  H   H195      1.0  0.17933  0.45809  0.09621  1.0000
  H   H196      1.0  0.02314  0.48049  0.38696  1.0000
  H   H197      1.0  0.39256  0.46465  0.23734  1.0000
  H   H198      1.0  0.48438  0.28647  0.49084  1.0000
  C   C121      1.0  0.22735  0.46914  0.12124  1.0000
  C   C122      1.0  0.17329  0.48559  0.38593  1.0000
  H   H199      1.0  0.20464  0.29105  0.27871  1.0000
  H   H200      1.0  0.46416  0.25565  0.46759  1.0000
  H   H201      1.0  0.05184  0.48374  0.36522  1.0000
  N   N13       1.0  0.48085  0.28911  0.43287  1.0000
  S   S52       1.0  0.20230  0.48790  0.25791  1.0000
  N   N14       1.0  0.05275  0.48007  0.42315  1.0000
  H   H202      1.0  0.13173  0.26416  0.26660  1.0000
  H   H203      1.0  0.48545  0.46925  0.04216  1.0000
  C   C123      1.0  0.45757  0.29317  0.43396  1.0000
  H   H204      1.0  0.18061  0.27478  0.31232  1.0000
  C   C124      1.0  0.14523  0.49245  0.16699  1.0000
  H   H205      1.0  0.24914  0.47913  0.11972  1.0000
  C   C125      1.0  0.48604  0.48006  0.01803  1.0000
  N   N15       1.0  0.21710  0.48800  0.11720  1.0000
  C   C126      1.0  0.48222  0.27497  0.46549  1.0000
  C   C127      1.0  0.37703  0.46851  0.24835  1.0000
  C   C128      1.0  0.12512  0.49273  0.14490  1.0000
  S   S53       1.0  0.26239  0.49116  0.21558  1.0000
  H   H206      1.0  0.46117  0.25362  0.40000  1.0000
  H   H207      1.0  0.15741  0.25777  0.19990  1.0000
  H   H208      1.0  0.39172  0.48879  0.18183  1.0000
  C   C129      1.0  0.47201  0.49430  0.01665  1.0000
  S   S54       1.0  0.45500  0.49540  0.05544  1.0000
  H   H209      1.0  0.19619  0.24938  0.24954  1.0000
  H   H210      1.0  0.38702  0.48700  0.26508  1.0000
  H   H211      1.0  0.36456  0.49471  0.17281  1.0000
  C   C130      1.0  0.13906  0.24957  0.26710  1.0000
  H   H212      1.0  0.22092  0.49816  0.17411  1.0000
  C   C131      1.0  0.49192  0.28993  0.29030  1.0000
  Fe  Fe26      1.0  0.26605  0.46531  0.81130  1.0000
  S   S55       1.0  0.27146  0.43437  0.78175  1.0000
  S   S56       1.0  0.45763  0.27719  0.59492  1.0000
  Fe  Fe27      1.0  0.23706  0.47303  0.74533  1.0000
  S   S57       1.0  0.23984  0.44184  0.71217  1.0000
  C   C132      1.0  0.45374  0.42629  0.90137  1.0000
  Fe  Fe28      1.0  0.22908  0.41812  0.76352  1.0000
  S   S58       1.0  0.20251  0.37345  0.76544  1.0000
  Fe  Fe29      1.0  0.28185  0.46115  0.73372  1.0000
  S   S59       1.0  0.31545  0.46712  0.69727  1.0000
  S   S60       1.0  0.22312  0.44803  0.79483  1.0000
  N   N16       1.0  0.47029  0.41815  0.88086  1.0000
  S   S61       1.0  0.12534  0.30474  0.88908  1.0000
  H   H213      1.0  0.23635  0.42035  0.90475  1.0000
  Fe  Fe30      1.0  0.45481  0.26966  0.65569  1.0000
  S   S62       1.0  0.42609  0.27929  0.68230  1.0000
  H   H214      1.0  0.43815  0.38988  0.84690  1.0000
  Fe  Fe31      1.0  0.45587  0.29533  0.72915  1.0000
  S   S63       1.0  0.46743  0.33675  0.75075  1.0000
  C   C133      1.0  0.08374  0.31320  0.82054  1.0000
  H   H215      1.0  0.03479  0.28755  0.79074  1.0000
  C   C134      1.0  0.47956  0.30748  0.57586  1.0000
  H   H216      1.0  0.06913  0.32304  0.75495  1.0000
  H   H217      1.0  0.24987  0.36153  0.85399  1.0000
  H   H218      1.0  0.29630  0.49517  0.61868  1.0000
  H   H219      1.0  0.27798  0.42144  0.85720  1.0000
  H   H220      1.0  0.48439  0.34354  0.50029  1.0000
  C   C135      1.0  0.30582  0.48871  0.89377  1.0000
  S   S64       1.0  0.09680  0.49186  0.52591  1.0000
  H   H221      1.0  0.08061  0.30185  0.84591  1.0000
  C   C136      1.0  0.15739  0.48157  0.63575  1.0000
  C   C137      1.0  0.45448  0.34552  0.61274  1.0000
  H   H222      1.0  0.46608  0.38432  0.85071  1.0000
  C   C138      1.0  0.16077  0.46121  0.65137  1.0000
  C   C139      1.0  0.18063  0.46673  0.67832  1.0000
  H   H223      1.0  0.14783  0.44106  0.64271  1.0000
  H   H224      1.0  0.18292  0.45090  0.69028  1.0000
  C   C140      1.0  0.18102  0.35474  0.80001  1.0000
  C   C141      1.0  0.17123  0.32731  0.80009  1.0000
  C   C142      1.0  0.15455  0.31177  0.82737  1.0000
  C   C143      1.0  0.14717  0.32343  0.85478  1.0000
  C   C144      1.0  0.15702  0.35088  0.85476  1.0000
  C   C145      1.0  0.17370  0.36642  0.82748  1.0000
  H   H225      1.0  0.17680  0.31804  0.77905  1.0000
  H   H226      1.0  0.14738  0.29074  0.82712  1.0000
  H   H227      1.0  0.15140  0.36014  0.87575  1.0000
  H   H228      1.0  0.18077  0.38743  0.82756  1.0000
  S   S65       1.0  0.13221  0.47371  0.60191  1.0000
  H   H229      1.0  0.03936  0.26340  0.76554  1.0000
  H   H230      1.0  0.43814  0.34830  0.60083  1.0000
  H   H231      1.0  0.07293  0.32463  0.82260  1.0000
  H   H232      1.0  0.01131  0.47190  0.94711  1.0000
  H   H233      1.0  0.21693  0.35665  0.85535  1.0000
  H   H234      1.0  0.43755  0.42586  0.88384  1.0000
  C   C146      1.0  0.19734  0.49273  0.68978  1.0000
  H   H235      1.0  0.11108  0.29405  0.78356  1.0000
  C   C147      1.0  0.47284  0.31428  0.54208  1.0000
  H   H236      1.0  0.45415  0.30113  0.52869  1.0000
  C   C148      1.0  0.35617  0.49384  0.65158  1.0000
  H   H237      1.0  0.28060  0.42527  0.90544  1.0000
  S   S66       1.0  0.43758  0.25652  0.75730  1.0000
  H   H238      1.0  0.22722  0.46684  0.64974  1.0000
  H   H239      1.0  0.47896  0.33541  0.66792  1.0000
  C   C149      1.0  0.04660  0.27709  0.78958  1.0000
  H   H240      1.0  0.21986  0.48868  0.62370  1.0000
  H   H241      1.0  0.25305  0.36630  0.92176  1.0000
  C   C150      1.0  0.27401  0.41035  0.88286  1.0000
  C   C151      1.0  0.23793  0.37189  0.85416  1.0000
  C   C152      1.0  0.45404  0.39114  0.86591  1.0000
  C   C153      1.0  0.49059  0.35278  0.78724  1.0000
  C   C154      1.0  0.23168  0.47814  0.62424  1.0000
  C   C155      1.0  0.47823  0.39012  0.63633  1.0000
  H   H242      1.0  0.10507  0.32751  0.82017  1.0000
  H   H243      1.0  0.22029  0.36213  0.92178  1.0000
  C   C156      1.0  0.48702  0.35661  0.66159  1.0000
  H   H244      1.0  0.22441  0.46375  0.60105  1.0000
  H   H245      1.0  0.46700  0.43674  0.83203  1.0000
  H   H246      1.0  0.08769  0.26969  0.81216  1.0000
  H   H247      1.0  0.23200  0.41468  0.85665  1.0000
  C   C157      1.0  0.00409  0.48190  0.96460  1.0000
  H   H248      1.0  0.46922  0.35044  0.59148  1.0000
  N   N17       1.0  0.24585  0.39099  0.88489  1.0000
  C   C158      1.0  0.48992  0.33817  0.52589  1.0000
  H   H249      1.0  0.10130  0.32585  0.75322  1.0000
  N   N18       1.0  0.07501  0.29566  0.78799  1.0000
  C   C159      1.0  0.49125  0.41883  0.90543  1.0000
  H   H250      1.0  0.20880  0.39101  0.88630  1.0000
  H   H251      1.0  0.44474  0.41324  0.92468  1.0000
  C   C160      1.0  0.08978  0.28079  0.78680  1.0000
  S   S67       1.0  0.48552  0.28803  0.70078  1.0000
  S   S68       1.0  0.27965  0.49336  0.76495  1.0000
  H   H252      1.0  0.28664  0.40075  0.88405  1.0000
  C   C161      1.0  0.08000  0.31157  0.75506  1.0000
  H   H253      1.0  0.45427  0.36806  0.69800  1.0000
  S   S69       1.0  0.27442  0.47022  0.87231  1.0000
  H   H254      1.0  0.44459  0.37685  0.88785  1.0000
  H   H255      1.0  0.48303  0.40504  0.92821  1.0000
  C   C162      1.0  0.23001  0.40479  0.88310  1.0000
  C   C163      1.0  0.24139  0.37694  0.91947  1.0000
  H   H256      1.0  0.24029  0.38173  0.82757  1.0000
  H   H257      1.0  0.24706  0.39082  0.94319  1.0000
  H   H258      1.0  0.29200  0.47232  0.94607  1.0000
  C   C164      1.0  0.48225  0.43646  0.85085  1.0000
  H   H259      1.0  0.08267  0.26618  0.76384  1.0000
  H   H260      1.0  0.35782  0.47600  0.65128  1.0000
  H   H261      1.0  0.07382  0.29890  0.73001  1.0000
  C   C165      1.0  0.27491  0.48185  0.62147  1.0000
  N   N19       1.0  0.26007  0.49668  0.62243  1.0000
  H   H262      1.0  0.46324  0.39495  0.62430  1.0000
  C   C166      1.0  0.30876  0.48588  0.93120  1.0000
  C   C167      1.0  0.44593  0.35604  0.67257  1.0000
  H   H263      1.0  0.48752  0.40318  0.66066  1.0000
  H   H264      1.0  0.44645  0.32420  0.61848  1.0000
  H   H265      1.0  0.27274  0.47067  0.64680  1.0000
  H   H266      1.0  0.46549  0.44674  0.91264  1.0000
  H   H267      1.0  0.43682  0.33506  0.68051  1.0000
  C   C168      1.0  0.33708  0.49523  0.67278  1.0000
  H   H268      1.0  0.26813  0.46746  0.59828  1.0000
  Fe  Fe32      1.0  0.09888  0.25999  0.89109  1.0000
  N   N20       1.0  0.46640  0.36207  0.64582  1.0000
  H   H269      1.0  0.04229  0.26460  0.81394  1.0000
  H   H270      1.0  0.42994  0.35978  0.66164  1.0000
  S   S70       1.0  0.03534  0.49824  0.54753  1.0000
  Fe  Fe33      1.0  0.11990  0.61877  0.08161  1.0000
  Fe  Fe34      1.0  0.07840  0.56539  0.04670  1.0000
  S   S71       1.0  0.03364  0.53984  0.04367  1.0000
  S   S72       1.0  0.10258  0.57689  0.09940  1.0000
  S   S73       1.0  0.09290  0.60756  0.03215  1.0000
  H   H271      1.0  0.01295  0.53614  0.44100  1.0000
  S   S74       1.0  0.10889  0.56109  0.01546  1.0000
  C   C169      1.0  0.01259  0.51473  0.01206  1.0000
  S   S75       1.0  0.12283  0.65010  0.12195  1.0000
  Fe  Fe35      1.0  0.13427  0.57567  0.06729  1.0000
  C   C170      1.0  0.00579  0.52059  0.46056  1.0000
  C   C171      1.0  0.12993  0.51459  0.12345  1.0000
  H   H272      1.0  0.11429  0.51438  0.10639  1.0000
  S   S76       1.0  0.13231  0.52753  0.43961  1.0000
  H   H273      1.0  0.07630  0.51415  0.45719  1.0000
  H   H274      1.0  0.13374  0.68721  0.18051  1.0000
  H   H275      1.0  0.05171  0.51654  0.42900  1.0000
  H   H276      1.0  0.08103  0.51951  0.40965  1.0000
  C   C172      1.0  0.06594  0.50881  0.43002  1.0000
  H   H277      1.0  0.12487  0.74659  0.16704  1.0000
  C   C173      1.0  0.02336  0.51970  0.48720  1.0000
  Fe  Fe36      1.0  0.12443  0.60410  0.00252  1.0000
  H   H278      1.0  0.04380  0.53464  0.48831  1.0000
  H   H279      1.0  0.13610  0.57103  0.21123  1.0000
  H   H280      1.0  0.13482  0.57213  0.16249  1.0000
  H   H281      1.0  0.13830  0.51750  0.36510  1.0000
  H   H282      1.0  0.13438  0.61244  0.21716  1.0000
  H   H283      1.0  0.13240  0.61435  0.16867  1.0000
  H   H284      1.0  0.16043  0.50106  0.47016  1.0000
  H   H285      1.0  0.37430  0.60227  0.01396  1.0000
  C   C174      1.0  0.14778  0.50886  0.38166  1.0000
  C   C175      1.0  0.14783  0.51083  0.41973  1.0000
  H   H286      1.0  0.48097  0.67758  0.18367  1.0000
  H   H287      1.0  0.16108  0.56951  0.18541  1.0000
  H   H288      1.0  0.40944  0.64873  0.01418  1.0000
  H   H289      1.0  0.17208  0.60901  0.24651  1.0000
  H   H290      1.0  0.19637  0.60765  0.21875  1.0000
  H   H291      1.0  0.48778  0.63464  0.32960  1.0000
  C   C176      1.0  0.49003  0.62375  0.18293  1.0000
  H   H292      1.0  0.42951  0.64079  0.04432  1.0000
  H   H293      1.0  0.39442  0.59468  0.04439  1.0000
  H   H294      1.0  0.15348  0.74727  0.21863  1.0000
  C   C177      1.0  0.48273  0.63951  0.30243  1.0000
  C   C178      1.0  0.22775  0.50758  0.14747  1.0000
  C   C179      1.0  0.38998  0.59641  0.01522  1.0000
  H   H295      1.0  0.38165  0.57647  0.00226  1.0000
  H   H296      1.0  0.38695  0.51143  0.21025  1.0000
  C   C180      1.0  0.48877  0.51948  0.48150  1.0000
  H   H297      1.0  0.48272  0.53402  0.47492  1.0000
  H   H298      1.0  0.48727  0.62827  0.28182  1.0000
  C   C181      1.0  0.22530  0.50157  0.08234  1.0000
  H   H299      1.0  0.46767  0.58878  0.14910  1.0000
  H   H300      1.0  0.43001  0.64755  0.32195  1.0000
  C   C182      1.0  0.31991  0.50171  0.14673  1.0000
  H   H301      1.0  0.21777  0.51588  0.07835  1.0000
  H   H302      1.0  0.16437  0.74328  0.15382  1.0000
  H   H303      1.0  0.19466  0.63773  0.22307  1.0000
  C   C183      1.0  0.15239  0.68955  0.17187  1.0000
  Fe  Fe37      1.0  0.39229  0.52898  0.01121  1.0000
  H   H304      1.0  0.45125  0.62499  0.24182  1.0000
  C   C184      1.0  0.16022  0.49965  0.44084  1.0000
  H   H305      1.0  0.18561  0.51484  0.18544  1.0000
  H   H306      1.0  0.42812  0.63457  0.25828  1.0000
  H   H307      1.0  0.45371  0.64669  0.35352  1.0000
  H   H308      1.0  0.46400  0.67183  0.32031  1.0000
  C   C185      1.0  0.47811  0.65824  0.17635  1.0000
  S   S77       1.0  0.22994  0.73186  0.20312  1.0000
  C   C186      1.0  0.44868  0.63808  0.26168  1.0000
  N   N21       1.0  0.45492  0.63349  0.29928  1.0000
  S   S78       1.0  0.37566  0.53819  0.05989  1.0000
  C   C187      1.0  0.45044  0.65062  0.32480  1.0000
  Fe  Fe38      1.0  0.41712  0.55737  0.08379  1.0000
  H   H309      1.0  0.17534  0.71922  0.21318  1.0000
  H   H310      1.0  0.46194  0.65862  0.25361  1.0000
  S   S79       1.0  0.16272  0.56370  0.09528  1.0000
  H   H311      1.0  0.16537  0.61252  0.13116  1.0000
  H   H312      1.0  0.19144  0.60798  0.15093  1.0000
  H   H313      1.0  0.41672  0.60041  0.30585  1.0000
  H   H314      1.0  0.43918  0.60495  0.02811  1.0000
  H   H315      1.0  0.24711  0.51265  0.08115  1.0000
  H   H316      1.0  0.15759  0.64131  0.19484  1.0000
  C   C188      1.0  0.18259  0.61590  0.22077  1.0000
  Fe  Fe39      1.0  0.37177  0.50072  0.08230  1.0000
  C   C189      1.0  0.17587  0.70777  0.19030  1.0000
  C   C190      1.0  0.48011  0.64585  0.43107  1.0000
  H   H317      1.0  0.44202  0.60162  0.33653  1.0000
  H   H318      1.0  0.44098  0.59223  0.28969  1.0000
  C   C191      1.0  0.43786  0.60567  0.30819  1.0000
  S   S80       1.0  0.41218  0.52015  0.10971  1.0000
  C   C192      1.0  0.17519  0.53610  0.14567  1.0000
  C   C193      1.0  0.17883  0.61731  0.15554  1.0000
  H   H319      1.0  0.22156  0.52294  0.14441  1.0000
  H   H320      1.0  0.19174  0.63899  0.15662  1.0000
  S   S81       1.0  0.42966  0.59866  0.10655  1.0000
  C   C194      1.0  0.45455  0.61738  0.14004  1.0000
  S   S82       1.0  0.15270  0.61844  0.05128  1.0000
  C   C195      1.0  0.30385  0.50584  0.17099  1.0000
  C   C196      1.0  0.14828  0.57888  0.18705  1.0000
  H   H321      1.0  0.21896  0.69673  0.14258  1.0000
  H   H322      1.0  0.44633  0.64996  0.13750  1.0000
  C   C197      1.0  0.42417  0.64158  0.01515  1.0000
  C   C198      1.0  0.15512  0.53624  0.12326  1.0000
  H   H323      1.0  0.19469  0.55286  0.14599  1.0000
  S   S83       1.0  0.46825  0.61381  0.44827  1.0000
  C   C199      1.0  0.17017  0.51456  0.16792  1.0000
  Fe  Fe40      1.0  0.42616  0.51197  0.05664  1.0000
  C   C200      1.0  0.17695  0.67670  0.13229  1.0000
  S   S84       1.0  0.43407  0.55065  0.03325  1.0000
  N   N22       1.0  0.16399  0.60788  0.18901  1.0000
  H   H324      1.0  0.30911  0.52568  0.17972  1.0000
  H   H325      1.0  0.24964  0.51762  0.14923  1.0000
  C   C201      1.0  0.45848  0.64252  0.15015  1.0000
  H   H326      1.0  0.44216  0.65652  0.00217  1.0000
  C   C202      1.0  0.14631  0.61947  0.19263  1.0000
  C   C203      1.0  0.47040  0.60802  0.15667  1.0000
  H   H327      1.0  0.33740  0.51827  0.13707  1.0000
  C   C204      1.0  0.15283  0.67387  0.14289  1.0000
  H   H328      1.0  0.17758  0.66491  0.10988  1.0000
  C   C205      1.0  0.47116  0.66298  0.44330  1.0000
  H   H329      1.0  0.47126  0.69994  0.43510  1.0000
  C   C206      1.0  0.19998  0.71048  0.17976  1.0000
  H   H330      1.0  0.45755  0.65718  0.46510  1.0000
  C   C207      1.0  0.47880  0.68711  0.42607  1.0000
  C   C208      1.0  0.20037  0.69478  0.15083  1.0000
  C   C209      1.0  0.43392  0.60681  0.99933  1.0000
  H   H331      1.0  0.49092  0.50974  0.42550  1.0000
  C   C210      1.0  0.26479  0.51235  0.58929  1.0000
  C   C211      1.0  0.40695  0.61702  0.95841  1.0000
  S   S85       1.0  0.15552  0.54010  0.54767  1.0000
  H   H332      1.0  0.16322  0.73852  0.59318  1.0000
  H   H333      1.0  0.04242  0.50745  0.98976  1.0000
  C   C212      1.0  0.35193  0.52156  0.89345  1.0000
  C   C213      1.0  0.33320  0.50066  0.94968  1.0000
  C   C214      1.0  0.35482  0.51875  0.93091  1.0000
  Fe  Fe41      1.0  0.13497  0.56149  0.57064  1.0000
  S   S86       1.0  0.16277  0.60159  0.59729  1.0000
  S   S87       1.0  0.10537  0.52645  0.60042  1.0000
  S   S88       1.0  0.12550  0.61582  0.94300  1.0000
  Fe  Fe42      1.0  0.20342  0.73155  0.80699  1.0000
  S   S89       1.0  0.16330  0.72442  0.78850  1.0000
  S   S90       1.0  0.21064  0.71526  0.85991  1.0000
  Fe  Fe43      1.0  0.17302  0.71319  0.73477  1.0000
  S   S91       1.0  0.14243  0.67611  0.70440  1.0000
  S   S92       1.0  0.21202  0.71819  0.75419  1.0000
  C   C215      1.0  0.16765  0.69444  0.59899  1.0000
  S   S93       1.0  0.43628  0.55837  0.52198  1.0000
  C   C216      1.0  0.42530  0.61397  0.66759  1.0000
  H   H334      1.0  0.01256  0.54914  0.90403  1.0000
  S   S94       1.0  0.45069  0.61667  0.55540  1.0000
  H   H335      1.0  0.07212  0.56888  0.92072  1.0000
  Fe  Fe44      1.0  0.42826  0.57447  0.57343  1.0000
  S   S95       1.0  0.39021  0.56508  0.60195  1.0000
  Fe  Fe45      1.0  0.47240  0.56229  0.55232  1.0000
  S   S96       1.0  0.46277  0.57581  0.60478  1.0000
  C   C217      1.0  0.17479  0.73754  0.61723  1.0000
  C   C218      1.0  0.14897  0.64491  0.92217  1.0000
  C   C219      1.0  0.17479  0.65953  0.93609  1.0000
  C   C220      1.0  0.19332  0.68118  0.91694  1.0000
  C   C221      1.0  0.18621  0.68874  0.88402  1.0000
  C   C222      1.0  0.16019  0.67455  0.87064  1.0000
  C   C223      1.0  0.14178  0.65259  0.88939  1.0000
  H   H336      1.0  0.18067  0.65381  0.96115  1.0000
  H   H337      1.0  0.21337  0.69205  0.92761  1.0000
  H   H338      1.0  0.15433  0.68043  0.84573  1.0000
  H   H339      1.0  0.12186  0.64152  0.87843  1.0000
  H   H340      1.0  0.47322  0.60851  0.71623  1.0000
  H   H341      1.0  0.34968  0.55726  0.65094  1.0000
  H   H342      1.0  0.25709  0.52496  0.65743  1.0000
  Fe  Fe46      1.0  0.48529  0.61698  0.58463  1.0000
  H   H343      1.0  0.46808  0.65773  0.62284  1.0000
  H   H344      1.0  0.45842  0.68803  0.65956  1.0000
  C   C224      1.0  0.15627  0.62026  0.62972  1.0000
  C   C225      1.0  0.17760  0.64112  0.64859  1.0000
  C   C226      1.0  0.17364  0.65771  0.67275  1.0000
  C   C227      1.0  0.14827  0.65400  0.67766  1.0000
  C   C228      1.0  0.12689  0.63276  0.65951  1.0000
  C   C229      1.0  0.13082  0.61587  0.63579  1.0000
  H   H345      1.0  0.19735  0.64453  0.64420  1.0000
  H   H346      1.0  0.19029  0.67358  0.68704  1.0000
  H   H347      1.0  0.10717  0.62966  0.66316  1.0000
  H   H348      1.0  0.11425  0.59993  0.62140  1.0000
  H   H349      1.0  0.07481  0.61591  0.95954  1.0000
  H   H350      1.0  0.17173  0.52337  0.63540  1.0000
  H   H351      1.0  0.43584  0.60184  0.75494  1.0000
  C   C230      1.0  0.37049  0.53803  0.62953  1.0000
  C   C231      1.0  0.48742  0.50752  0.95559  1.0000
  C   C232      1.0  0.02614  0.57575  0.96776  1.0000
  C   C233      1.0  0.32755  0.50641  0.87482  1.0000
  H   H352      1.0  0.43141  0.61091  0.64042  1.0000
  N   N23       1.0  0.43571  0.60364  0.69671  1.0000
  H   H353      1.0  0.20682  0.53323  0.68285  1.0000
  H   H354      1.0  0.01513  0.58699  0.96491  1.0000
  H   H355      1.0  0.48791  0.51832  0.93150  1.0000
  H   H356      1.0  0.43241  0.63541  0.67144  1.0000
  H   H357      1.0  0.39171  0.62344  0.95552  1.0000
  C   C234      1.0  0.02698  0.57049  0.90291  1.0000
  H   H358      1.0  0.42842  0.56961  0.66439  1.0000
  S   S97       1.0  0.38538  0.53880  0.95376  1.0000
  N   N24       1.0  0.15880  0.62664  0.78406  1.0000
  C   C235      1.0  0.13321  0.62644  0.78417  1.0000
  C   C236      1.0  0.16354  0.61682  0.81895  1.0000
  C   C237      1.0  0.17990  0.65381  0.77918  1.0000
  C   C238      1.0  0.15859  0.60963  0.75382  1.0000
  H   H359      1.0  0.12916  0.63388  0.75819  1.0000
  H   H360      1.0  0.13277  0.63926  0.80642  1.0000
  H   H361      1.0  0.11676  0.60627  0.78777  1.0000
  H   H362      1.0  0.18262  0.61656  0.81960  1.0000
  H   H363      1.0  0.16427  0.62951  0.84227  1.0000
  H   H364      1.0  0.14779  0.59649  0.82394  1.0000
  H   H365      1.0  0.19955  0.65485  0.77850  1.0000
  H   H366      1.0  0.18084  0.66723  0.80165  1.0000
  H   H367      1.0  0.17663  0.66185  0.75336  1.0000
  H   H368      1.0  0.17776  0.60964  0.75243  1.0000
  H   H369      1.0  0.15479  0.61637  0.72711  1.0000
  H   H370      1.0  0.14305  0.58888  0.75672  1.0000
  C   C239      1.0  0.46466  0.61628  0.69529  1.0000
  H   H371      1.0  0.04445  0.54357  0.94287  1.0000
  H   H372      1.0  0.28989  0.52950  0.65362  1.0000
  H   H373      1.0  0.21573  0.72147  0.57248  1.0000
  C   C240      1.0  0.17415  0.50755  0.64720  1.0000
  C   C241      1.0  0.33528  0.51848  0.67302  1.0000
  H   H374      1.0  0.47388  0.63796  0.69988  1.0000
  H   H375      1.0  0.21851  0.74127  0.65028  1.0000
  C   C242      1.0  0.35163  0.53959  0.65112  1.0000
  H   H376      1.0  0.01563  0.58123  0.89778  1.0000
  C   C243      1.0  0.26885  0.51447  0.65474  1.0000
  H   H377      1.0  0.07547  0.61213  0.91159  1.0000
  C   C244      1.0  0.20300  0.72113  0.64194  1.0000
  H   H378      1.0  0.43243  0.56639  0.71230  1.0000
  H   H379      1.0  0.19508  0.73418  0.55410  1.0000
  Fe  Fe47      1.0  0.46217  0.60086  0.50729  1.0000
  H   H380      1.0  0.32107  0.52001  0.68975  1.0000
  H   H381      1.0  0.36858  0.53551  0.87877  1.0000
  H   H382      1.0  0.40261  0.56465  0.69370  1.0000
  H   H383      1.0  0.25398  0.52390  0.58937  1.0000
  H   H384      1.0  0.26652  0.50339  0.68020  1.0000
  C   C245      1.0  0.48324  0.67250  0.64051  1.0000
  C   C246      1.0  0.06205  0.60826  0.93441  1.0000
  H   H385      1.0  0.43679  0.63111  0.73709  1.0000
  Fe  Fe48      1.0  0.12647  0.52869  0.50038  1.0000
  Fe  Fe49      1.0  0.08023  0.51668  0.54845  1.0000
  C   C247      1.0  0.47785  0.68975  0.66128  1.0000
  H   H386      1.0  0.16099  0.72910  0.63983  1.0000
  N   N25       1.0  0.18779  0.72157  0.60929  1.0000
  H   H387      1.0  0.03931  0.57321  0.87910  1.0000
  S   S98       1.0  0.10852  0.55328  0.52043  1.0000
  C   C248      1.0  0.05792  0.56511  0.94246  1.0000
  H   H388      1.0  0.32546  0.50878  0.84601  1.0000
  C   C249      1.0  0.37295  0.51517  0.63035  1.0000
  H   H389      1.0  0.42445  0.63108  0.94364  1.0000
  H   H390      1.0  0.47092  0.61295  0.66838  1.0000
  H   H391      1.0  0.40671  0.60043  0.73416  1.0000
  C   C250      1.0  0.42437  0.57485  0.69166  1.0000
  N   N26       1.0  0.04328  0.57992  0.93689  1.0000
  C   C251      1.0  0.42844  0.60952  0.73234  1.0000
  H   H392      1.0  0.17652  0.68132  0.59484  1.0000
  H   H393      1.0  0.38733  0.51362  0.61396  1.0000
  Fe  Fe50      1.0  0.12456  0.50484  0.57497  1.0000
  H   H394      1.0  0.21290  0.70903  0.63734  1.0000
  H   H395      1.0  0.15300  0.68562  0.62043  1.0000
  H   H396      1.0  0.19013  0.71287  0.66537  1.0000
  H   H397      1.0  0.15659  0.69387  0.57348  1.0000
  H   H398      1.0  0.40341  0.60383  0.66650  1.0000
  H   H399      1.0  0.39896  0.59743  0.94429  1.0000
  H   H400      1.0  0.06947  0.57079  0.96868  1.0000
  H   H401      1.0  0.28606  0.52650  0.58694  1.0000
  C   C252      1.0  0.19400  0.51307  0.67412  1.0000
  H   H402      1.0  0.05179  0.62014  0.93033  1.0000
  C   C253      1.0  0.20578  0.73324  0.57917  1.0000
  S   S99       1.0  0.22323  0.50094  0.72255  1.0000
  H   H403      1.0  0.42683  0.58732  0.98550  1.0000
  S   S100      1.0  0.48881  0.72917  0.71151  1.0000
  S   S101      1.0  0.48622  0.53120  0.55447  1.0000
  N   N27       1.0  0.41376  0.61549  0.99699  1.0000
  H   H404      1.0  0.46182  0.51877  0.98347  1.0000
  C   C254      1.0  0.02177  0.50203  0.98878  1.0000
  C   C255      1.0  0.01434  0.49976  0.51267  1.0000
  H   H405      1.0  0.01148  0.55463  0.97005  1.0000
  H   H406      1.0  0.03770  0.58199  0.99404  1.0000
  C   C256      1.0  0.47258  0.50782  0.98506  1.0000
  H   H407      1.0  0.45229  0.62089  0.98629  1.0000
  H   H408      1.0  0.33521  0.49839  0.97854  1.0000
  C   C257      1.0  0.49181  0.51437  0.51792  1.0000
  H   H409      1.0  0.25817  0.49951  0.56440  1.0000
  Fe  Fe51      1.0  0.23040  0.81290  0.26402  1.0000
  S   S102      1.0  0.22213  0.77416  0.28766  1.0000
  S   S103      1.0  0.20161  0.82956  0.26418  1.0000
  Fe  Fe52      1.0  0.28601  0.82468  0.24048  1.0000
  S   S104      1.0  0.28145  0.78719  0.26420  1.0000
  S   S105      1.0  0.32500  0.85537  0.21823  1.0000
  H   H410      1.0  0.40661  0.83401  0.00252  1.0000
  Fe  Fe53      1.0  0.26357  0.79659  0.31142  1.0000
  S   S106      1.0  0.27056  0.79237  0.37142  1.0000
  S   S107      1.0  0.24612  0.80584  0.21196  1.0000
  S   S108      1.0  0.27092  0.83554  0.29000  1.0000
  Fe  Fe54      1.0  0.06217  0.85817  0.33409  1.0000
  S   S109      1.0  0.05393  0.81972  0.35845  1.0000
  S   S110      1.0  0.05463  0.86054  0.27358  1.0000
  Fe  Fe55      1.0  0.08589  0.88865  0.40683  1.0000
  S   S111      1.0  0.07928  0.85181  0.43551  1.0000
  S   S112      1.0  0.09599  0.92775  0.43566  1.0000
  Fe  Fe56      1.0  0.09457  0.84233  0.38441  1.0000
  S   S113      1.0  0.12241  0.82431  0.38540  1.0000
  Fe  Fe57      1.0  0.03945  0.83277  0.40660  1.0000
  H   H411      1.0  0.17984  0.81308  0.14855  1.0000
  S   S114      1.0  0.10364  0.88053  0.35791  1.0000
  S   S115      1.0  0.04522  0.86980  0.38003  1.0000
  S   S116      1.0  0.37735  0.87509  0.45158  1.0000
  S   S117      1.0  0.99841  0.80587  0.42754  1.0000
  S   S118      1.0  0.44667  0.84449  0.05802  1.0000
  H   H412      1.0  0.19646  0.77012  0.16441  1.0000
  Fe  Fe58      1.0  0.47509  0.92037  0.04646  1.0000
  C   C258      1.0  0.14404  0.94361  0.47307  1.0000
  H   H413      1.0  0.42707  0.87273  0.16569  1.0000
  Fe  Fe59      1.0  0.42633  0.86870  0.06702  1.0000
  S   S119      1.0  0.38315  0.84393  0.08009  1.0000
  Fe  Fe60      1.0  0.46232  0.86832  0.00798  1.0000
  S   S120      1.0  0.46002  0.90026  0.09974  1.0000
  C   C259      1.0  0.99711  0.87628  0.45096  1.0000
  C   C260      1.0  0.01051  0.84930  0.01861  1.0000
  C   C261      1.0  0.00487  0.82468  0.00424  1.0000
  N   N28       1.0  0.16448  0.77714  0.17835  1.0000
  H   H414      1.0  0.43327  0.84600  0.42784  1.0000
  S   S121      1.0  0.43949  0.89044  0.01482  1.0000
  H   H415      1.0  0.17732  0.77183  0.12625  1.0000
  H   H416      1.0  0.10797  0.97565  0.47380  1.0000
  C   C262      1.0  0.13698  0.76838  0.16597  1.0000
  C   C263      1.0  0.12324  0.94875  0.46480  1.0000
  H   H417      1.0  0.08485  0.95103  0.06964  1.0000
  H   H418      1.0  0.00190  0.83770  0.30192  1.0000
  H   H419      1.0  0.39899  0.83507  0.22669  1.0000
  C   C264      1.0  0.34096  0.85154  0.18001  1.0000
  C   C265      1.0  0.32980  0.82858  0.15832  1.0000
  C   C266      1.0  0.34295  0.82663  0.12783  1.0000
  C   C267      1.0  0.36748  0.84744  0.11883  1.0000
  C   C268      1.0  0.37876  0.87031  0.14068  1.0000
  C   C269      1.0  0.36556  0.87230  0.17107  1.0000
  H   H420      1.0  0.31089  0.81245  0.16481  1.0000
  H   H421      1.0  0.33396  0.80886  0.11111  1.0000
  H   H422      1.0  0.39736  0.88668  0.13375  1.0000
  H   H423      1.0  0.37426  0.89021  0.18750  1.0000
  C   C270      1.0  0.29985  0.81604  0.39380  1.0000
  C   C271      1.0  0.30306  0.81515  0.43166  1.0000
  C   C272      1.0  0.32644  0.83353  0.45007  1.0000
  C   C273      1.0  0.34683  0.85274  0.43057  1.0000
  C   C274      1.0  0.34350  0.85371  0.39282  1.0000
  C   C275      1.0  0.32007  0.83555  0.37450  1.0000
  H   H424      1.0  0.28742  0.80011  0.44672  1.0000
  H   H425      1.0  0.37366  0.82774  0.48139  1.0000
  H   H426      1.0  0.35919  0.86852  0.37755  1.0000
  H   H427      1.0  0.31784  0.83639  0.34534  1.0000
  C   C276      1.0  0.17810  0.82630  0.29670  1.0000
  C   C277      1.0  0.17124  0.80835  0.32489  1.0000
  C   C278      1.0  0.15396  0.80780  0.35147  1.0000
  C   C279      1.0  0.14273  0.82466  0.34980  1.0000
  C   C280      1.0  0.14891  0.84196  0.32090  1.0000
  C   C281      1.0  0.16651  0.84279  0.29462  1.0000
  H   H428      1.0  0.17929  0.79494  0.32638  1.0000
  H   H429      1.0  0.14913  0.79414  0.37347  1.0000
  H   H430      1.0  0.14045  0.85504  0.31913  1.0000
  H   H431      1.0  0.17144  0.85666  0.27287  1.0000
  C   C282      1.0  0.17616  0.76510  0.15468  1.0000
  H   H432      1.0  0.38851  0.77614  0.44710  1.0000
  H   H433      1.0  0.00301  0.86590  0.43071  1.0000
  C   C283      1.0  0.02279  0.84561  0.25241  1.0000
  C   C284      1.0  0.02021  0.84374  0.21428  1.0000
  H   H434      1.0  0.20054  0.81347  0.18608  1.0000
  H   H435      1.0  0.03764  0.85093  0.19851  1.0000
  C   C285      1.0  0.03905  0.89152  0.48304  1.0000
  N   N29       1.0  0.02019  0.89950  0.46746  1.0000
  H   H436      1.0  0.12766  0.77717  0.18332  1.0000
  C   C286      1.0  0.17972  0.80611  0.17664  1.0000
  H   H437      1.0  0.32875  0.83265  0.47918  1.0000
  H   H438      1.0  0.17154  0.81585  0.19440  1.0000
  H   H439      1.0  0.44304  0.83864  0.23996  1.0000
  H   H440      1.0  0.18542  0.77519  0.22638  1.0000
  C   C287      1.0  0.12390  0.97143  0.48003  1.0000
  Fe  Fe61      1.0  0.48124  0.87721  0.08795  1.0000
  H   H441      1.0  0.14384  0.92629  0.46154  1.0000
  C   C288      1.0  0.16498  0.76899  0.21619  1.0000
  N   N30       1.0  0.42648  0.83793  0.18668  1.0000
  C   C289      1.0  0.42584  0.82699  0.15014  1.0000
  C   C290      1.0  0.39939  0.82691  0.19945  1.0000
  C   C291      1.0  0.43839  0.86686  0.18496  1.0000
  H   H442      1.0  0.44592  0.83538  0.13943  1.0000
  H   H443      1.0  0.41370  0.83153  0.13045  1.0000
  H   H444      1.0  0.41747  0.80525  0.15031  1.0000
  H   H445      1.0  0.36253  0.79305  0.47911  1.0000
  H   H446      1.0  0.38682  0.83156  0.18068  1.0000
  C   C292      1.0  0.48327  0.79477  0.15093  1.0000
  H   H447      1.0  0.45894  0.87581  0.17556  1.0000
  H   H448      1.0  0.08527  0.94995  0.00172  1.0000
  H   H449      1.0  0.47557  0.81724  0.11013  1.0000
  H   H450      1.0  0.43899  0.87589  0.21193  1.0000
  C   C293      1.0  0.47705  0.97938  0.49345  1.0000
  C   C294      1.0  0.14617  0.97003  0.04020  1.0000
  C   C295      1.0  0.10704  0.96176  0.00493  1.0000
  C   C296      1.0  0.16538  0.96117  0.49590  1.0000
  H   H451      1.0  0.01956  0.92599  0.42708  1.0000
  C   C297      1.0  0.03026  0.87242  0.00377  1.0000
  H   H452      1.0  0.46340  0.95899  0.48689  1.0000
  C   C298      1.0  0.48552  0.81803  0.13581  1.0000
  C   C299      1.0  0.00015  0.83631  0.27258  1.0000
  N   N31       1.0  0.24073  0.85761  0.37986  1.0000
  C   C300      1.0  0.21984  0.86518  0.37481  1.0000
  C   C301      1.0  0.24805  0.85893  0.41889  1.0000
  C   C302      1.0  0.26401  0.87572  0.35980  1.0000
  C   C303      1.0  0.23109  0.83048  0.36585  1.0000
  H   H453      1.0  0.21433  0.86493  0.34553  1.0000
  H   H454      1.0  0.22616  0.88533  0.38580  1.0000
  H   H455      1.0  0.20159  0.85143  0.38857  1.0000
  H   H456      1.0  0.26363  0.85307  0.42349  1.0000
  H   H457      1.0  0.25563  0.87917  0.43044  1.0000
  H   H458      1.0  0.23085  0.84549  0.43472  1.0000
  H   H459      1.0  0.28000  0.87027  0.36253  1.0000
  H   H460      1.0  0.27205  0.89640  0.36982  1.0000
  H   H461      1.0  0.25902  0.87526  0.33024  1.0000
  H   H462      1.0  0.21326  0.81622  0.37984  1.0000
  H   H463      1.0  0.24621  0.82402  0.36970  1.0000
  H   H464      1.0  0.22599  0.82887  0.33629  1.0000
  C   C304      1.0  0.44241  0.83103  0.21197  1.0000
  H   H465      1.0  0.15457  0.96513  0.06462  1.0000
  H   H466      1.0  0.04526  0.88185  0.46216  1.0000
  C   C305      1.0  0.39862  0.79528  0.43313  1.0000
  H   H467      1.0  0.38983  0.80512  0.20120  1.0000
  H   H468      1.0  0.11298  0.98331  0.07159  1.0000
  H   H469      1.0  0.43557  0.82349  0.48520  1.0000
  C   C306      1.0  0.10865  0.92657  0.03761  1.0000
  Fe  Fe62      1.0  0.24067  0.76852  0.23785  1.0000
  H   H470      1.0  0.05082  0.93693  0.45076  1.0000
  N   N32       1.0  0.40012  0.81704  0.45598  1.0000
  H   H471      1.0  0.46307  0.83955  0.20330  1.0000
  H   H472      1.0  0.99952  0.85054  0.04102  1.0000
  H   H473      1.0  0.40178  0.84180  0.41159  1.0000
  H   H474      1.0  0.15327  0.99163  0.04142  1.0000
  H   H475      1.0  0.11212  0.98286  0.00509  1.0000
  H   H476      1.0  0.08683  0.91464  0.03613  1.0000
  H   H477      1.0  0.47147  0.77615  0.13670  1.0000
  N   N33       1.0  0.11714  0.95504  0.03830  1.0000
  H   H478      1.0  0.43448  0.80935  0.21319  1.0000
  H   H479      1.0  0.03982  0.91130  0.41704  1.0000
  H   H480      1.0  0.15671  0.77809  0.23493  1.0000
  H   H481      1.0  0.38749  0.79324  0.40704  1.0000
  H   H482      1.0  0.11605  0.92072  0.06218  1.0000
  C   C307      1.0  0.03305  0.91931  0.43939  1.0000
  C   C308      1.0  0.41511  0.81925  0.49023  1.0000
  H   H483      1.0  0.11389  0.95699  0.09605  1.0000
  H   H484      1.0  0.13583  0.77416  0.13749  1.0000
  C   C309      1.0  0.10672  0.96185  0.07035  1.0000
  C   C310      1.0  0.37326  0.81169  0.46427  1.0000
  H   H485      1.0  0.35187  0.82892  0.00867  1.0000
  H   H486      1.0  0.03409  0.89135  0.01474  1.0000
  H   H487      1.0  0.41854  0.79856  0.42646  1.0000
  H   H488      1.0  0.41624  0.85901  0.45352  1.0000
  H   H489      1.0  0.11595  0.92087  0.01337  1.0000
  H   H490      1.0  0.36143  0.81018  0.43906  1.0000
  H   H491      1.0  0.37719  0.80480  0.01244  1.0000
  H   H492      1.0  0.15473  0.96589  0.01595  1.0000
  C   C311      1.0  0.41347  0.84197  0.43629  1.0000
  H   H493      1.0  0.99728  0.91719  0.48585  1.0000
  C   C312      1.0  0.99526  0.83280  0.19641  1.0000
  H   H494      1.0  0.99358  0.83162  0.16707  1.0000
  H   H495      1.0  0.05729  0.90877  0.49412  1.0000
  C   C313      1.0  0.01158  0.91098  0.49657  1.0000
  H   H496      1.0  0.49100  0.98832  0.43897  1.0000
  H   H497      1.0  0.38130  0.85838  0.99987  1.0000
  H   H498      1.0  0.13176  0.81704  0.90641  1.0000
  S   S122      1.0  0.38795  0.91108  0.54571  1.0000
  Fe  Fe63      1.0  0.42027  0.86774  0.57025  1.0000
  S   S123      1.0  0.42198  0.89902  0.60786  1.0000
  S   S124      1.0  0.43336  0.83761  0.58477  1.0000
  Fe  Fe64      1.0  0.37926  0.88299  0.59184  1.0000
  S   S125      1.0  0.35236  0.87990  0.63747  1.0000
  Fe  Fe65      1.0  0.43070  0.92461  0.55864  1.0000
  S   S126      1.0  0.45957  0.96872  0.56428  1.0000
  S   S127      1.0  0.37694  0.85025  0.55636  1.0000
  S   S128      1.0  0.43262  0.89437  0.52226  1.0000
  S   S129      1.0  0.45614  0.85045  0.95089  1.0000
  H   H499      1.0  0.41649  0.83546  0.50808  1.0000
  H   H500      1.0  0.40826  0.96018  0.58889  1.0000
  C   C314      1.0  0.47908  0.98905  0.52895  1.0000
  S   S130      1.0  0.26290  0.77145  0.69773  1.0000
  Fe  Fe66      1.0  0.18408  0.76646  0.77014  1.0000
  S   S131      1.0  0.16518  0.79345  0.77117  1.0000
  S   S132      1.0  0.22431  0.77455  0.79163  1.0000
  Fe  Fe67      1.0  0.10281  0.91216  0.91849  1.0000
  S   S133      1.0  0.14092  0.91704  0.94254  1.0000
  S   S134      1.0  0.06881  0.90128  0.95663  1.0000
  Fe  Fe68      1.0  0.12914  0.93757  0.84723  1.0000
  S   S135      1.0  0.16896  0.94421  0.86737  1.0000
  S   S136      1.0  0.11997  0.94703  0.79027  1.0000
  Fe  Fe69      1.0  0.14697  0.90296  0.88813  1.0000
  S   S137      1.0  0.16282  0.87339  0.89038  1.0000
  Fe  Fe70      1.0  0.15931  0.95764  0.91977  1.0000
  H   H501      1.0  0.18613  0.98249  0.70066  1.0000
  S   S138      1.0  0.10729  0.89536  0.86543  1.0000
  S   S139      1.0  0.12101  0.95368  0.89818  1.0000
  C   C315      1.0  0.16572  0.81628  0.80439  1.0000
  C   C316      1.0  0.17812  0.81980  0.83871  1.0000
  C   C317      1.0  0.17752  0.83778  0.86426  1.0000
  C   C318      1.0  0.16463  0.85257  0.85592  1.0000
  C   C319      1.0  0.15230  0.84912  0.82157  1.0000
  C   C320      1.0  0.15282  0.83108  0.79608  1.0000
  H   H502      1.0  0.18813  0.80864  0.84559  1.0000
  H   H503      1.0  0.18712  0.84021  0.89073  1.0000
  H   H504      1.0  0.14231  0.86029  0.81463  1.0000
  H   H505      1.0  0.14320  0.82860  0.76961  1.0000
  C   C321      1.0  0.14139  0.97604  0.76755  1.0000
  H   H506      1.0  0.35795  0.78986  0.93261  1.0000
  Fe  Fe71      1.0  0.38925  0.87959  0.51149  1.0000
  C   C322      1.0  0.47543  0.83814  0.93014  1.0000
  C   C323      1.0  0.07451  0.80543  0.94386  1.0000
  C   C324      1.0  0.36674  0.81624  0.71165  1.0000
  H   H507      1.0  0.17189  0.95396  0.59059  1.0000
  H   H508      1.0  0.39937  0.83097  0.92091  1.0000
  H   H509      1.0  0.06181  0.78348  0.87653  1.0000
  H   H510      1.0  0.36979  0.78106  0.66672  1.0000
  H   H511      1.0  0.37407  0.83090  0.73455  1.0000
  H   H512      1.0  0.43550  0.95237  0.63571  1.0000
  H   H513      1.0  0.46008  0.83890  0.87638  1.0000
  H   H514      1.0  0.22140  0.75362  0.58635  1.0000
  H   H515      1.0  0.07168  0.78797  0.95959  1.0000
  H   H516      1.0  0.38064  0.84839  0.91750  1.0000
  C   C325      1.0  0.16955  0.94868  0.61984  1.0000
  C   C326      1.0  0.32684  0.84964  0.65305  1.0000
  C   C327      1.0  0.32202  0.82538  0.63821  1.0000
  C   C328      1.0  0.30229  0.80176  0.65215  1.0000
  C   C329      1.0  0.28684  0.80203  0.68072  1.0000
  C   C330      1.0  0.29144  0.82629  0.69526  1.0000
  C   C331      1.0  0.31142  0.84993  0.68160  1.0000
  H   H517      1.0  0.33348  0.82478  0.61602  1.0000
  H   H518      1.0  0.29887  0.78311  0.64063  1.0000
  H   H519      1.0  0.27979  0.82685  0.71728  1.0000
  H   H520      1.0  0.31488  0.86855  0.69329  1.0000
  C   C332      1.0  0.45624  0.84285  0.62108  1.0000
  C   C333      1.0  0.46080  0.82208  0.63186  1.0000
  C   C334      1.0  0.35146  0.80190  0.94871  1.0000
  C   C335      1.0  0.46967  0.86710  0.63960  1.0000
  H   H521      1.0  0.45048  0.80322  0.61774  1.0000
  H   H522      1.0  0.99501  0.83525  0.55251  1.0000
  H   H523      1.0  0.40062  0.97225  0.70133  1.0000
  C   C336      1.0  0.39051  0.96564  0.67413  1.0000
  H   H524      1.0  0.40525  0.86332  0.69228  1.0000
  S   S140      1.0  0.18990  0.75434  0.71412  1.0000
  N   N34       1.0  0.09241  0.81024  0.91375  1.0000
  C   C337      1.0  0.17737  0.96487  0.68212  1.0000
  H   H525      1.0  0.34990  0.81740  0.69806  1.0000
  H   H526      1.0  0.40602  0.93001  0.65784  1.0000
  H   H527      1.0  0.05088  0.84560  0.93857  1.0000
  C   C338      1.0  0.04504  0.87130  0.97494  1.0000
  N   N35       1.0  0.40907  0.96766  0.64616  1.0000
  C   C339      1.0  0.09575  0.83377  0.89414  1.0000
  C   C340      1.0  0.49211  0.83144  0.95039  1.0000
  H   H528      1.0  0.07858  0.76917  0.90215  1.0000
  C   C341      1.0  0.47873  0.82553  0.66080  1.0000
  C   C342      1.0  0.01980  0.82351  0.97556  1.0000
  H   H529      1.0  0.01814  0.83063  0.49937  1.0000
  H   H530      1.0  0.09443  0.79053  0.86533  1.0000
  H   H531      1.0  0.37917  0.93754  0.61150  1.0000
  C   C343      1.0  0.42989  0.99527  0.64352  1.0000
  H   H532      1.0  0.17936  0.93651  0.62523  1.0000
  C   C344      1.0  0.36469  0.84069  0.98654  1.0000
  H   H533      1.0  0.15622  0.95334  0.68851  1.0000
  C   C345      1.0  0.37710  0.80127  0.65625  1.0000
  H   H534      1.0  0.10523  0.85171  0.91205  1.0000
  C   C346      1.0  0.42117  0.95106  0.65613  1.0000
  H   H535      1.0  0.38095  0.97789  0.66748  1.0000
  N   N36       1.0  0.18076  0.97248  0.64361  1.0000
  S   S141      1.0  0.18933  0.99182  0.95555  1.0000
  H   H536      1.0  0.37458  0.94493  0.67648  1.0000
  H   H537      1.0  0.02857  0.92853  0.50959  1.0000
  H   H538      1.0  0.46459  0.98403  0.92420  1.0000
  C   C347      1.0  0.40977  0.81995  0.70533  1.0000
  H   H539      1.0  0.08234  0.82264  0.96313  1.0000
  H   H540      1.0  0.10854  0.83760  0.87055  1.0000
  C   C348      1.0  0.39472  0.95851  0.61071  1.0000
  C   C349      1.0  0.38924  0.81680  0.98990  1.0000
  C   C350      1.0  0.16711  0.98788  0.63528  1.0000
  H   H541      1.0  0.18938  0.75806  0.62566  1.0000
  H   H542      1.0  0.40341  0.80029  0.71726  1.0000
  H   H543      1.0  0.11357  0.96855  0.72297  1.0000
  H   H544      1.0  0.38102  0.84933  0.65579  1.0000
  H   H545      1.0  0.43202  0.95723  0.68288  1.0000
  C   C351      1.0  0.08124  0.78729  0.88838  1.0000
  H   H546      1.0  0.46646  0.88330  0.63150  1.0000
  H   H547      1.0  0.35327  0.84753  0.96906  1.0000
  H   H548      1.0  0.12812  0.83277  0.94593  1.0000
  H   H549      1.0  0.41844  0.83494  0.72778  1.0000
  N   N37       1.0  0.37417  0.82530  0.96546  1.0000
  H   H550      1.0  0.36045  0.80179  0.64106  1.0000
  C   C352      1.0  0.48685  0.82286  0.87479  1.0000
  H   H551      1.0  0.11535  0.95785  0.98024  1.0000
  H   H552      1.0  0.46394  0.95431  0.97318  1.0000
  C   C353      1.0  0.13312  0.98165  0.73398  1.0000
  C   C354      1.0  0.39132  0.84177  0.93676  1.0000
  C   C355      1.0  0.11821  0.81457  0.92854  1.0000
  H   H553      1.0  0.07664  0.83166  0.88355  1.0000
  H   H554      1.0  0.35883  0.79633  0.72340  1.0000
  C   C356      1.0  0.20905  0.98866  0.63707  1.0000
  Fe  Fe72      1.0  0.22897  0.76025  0.73643  1.0000
  C   C357      1.0  0.47809  0.99206  0.94747  1.0000
  H   H555      1.0  0.48216  0.80942  0.66877  1.0000
  C   C358      1.0  0.39714  0.84765  0.67071  1.0000
  C   C359      1.0  0.47293  0.83381  0.89228  1.0000
  H   H556      1.0  0.05478  0.80188  0.93364  1.0000
  H   H557      1.0  0.38499  0.97032  0.60247  1.0000
  H   H558      1.0  0.40861  0.85967  0.94850  1.0000
  H   H559      1.0  0.01548  0.80454  0.96420  1.0000
  N   N38       1.0  0.38768  0.82126  0.68603  1.0000
  H   H560      1.0  0.03048  0.87752  0.50544  1.0000
  H   H561      1.0  0.39244  0.80460  0.63637  1.0000
  H   H562      1.0  0.22000  0.97761  0.64257  1.0000
  H   H563      1.0  0.42589  0.82363  0.68672  1.0000
  H   H564      1.0  0.44415  0.99722  0.62251  1.0000
  H   H565      1.0  0.41295  0.85199  0.65129  1.0000
  C   C360      1.0  0.47767  0.97512  0.97523  1.0000
  H   H566      1.0  0.33820  0.78905  0.96972  1.0000
  H   H567      1.0  0.11640  0.79777  0.94495  1.0000
  H   H568      1.0  0.16800  0.99268  0.60601  1.0000
  C   C361      1.0  0.03986  0.84669  0.96102  1.0000
  C   C362      1.0  0.14519  0.98892  0.50295  1.0000
  H   H569      1.0  0.33957  0.80756  0.93014  1.0000
  H   H570      1.0  0.48462  0.81954  0.84568  1.0000
  H   H571      1.0  0.18697  0.95277  0.68930  1.0000
  C   C363      1.0  0.16617  0.98398  0.51081  1.0000
  H   H572      1.0  0.14600  0.97701  0.64194  1.0000
  H   H573      1.0  0.14816  0.93617  0.62395  1.0000
  C   C364      1.0  0.48777  0.87062  0.66827  1.0000
  C   C365      1.0  0.16654  0.99334  0.78182  1.0000
  H   H574      1.0  0.39683  0.80520  0.97501  1.0000
  H   H575      1.0  0.17313  0.98936  0.80768  1.0000
  H   H576      1.0  0.40567  0.80090  0.50605  1.0000
  H   H577      1.0  0.00183  0.89652  0.51826  1.0000
  H   H578      1.0  0.18152  0.95717  0.50171  1.0000
  H   H579      1.0  0.21229  0.99518  0.60841  1.0000
  C   C366      1.0  0.99705  0.82289  0.49782  1.0000
  Fe  Fe73      1.0  0.59781  0.13722  0.48079  1.0000
  S   S142      1.0  0.60381  0.10423  0.45935  1.0000
  Fe  Fe74      1.0  0.56809  0.13867  0.41104  1.0000
  S   S143      1.0  0.57269  0.10621  0.38428  1.0000
  S   S144      1.0  0.54809  0.16178  0.38991  1.0000
  Fe  Fe75      1.0  0.56157  0.08623  0.43863  1.0000
  S   S145      1.0  0.52971  0.04286  0.43823  1.0000
  Fe  Fe76      1.0  0.61436  0.12723  0.40749  1.0000
  S   S146      1.0  0.65232  0.13379  0.38171  1.0000
  S   S147      1.0  0.55492  0.11782  0.46377  1.0000
  S   S148      1.0  0.61046  0.16105  0.43048  1.0000
  C   C367      1.0  0.94236  0.09908  0.47720  1.0000
  Fe  Fe77      1.0  0.89371  0.09127  0.07118  1.0000
  S   S149      1.0  0.85633  0.08704  0.04460  1.0000
  S   S150      1.0  0.92923  0.10290  0.03535  1.0000
  Fe  Fe78      1.0  0.86416  0.06183  0.13916  1.0000
  S   S151      1.0  0.82545  0.05538  0.11510  1.0000
  S   S152      1.0  0.86604  0.05179  0.19887  1.0000
  Fe  Fe79      1.0  0.83813  0.04525  0.06297  1.0000
  H   H580      1.0  0.52457  0.19136  0.36037  1.0000
  Fe  Fe80      1.0  0.84739  0.09784  0.09940  1.0000
  S   S153      1.0  0.82529  0.12161  0.10594  1.0000
  S   S154      1.0  0.87541  0.04872  0.08803  1.0000
  S   S155      1.0  0.88611  0.10499  0.12503  1.0000
  C   C368      1.0  0.84176  0.00484  0.47078  1.0000
  C   C369      1.0  0.52081  0.13488  0.32667  1.0000
  S   S156      1.0  0.72277  0.22444  0.27331  1.0000
  Fe  Fe81      1.0  0.81069  0.23285  0.22557  1.0000
  S   S157      1.0  0.83388  0.21019  0.21886  1.0000
  S   S158      1.0  0.77208  0.22429  0.19814  1.0000
  C   C370      1.0  0.84802  0.02065  0.21920  1.0000
  N   N39       1.0  0.93187  0.11088  0.45031  1.0000
  H   H581      1.0  0.86081  0.22974  0.07962  1.0000
  H   H582      1.0  0.85721  0.03738  0.27352  1.0000
  C   C371      1.0  0.54622  0.19592  0.16568  1.0000
  C   C372      1.0  0.82832  0.14651  0.13738  1.0000
  C   C373      1.0  0.80662  0.15083  0.14167  1.0000
  C   C374      1.0  0.80783  0.17003  0.16656  1.0000
  C   C375      1.0  0.83096  0.18549  0.18722  1.0000
  C   C376      1.0  0.85267  0.18122  0.18285  1.0000
  C   C377      1.0  0.85147  0.16203  0.15794  1.0000
  H   H583      1.0  0.78859  0.13896  0.12595  1.0000
  H   H584      1.0  0.79075  0.17262  0.17010  1.0000
  H   H585      1.0  0.87069  0.19306  0.19862  1.0000
  H   H586      1.0  0.86856  0.15944  0.15448  1.0000
  C   C378      1.0  0.51081  0.02270  0.47406  1.0000
  C   C379      1.0  0.50002  0.15356  0.08094  1.0000
  H   H587      1.0  0.51776  0.08087  0.39643  1.0000
  C   C380      1.0  0.93559  0.10359  0.41330  1.0000
  H   H588      1.0  0.72680  0.23666  0.46869  1.0000
  H   H589      1.0  0.96345  0.10535  0.47318  1.0000
  H   H590      1.0  0.52589  0.19058  0.23266  1.0000
  C   C381      1.0  0.50378  0.13092  0.29634  1.0000
  S   S159      1.0  0.80114  0.24475  0.27958  1.0000
  H   H591      1.0  0.81250  0.21978  0.15112  1.0000
  H   H592      1.0  0.88595  0.05560  0.00131  1.0000
  C   C382      1.0  0.52087  0.15207  0.18808  1.0000
  C   C383      1.0  0.84331  0.21988  0.09659  1.0000
  H   H593      1.0  0.50294  0.15451  0.18667  1.0000
  C   C384      1.0  0.95859  0.15755  0.03060  1.0000
  C   C385      1.0  0.84724  0.01942  0.25731  1.0000
  H   H594      1.0  0.69069  0.22720  0.42250  1.0000
  C   C386      1.0  0.54398  0.18866  0.23034  1.0000
  N   N40       1.0  0.82991  0.23594  0.10056  1.0000
  C   C387      1.0  0.70384  0.19924  0.30390  1.0000
  C   C388      1.0  0.67922  0.19614  0.31354  1.0000
  C   C389      1.0  0.66321  0.17624  0.33722  1.0000
  C   C390      1.0  0.67163  0.15909  0.35153  1.0000
  C   C391      1.0  0.69633  0.16229  0.34220  1.0000
  C   C392      1.0  0.71240  0.18227  0.31858  1.0000
  H   H595      1.0  0.67241  0.20914  0.30233  1.0000
  H   H596      1.0  0.64427  0.17403  0.34407  1.0000
  H   H597      1.0  0.70304  0.14913  0.35309  1.0000
  H   H598      1.0  0.73125  0.18438  0.31142  1.0000
  C   C393      1.0  0.52819  0.15657  0.35008  1.0000
  H   H599      1.0  0.50043  0.07293  0.45795  1.0000
  S   S160      1.0  0.80900  0.01181  0.02544  1.0000
  C   C394      1.0  0.68634  0.20631  0.42328  1.0000
  C   C395      1.0  0.90353  0.10090  0.45567  1.0000
  C   C396      1.0  0.82002  0.03017  0.48558  1.0000
  C   C397      1.0  0.95349  0.13287  0.01716  1.0000
  H   H600      1.0  0.52813  0.12116  0.33206  1.0000
  H   H601      1.0  0.85016  0.21625  0.12349  1.0000
  H   H602      1.0  0.58668  0.19261  0.19889  1.0000
  H   H603      1.0  0.79502  0.23239  0.12428  1.0000
  H   H604      1.0  0.52582  0.02044  0.03125  1.0000
  H   H605      1.0  0.82997  0.20026  0.08383  1.0000
  H   H606      1.0  0.50811  0.05730  0.03744  1.0000
  H   H607      1.0  0.96728  0.14814  0.44977  1.0000
  H   H608      1.0  0.93793  0.14939  0.43622  1.0000
  C   C398      1.0  0.49439  0.14882  0.28888  1.0000
  H   H609      1.0  0.50532  0.14092  0.09649  1.0000
  H   H610      1.0  0.69007  0.16528  0.48597  1.0000
  H   H611      1.0  0.92521  0.08185  0.40891  1.0000
  H   H612      1.0  0.90001  0.10575  0.48349  1.0000
  N   N41       1.0  0.54483  0.17762  0.19444  1.0000
  C   C399      1.0  0.94600  0.13984  0.45506  1.0000
  C   C400      1.0  0.81966  0.00853  0.46742  1.0000
  H   H613      1.0  0.52891  0.19939  0.16565  1.0000
  H   H614      1.0  0.50734  0.11319  0.42450  1.0000
  H   H615      1.0  0.89230  0.07907  0.45242  1.0000
  H   H616      1.0  0.65547  0.19218  0.48179  1.0000
  H   H617      1.0  0.94723  0.15887  0.05246  1.0000
  H   H618      1.0  0.56116  0.20847  0.23555  1.0000
  H   H619      1.0  0.54656  0.18802  0.13818  1.0000
  C   C401      1.0  0.49722  0.07007  0.38525  1.0000
  S   S161      1.0  0.51835  0.13802  0.02305  1.0000
  C   C402      1.0  0.50396  0.15564  0.04337  1.0000
  H   H620      1.0  0.73257  0.21160  0.44870  1.0000
  H   H621      1.0  0.56761  0.15977  0.21478  1.0000
  C   C403      1.0  0.86383  0.02243  0.49233  1.0000
  H   H622      1.0  0.69811  0.20339  0.40217  1.0000
  H   H623      1.0  0.79329  0.20172  0.11152  1.0000
  C   C404      1.0  0.51891  0.17450  0.34241  1.0000
  N   N42       1.0  0.81963  0.09088  0.21780  1.0000
  C   C405      1.0  0.79698  0.07959  0.19145  1.0000
  C   C406      1.0  0.81999  0.11327  0.23775  1.0000
  C   C407      1.0  0.84423  0.10016  0.19825  1.0000
  C   C408      1.0  0.81746  0.07047  0.24350  1.0000
  H   H624      1.0  0.79605  0.06257  0.17601  1.0000
  H   H625      1.0  0.79829  0.09432  0.17115  1.0000
  H   H626      1.0  0.77806  0.07264  0.20515  1.0000
  H   H627      1.0  0.83712  0.12261  0.25737  1.0000
  H   H628      1.0  0.82137  0.12882  0.21884  1.0000
  H   H629      1.0  0.80183  0.10701  0.25314  1.0000
  H   H630      1.0  0.86185  0.10866  0.21708  1.0000
  H   H631      1.0  0.84652  0.11520  0.17818  1.0000
  H   H632      1.0  0.84448  0.08381  0.18290  1.0000
  H   H633      1.0  0.81736  0.05344  0.22902  1.0000
  H   H634      1.0  0.79913  0.06283  0.25885  1.0000
  H   H635      1.0  0.83445  0.07823  0.26344  1.0000
  H   H636      1.0  0.54391  0.17580  0.25275  1.0000
  C   C409      1.0  0.80667  0.22180  0.12279  1.0000
  H   H637      1.0  0.92788  0.11214  0.39227  1.0000
  H   H638      1.0  0.49683  0.07763  0.35769  1.0000
  C   C410      1.0  0.97900  0.18066  0.01641  1.0000
  N   N43       1.0  0.69219  0.19929  0.45965  1.0000
  H   H639      1.0  0.56973  0.16571  0.16685  1.0000
  H   H640      1.0  0.50936  0.08692  0.05465  1.0000
  H   H641      1.0  0.95679  0.11081  0.40837  1.0000
  C   C411      1.0  0.56824  0.17375  0.19367  1.0000
  C   C412      1.0  0.51237  0.01242  0.00791  1.0000
  H   H642      1.0  0.49791  0.11396  0.27853  1.0000
  C   C413      1.0  0.49682  0.17185  0.02337  1.0000
  H   H643      1.0  0.52139  0.14249  0.16212  1.0000
  Fe  Fe82      1.0  0.76364  0.23875  0.25062  1.0000
  C   C414      1.0  0.68490  0.17109  0.45951  1.0000
  H   H644      1.0  0.51823  0.13826  0.21045  1.0000
  C   C415      1.0  0.67704  0.20448  0.48706  1.0000
  H   H645      1.0  0.98308  0.19963  0.02752  1.0000
  H   H646      1.0  0.56412  0.21540  0.16939  1.0000
  H   H647      1.0  0.89485  0.10940  0.43606  1.0000
  H   H648      1.0  0.80304  0.03322  0.48315  1.0000
  C   C416      1.0  0.72060  0.21525  0.46872  1.0000
  H   H649      1.0  0.80735  0.22200  0.05028  1.0000
  C   C417      1.0  0.82143  0.24076  0.06445  1.0000
  C   C418      1.0  0.50224  0.17078  0.31184  1.0000
  H   H650      1.0  0.66338  0.15843  0.45423  1.0000
  H   H651      1.0  0.69490  0.16613  0.43786  1.0000
  H   H652      1.0  0.66532  0.19385  0.41477  1.0000
  H   H653      1.0  0.94461  0.14606  0.48322  1.0000
  H   H654      1.0  0.85546  0.00500  0.01691  1.0000
  H   H655      1.0  0.50646  0.08052  0.00672  1.0000
  H   H656      1.0  0.68146  0.22540  0.48736  1.0000
  H   H657      1.0  0.72571  0.21060  0.49612  1.0000
  H   H658      1.0  0.88070  0.01920  0.49497  1.0000
  C   C419      1.0  0.49998  0.07106  0.03343  1.0000
  H   H659      1.0  0.93135  0.07718  0.47553  1.0000
  H   H660      1.0  0.49523  0.18475  0.30631  1.0000
  H   H661      1.0  0.49239  0.04905  0.38235  1.0000
  S   S162      1.0  0.61150  0.15782  0.53586  1.0000
  Fe  Fe83      1.0  0.89560  0.14754  0.60227  1.0000
  S   S163      1.0  0.88843  0.10834  0.62384  1.0000
  S   S164      1.0  0.86762  0.16512  0.60404  1.0000
  Fe  Fe84      1.0  0.94906  0.15920  0.57180  1.0000
  S   S165      1.0  0.94557  0.12144  0.59192  1.0000
  H   H662      1.0  0.88301  0.10260  0.93471  1.0000
  Fe  Fe85      1.0  0.90349  0.10277  0.57053  1.0000
  S   S166      1.0  0.89276  0.06540  0.53709  1.0000
  Fe  Fe86      1.0  0.93109  0.13047  0.64300  1.0000
  S   S167      1.0  0.94573  0.12308  0.69733  1.0000
  S   S168      1.0  0.90794  0.14048  0.54732  1.0000
  S   S169      1.0  0.93736  0.16983  0.62454  1.0000
  Fe  Fe87      1.0  0.72541  0.18363  0.68076  1.0000
  S   S170      1.0  0.72492  0.15255  0.71757  1.0000
  S   S171      1.0  0.71366  0.17012  0.62175  1.0000
  C   C420      1.0  0.73413  0.11355  0.58575  1.0000
  S   S172      1.0  0.75747  0.19846  0.77834  1.0000
  Fe  Fe88      1.0  0.76736  0.18122  0.73012  1.0000
  S   S173      1.0  0.79910  0.16856  0.73422  1.0000
  Fe  Fe89      1.0  0.71481  0.17296  0.76158  1.0000
  S   S174      1.0  0.68533  0.15004  0.80443  1.0000
  S   S175      1.0  0.76843  0.21156  0.69185  1.0000
  S   S176      1.0  0.71224  0.20213  0.72399  1.0000
  Fe  Fe90      1.0  0.55556  0.13978  0.89617  1.0000
  S   S177      1.0  0.52131  0.10818  0.86391  1.0000
  S   S178      1.0  0.59270  0.16711  0.86621  1.0000
  Fe  Fe91      1.0  0.52121  0.13252  0.96218  1.0000
  Fe  Fe92      1.0  0.51122  0.08489  0.91547  1.0000
  H   H663      1.0  0.73630  0.13924  0.64679  1.0000
  H   H664      1.0  0.51417  0.13644  0.74775  1.0000
  S   S179      1.0  0.54723  0.11514  0.94645  1.0000
  S   S180      1.0  0.53280  0.16007  0.91504  1.0000
  H   H665      1.0  0.87818  0.03919  0.90297  1.0000
  C   C421      1.0  0.75110  0.13228  0.64544  1.0000
  H   H666      1.0  0.97233  0.12285  0.76436  1.0000
  C   C422      1.0  0.49552  0.01929  0.94981  1.0000
  H   H667      1.0  0.52647  0.05282  0.51604  1.0000
  C   C423      1.0  0.55849  0.18296  0.74290  1.0000
  C   C424      1.0  0.89132  0.09348  0.95388  1.0000
  H   H668      1.0  0.88742  0.09758  0.98186  1.0000
  H   H669      1.0  0.91309  0.10394  0.95174  1.0000
  C   C425      1.0  0.65854  0.15404  0.81925  1.0000
  C   C426      1.0  0.65423  0.17464  0.80744  1.0000
  C   C427      1.0  0.63389  0.17822  0.82196  1.0000
  C   C428      1.0  0.61713  0.16081  0.84760  1.0000
  C   C429      1.0  0.62091  0.13974  0.85851  1.0000
  C   C430      1.0  0.64167  0.13657  0.84467  1.0000
  H   H670      1.0  0.66674  0.18793  0.78744  1.0000
  H   H671      1.0  0.63113  0.19457  0.81330  1.0000
  H   H672      1.0  0.60827  0.12623  0.87827  1.0000
  H   H673      1.0  0.64477  0.12051  0.85392  1.0000
  C   C431      1.0  0.98181  0.17503  0.71313  1.0000
  H   H674      1.0  0.51199  0.13801  0.79609  1.0000
  H   H675      1.0  0.73863  0.11209  0.55697  1.0000
  H   H676      1.0  0.69273  0.23521  0.80427  1.0000
  H   H677      1.0  0.85584  0.21685  0.73980  1.0000
  Fe  Fe93      1.0  0.75544  0.22683  0.73904  1.0000
  H   H678      1.0  0.88450  0.03254  0.96740  1.0000
  C   C432      1.0  0.97079  0.14892  0.72398  1.0000
  H   H679      1.0  0.94060  0.10483  0.50544  1.0000
  H   H680      1.0  0.51932  0.22691  0.81862  1.0000
  H   H681      1.0  0.87835  0.06892  0.88876  1.0000
  H   H682      1.0  0.70691  0.22390  0.89977  1.0000
  C   C433      1.0  0.85059  0.16741  0.64197  1.0000
  C   C434      1.0  0.84772  0.15286  0.67327  1.0000
  C   C435      1.0  0.83218  0.15367  0.70146  1.0000
  C   C436      1.0  0.81922  0.16887  0.69861  1.0000
  C   C437      1.0  0.82271  0.18403  0.66781  1.0000
  C   C438      1.0  0.83826  0.18324  0.63965  1.0000
  H   H683      1.0  0.85710  0.14062  0.67549  1.0000
  H   H684      1.0  0.82986  0.14208  0.72535  1.0000
  H   H685      1.0  0.81331  0.19624  0.66553  1.0000
  H   H686      1.0  0.84058  0.19475  0.61568  1.0000
  C   C439      1.0  0.63907  0.15977  0.56039  1.0000
  C   C440      1.0  0.64669  0.17332  0.59406  1.0000
  C   C441      1.0  0.66917  0.17615  0.61366  1.0000
  C   C442      1.0  0.68437  0.16571  0.59942  1.0000
  C   C443      1.0  0.67671  0.15209  0.56578  1.0000
  C   C444      1.0  0.65398  0.14887  0.54651  1.0000
  H   H687      1.0  0.63520  0.18177  0.60495  1.0000
  H   H688      1.0  0.67493  0.18673  0.63947  1.0000
  H   H689      1.0  0.68829  0.14384  0.55470  1.0000
  C   C445      1.0  0.88647  0.06055  0.90950  1.0000
  C   C446      1.0  0.51272  0.03245  0.50950  1.0000
  C   C447      1.0  0.50214  0.20831  0.81176  1.0000
  N   N44       1.0  0.54884  0.16671  0.77540  1.0000
  C   C448      1.0  0.55551  0.18405  0.80796  1.0000
  H   H690      1.0  0.71956  0.12099  0.58589  1.0000
  C   C449      1.0  0.52000  0.15014  0.77163  1.0000
  C   C450      1.0  0.56134  0.14974  0.77916  1.0000
  H   H691      1.0  0.68145  0.19991  0.51491  1.0000
  H   H692      1.0  0.97411  0.17985  0.68897  1.0000
  H   H693      1.0  0.84572  0.05444  0.97746  1.0000
  C   C451      1.0  0.72943  0.22572  0.83638  1.0000
  C   C452      1.0  0.69942  0.23034  0.87584  1.0000
  H   H694      1.0  0.49878  0.02348  0.56402  1.0000
  H   H695      1.0  0.84191  0.05987  0.93033  1.0000
  H   H696      1.0  0.55487  0.13758  0.80382  1.0000
  H   H697      1.0  0.73787  0.21905  0.85894  1.0000
  N   N45       1.0  0.75815  0.13107  0.60757  1.0000
  C   C453      1.0  0.77709  0.12079  0.60683  1.0000
  C   C454      1.0  0.77012  0.15769  0.59229  1.0000
  H   H698      1.0  0.74264  0.11270  0.65826  1.0000
  H   H699      1.0  0.78359  0.12038  0.57885  1.0000
  H   H700      1.0  0.79506  0.13321  0.62396  1.0000
  H   H701      1.0  0.78808  0.17157  0.60821  1.0000
  H   H702      1.0  0.75634  0.16603  0.59245  1.0000
  H   H703      1.0  0.77583  0.15756  0.56379  1.0000
  C   C455      1.0  0.49694  0.01572  0.53671  1.0000
  H   H704      1.0  0.76846  0.14601  0.66262  1.0000
  H   H705      1.0  0.58017  0.19583  0.74504  1.0000
  H   H706      1.0  0.72436  0.09333  0.59668  1.0000
  C   C456      1.0  0.51303  0.02929  0.97991  1.0000
  H   H707      1.0  0.50999  0.16233  0.76824  1.0000
  H   H708      1.0  0.84215  0.06429  0.52107  1.0000
  N   N46       1.0  0.88011  0.06491  0.94656  1.0000
  C   C457      1.0  0.84216  0.04783  0.50711  1.0000
  H   H709      1.0  0.54760  0.17245  0.83284  1.0000
  H   H710      1.0  0.76853  0.10051  0.61743  1.0000
  H   H711      1.0  0.84214  0.03025  0.94432  1.0000
  H   H712      1.0  0.82584  0.23625  0.81327  1.0000
  C   C458      1.0  0.98074  0.14302  0.75581  1.0000
  H   H713      1.0  0.64801  0.13807  0.52089  1.0000
  H   H714      1.0  0.82571  0.20899  0.78979  1.0000
  H   H715      1.0  0.57716  0.19597  0.81274  1.0000
  H   H716      1.0  0.58312  0.16160  0.78201  1.0000
  C   C459      1.0  0.85125  0.05184  0.94968  1.0000
  H   H717      1.0  0.68253  0.21239  0.86349  1.0000
  N   N47       1.0  0.72018  0.24391  0.84950  1.0000
  C   C460      1.0  0.89145  0.05375  0.97317  1.0000
  H   H718      1.0  0.52704  0.05003  0.98163  1.0000
  H   H719      1.0  0.55387  0.17052  0.71781  1.0000
  Fe  Fe94      1.0  0.49850  0.12757  0.88430  1.0000
  C   C461      1.0  0.98870  0.15476  0.97414  1.0000
  C   C462      1.0  0.86413  0.04390  0.51078  1.0000
  H   H720      1.0  0.90812  0.07003  0.90640  1.0000
  C   C463      1.0  0.49751  0.18577  0.83146  1.0000
  H   H721      1.0  0.74482  0.23531  0.81612  1.0000
  H   H722      1.0  0.54932  0.19594  0.73923  1.0000
  H   H723      1.0  0.69162  0.24330  0.88596  1.0000
  H   H724      1.0  0.51093  0.18714  0.85346  1.0000
  H   H725      1.0  0.91333  0.06415  0.97317  1.0000
  H   H726      1.0  0.55654  0.13613  0.75535  1.0000
  H   H727      1.0  0.54734  0.19789  0.80545  1.0000
  H   H728      1.0  0.71313  0.20777  0.82302  1.0000
  S   S181      1.0  0.98552  0.18951  0.54415  1.0000
  H   H729      1.0  0.49981  0.17367  0.99447  1.0000
  H   H730      1.0  0.81778  0.22455  0.73090  1.0000
  C   C464      1.0  0.86749  0.23775  0.74940  1.0000
  H   H731      1.0  0.88349  0.23898  0.76813  1.0000
  H   H732      1.0  0.96499  0.11269  0.97825  1.0000
  H   H733      1.0  0.98612  0.14123  0.52246  1.0000
  C   C465      1.0  0.83840  0.22989  0.79868  1.0000
  H   H734      1.0  0.85343  0.23035  0.81864  1.0000
  C   C466      1.0  0.83007  0.24507  0.74135  1.0000
  C   C467      1.0  0.96868  0.13165  0.98884  1.0000
  N   N48       1.0  0.85073  0.24680  0.76748  1.0000
  S   S182      1.0  0.49275  0.23554  0.75753  1.0000
  S   S183      1.0  0.49382  0.04002  0.91538  1.0000
  H   H735      1.0  0.58861  0.47613  0.33308  1.0000
  C   C468      1.0  0.51263  0.31026  0.31083  1.0000
  S   S184      1.0  0.83805  0.46387  0.43257  1.0000
  H   H736      1.0  0.53737  0.38694  0.31618  1.0000
  S   S185      1.0  0.88620  0.45260  0.46135  1.0000
  H   H737      1.0  0.94452  0.45720  0.04457  1.0000
  Fe  Fe95      1.0  0.85741  0.44033  0.41300  1.0000
  S   S186      1.0  0.82880  0.39849  0.39332  1.0000
  C   C469      1.0  0.97565  0.43509  0.03648  1.0000
  S   S187      1.0  0.88520  0.47180  0.37649  1.0000
  S   S188      1.0  0.86385  0.38601  0.04851  1.0000
  Fe  Fe96      1.0  0.53144  0.39876  0.46770  1.0000
  Fe  Fe97      1.0  0.56325  0.42781  0.40165  1.0000
  S   S189      1.0  0.52757  0.42534  0.37254  1.0000
  S   S190      1.0  0.60423  0.44425  0.37912  1.0000
  Fe  Fe98      1.0  0.51819  0.43691  0.42666  1.0000
  H   H738      1.0  0.78408  0.47045  0.28519  1.0000
  H   H739      1.0  0.53779  0.49439  0.04933  1.0000
  S   S191      1.0  0.55529  0.44168  0.45458  1.0000
  S   S192      1.0  0.54296  0.38522  0.41744  1.0000
  Fe  Fe99      1.0  0.79299  0.26691  0.18231  1.0000
  S   S193      1.0  0.83171  0.27465  0.20700  1.0000
  S   S194      1.0  0.78958  0.27771  0.12371  1.0000
  Fe  Fe100     1.0  0.81886  0.28590  0.25811  1.0000
  S   S195      1.0  0.84967  0.32428  0.28561  1.0000
  S   S196      1.0  0.78120  0.28072  0.23187  1.0000
  H   H740      1.0  0.53820  0.35687  0.26889  1.0000
  C   C470      1.0  0.84390  0.35524  0.06839  1.0000
  C   C471      1.0  0.84824  0.35193  0.10533  1.0000
  C   C472      1.0  0.83205  0.32819  0.12262  1.0000
  C   C473      1.0  0.81119  0.30761  0.10310  1.0000
  C   C474      1.0  0.80717  0.31077  0.06604  1.0000
  C   C475      1.0  0.82349  0.33441  0.04869  1.0000
  H   H741      1.0  0.86420  0.36784  0.12059  1.0000
  H   H742      1.0  0.83558  0.32585  0.15100  1.0000
  H   H743      1.0  0.79111  0.29496  0.05070  1.0000
  H   H744      1.0  0.81993  0.33670  0.02027  1.0000
  H   H745      1.0  0.98669  0.45666  0.04247  1.0000
  H   H746      1.0  0.60325  0.43430  0.28364  1.0000
  C   C476      1.0  0.83519  0.37809  0.36371  1.0000
  C   C477      1.0  0.81410  0.35407  0.35094  1.0000
  C   C478      1.0  0.81821  0.33720  0.32742  1.0000
  C   C479      1.0  0.84356  0.34409  0.31665  1.0000
  C   C480      1.0  0.86468  0.36806  0.32951  1.0000
  C   C481      1.0  0.86053  0.38507  0.35272  1.0000
  H   H747      1.0  0.79445  0.34844  0.35944  1.0000
  H   H748      1.0  0.80178  0.31880  0.31785  1.0000
  H   H749      1.0  0.88438  0.37356  0.32137  1.0000
  H   H750      1.0  0.87694  0.40341  0.36245  1.0000
  H   H751      1.0  0.59690  0.48959  0.42057  1.0000
  C   C482      1.0  0.93511  0.39462  0.04220  1.0000
  H   H752      1.0  0.75592  0.46382  0.09547  1.0000
  H   H753      1.0  0.52442  0.34375  0.34733  1.0000
  H   H754      1.0  0.53199  0.31184  0.31088  1.0000
  H   H755      1.0  0.86578  0.27279  0.10241  1.0000
  C   C483      1.0  0.66013  0.49305  0.31119  1.0000
  C   C484      1.0  0.62056  0.46821  0.34589  1.0000
  N   N49       1.0  0.94934  0.42295  0.05208  1.0000
  H   H756      1.0  0.94941  0.46718  0.48421  1.0000
  C   C485      1.0  0.55415  0.37418  0.25577  1.0000
  H   H757      1.0  0.75131  0.45717  0.19605  1.0000
  H   H758      1.0  0.56274  0.49506  0.45483  1.0000
  C   C486      1.0  0.50484  0.31492  0.43201  1.0000
  C   C487      1.0  0.73344  0.45531  0.18114  1.0000
  Fe  Fe101     1.0  0.91280  0.48569  0.42628  1.0000
  H   H759      1.0  0.72007  0.47541  0.10029  1.0000
  C   C488      1.0  0.95208  0.42633  0.09202  1.0000
  H   H760      1.0  0.91467  0.38509  0.05199  1.0000
  H   H761      1.0  0.56798  0.36849  0.32416  1.0000
  N   N50       1.0  0.57013  0.39536  0.28266  1.0000
  S   S197      1.0  0.50714  0.46997  0.42489  1.0000
  C   C489      1.0  0.75965  0.49585  0.15067  1.0000
  H   H762      1.0  0.60378  0.41267  0.24914  1.0000
  C   C490      1.0  0.60855  0.48090  0.32735  1.0000
  H   H763      1.0  0.72506  0.46483  0.19893  1.0000
  H   H764      1.0  0.59599  0.37943  0.29630  1.0000
  H   H765      1.0  0.73626  0.43343  0.11780  1.0000
  C   C491      1.0  0.64632  0.47426  0.33746  1.0000
  H   H766      1.0  0.85509  0.25838  0.14590  1.0000
  H   H767      1.0  0.93184  0.43355  0.00745  1.0000
  S   S198      1.0  0.49864  0.26817  0.26422  1.0000
  H   H768      1.0  0.70744  0.47620  0.14357  1.0000
  C   C492      1.0  0.50845  0.32846  0.33130  1.0000
  H   H769      1.0  0.81909  0.47778  0.33169  1.0000
  Fe  Fe102     1.0  0.86935  0.47901  0.47727  1.0000
  N   N51       1.0  0.82804  0.37523  0.22007  1.0000
  C   C493      1.0  0.84586  0.38907  0.25165  1.0000
  C   C494      1.0  0.81996  0.34690  0.22135  1.0000
  C   C495      1.0  0.84175  0.38598  0.18611  1.0000
  C   C496      1.0  0.80449  0.37883  0.22126  1.0000
  H   H770      1.0  0.85358  0.41071  0.25072  1.0000
  H   H771      1.0  0.86294  0.38520  0.25319  1.0000
  H   H772      1.0  0.83557  0.38244  0.27762  1.0000
  H   H773      1.0  0.80606  0.33565  0.19836  1.0000
  H   H774      1.0  0.83716  0.34332  0.21995  1.0000
  H   H775      1.0  0.81021  0.33829  0.24712  1.0000
  H   H776      1.0  0.82891  0.37568  0.16176  1.0000
  H   H777      1.0  0.85967  0.38361  0.18466  1.0000
  H   H778      1.0  0.84798  0.40730  0.18393  1.0000
  H   H779      1.0  0.79065  0.36871  0.19773  1.0000
  H   H780      1.0  0.80987  0.40003  0.22088  1.0000
  H   H781      1.0  0.79360  0.37054  0.24646  1.0000
  Fe  Fe103     1.0  0.50671  0.38365  0.39175  1.0000
  C   C497      1.0  0.58279  0.38565  0.30949  1.0000
  C   C498      1.0  0.75069  0.45458  0.12252  1.0000
  H   H782      1.0  0.56631  0.36712  0.24144  1.0000
  C   C499      1.0  0.96993  0.48190  0.48496  1.0000
  C   C500      1.0  0.84816  0.26136  0.11864  1.0000
  H   H783      1.0  0.54457  0.38095  0.23487  1.0000
  C   C501      1.0  0.81622  0.49408  0.32297  1.0000
  H   H784      1.0  0.91452  0.42731  0.04867  1.0000
  H   H785      1.0  0.59489  0.40114  0.33031  1.0000
  Fe  Fe104     1.0  0.86715  0.49570  0.39820  1.0000
  H   H786      1.0  0.58186  0.42640  0.24405  1.0000
  S   S199      1.0  0.60772  0.48670  0.02366  1.0000
  C   C502      1.0  0.59062  0.41814  0.26399  1.0000
  H   H787      1.0  0.93362  0.39150  0.01221  1.0000
  C   C503      1.0  0.79640  0.48999  0.29658  1.0000
  C   C504      1.0  0.55299  0.40354  0.30150  1.0000
  H   H788      1.0  0.50739  0.32704  0.45691  1.0000
  C   C505      1.0  0.93444  0.43583  0.03754  1.0000
  H   H789      1.0  0.98772  0.42625  0.04731  1.0000
  H   H790      1.0  0.52281  0.31274  0.43005  1.0000
  H   H791      1.0  0.56449  0.41961  0.32179  1.0000
  H   H792      1.0  0.54301  0.41091  0.28215  1.0000
  H   H793      1.0  0.70039  0.44519  0.12305  1.0000
  H   H794      1.0  0.65578  0.46450  0.35154  1.0000
  H   H795      1.0  0.93247  0.41740  0.10442  1.0000
  H   H796      1.0  0.96271  0.44754  0.10027  1.0000
  H   H797      1.0  0.50399  0.32642  0.40842  1.0000
  H   H798      1.0  0.83848  0.27375  0.12267  1.0000
  S   S200      1.0  0.49373  0.39478  0.44310  1.0000
  H   H799      1.0  0.55963  0.49352  0.01641  1.0000
  H   H800      1.0  0.94525  0.38403  0.05380  1.0000
  H   H801      1.0  0.96324  0.41686  0.10403  1.0000
  H   H802      1.0  0.71890  0.43406  0.17843  1.0000
  H   H803      1.0  0.77821  0.49818  0.16390  1.0000
  H   H804      1.0  0.81139  0.25302  0.06681  1.0000
  H   H805      1.0  0.76882  0.45568  0.13545  1.0000
  N   N52       1.0  0.73989  0.46789  0.14539  1.0000
  C   C506      1.0  0.50111  0.48646  0.46143  1.0000
  H   H806      1.0  0.97416  0.43240  0.00637  1.0000
  H   H807      1.0  0.55712  0.48467  0.38858  1.0000
  H   H808      1.0  0.49635  0.27053  0.39754  1.0000
  C   C507      1.0  0.71588  0.46599  0.12730  1.0000
  H   H809      1.0  0.49933  0.27121  0.46516  1.0000
  H   H810      1.0  0.79578  0.48101  0.44923  1.0000
  H   H811      1.0  0.68003  0.49767  0.30529  1.0000
  H   H812      1.0  0.83843  0.25137  0.04679  1.0000
  H   H813      1.0  0.56898  0.49727  0.06364  1.0000
  H   H814      1.0  0.78064  0.49638  0.42248  1.0000
  H   H815      1.0  0.82068  0.42057  0.69191  1.0000
  S   S201      1.0  0.55317  0.45104  0.95319  1.0000
  H   H816      1.0  0.81337  0.46688  0.52482  1.0000
  H   H817      1.0  0.50452  0.41329  0.89090  1.0000
  S   S202      1.0  0.60830  0.46213  0.91664  1.0000
  Fe  Fe105     1.0  0.56489  0.43772  0.90285  1.0000
  S   S203      1.0  0.54787  0.39486  0.88465  1.0000
  Fe  Fe106     1.0  0.59633  0.47886  0.96347  1.0000
  S   S204      1.0  0.56205  0.46768  0.86776  1.0000
  S   S205      1.0  0.77191  0.27012  0.75402  1.0000
  H   H818      1.0  0.79878  0.43297  0.73984  1.0000
  H   H819      1.0  0.87662  0.28766  0.75759  1.0000
  S   S206      1.0  0.89305  0.38319  0.95792  1.0000
  Fe  Fe107     1.0  0.85606  0.41841  0.91865  1.0000
  S   S207      1.0  0.88300  0.40958  0.88534  1.0000
  S   S208      1.0  0.83016  0.43542  0.89627  1.0000
  Fe  Fe108     1.0  0.86321  0.36983  0.91126  1.0000
  S   S209      1.0  0.85154  0.32891  0.88785  1.0000
  Fe  Fe109     1.0  0.91030  0.42382  0.93543  1.0000
  S   S210      1.0  0.95531  0.44721  0.93475  1.0000
  S   S211      1.0  0.83480  0.37767  0.94221  1.0000
  S   S212      1.0  0.88450  0.43492  0.96718  1.0000
  S   S213      1.0  0.52102  0.49484  0.91991  1.0000
  H   H820      1.0  0.51027  0.46684  0.50446  1.0000
  C   C508      1.0  0.52068  0.34849  0.57700  1.0000
  C   C509      1.0  0.51403  0.35528  0.54320  1.0000
  H   H821      1.0  0.63599  0.44289  0.86025  1.0000
  H   H822      1.0  0.53935  0.36160  0.59049  1.0000
  C   C510      1.0  0.97705  0.47416  0.96348  1.0000
  H   H823      1.0  0.75819  0.27824  0.84790  1.0000
  H   H824      1.0  0.59023  0.44129  0.78632  1.0000
  H   H825      1.0  0.49478  0.43092  0.83465  1.0000
  C   C511      1.0  0.79961  0.48148  0.56883  1.0000
  H   H826      1.0  0.52321  0.34150  0.85763  1.0000
  C   C512      1.0  0.49999  0.37984  0.79389  1.0000
  H   H827      1.0  0.60541  0.41446  0.86972  1.0000
  C   C513      1.0  0.86125  0.47278  0.84654  1.0000
  C   C514      1.0  0.83679  0.45942  0.86241  1.0000
  C   C515      1.0  0.81679  0.46537  0.85135  1.0000
  H   H828      1.0  0.73611  0.28123  0.87807  1.0000
  H   H829      1.0  0.87683  0.46845  0.85476  1.0000
  H   H830      1.0  0.58334  0.39627  0.77337  1.0000
  H   H831      1.0  0.98042  0.46522  0.53077  1.0000
  H   H832      1.0  0.61164  0.46031  0.82362  1.0000
  C   C516      1.0  0.98758  0.48080  0.51125  1.0000
  C   C517      1.0  0.59208  0.39651  0.80078  1.0000
  C   C518      1.0  0.79354  0.28608  0.79184  1.0000
  C   C519      1.0  0.80254  0.31303  0.79837  1.0000
  C   C520      1.0  0.81982  0.32637  0.82817  1.0000
  C   C521      1.0  0.82845  0.31286  0.85150  1.0000
  C   C522      1.0  0.81912  0.28581  0.84525  1.0000
  C   C523      1.0  0.80159  0.27243  0.81577  1.0000
  H   H833      1.0  0.79627  0.32375  0.78017  1.0000
  H   H834      1.0  0.82686  0.34720  0.83270  1.0000
  H   H835      1.0  0.82554  0.27520  0.86341  1.0000
  H   H836      1.0  0.78552  0.43229  0.67532  1.0000
  H   H837      1.0  0.57557  0.38724  0.81964  1.0000
  H   H838      1.0  0.62601  0.43552  0.75982  1.0000
  H   H839      1.0  0.49348  0.39058  0.77616  1.0000
  H   H840      1.0  0.60145  0.38365  0.79946  1.0000
  C   C524      1.0  0.52603  0.37930  0.84671  1.0000
  C   C525      1.0  0.51783  0.39310  0.82323  1.0000
  C   C526      1.0  0.83524  0.44177  0.68977  1.0000
  C   C527      1.0  0.51689  0.35236  0.83979  1.0000
  H   H841      1.0  0.52524  0.41395  0.82768  1.0000
  H   H842      1.0  0.79431  0.25161  0.81160  1.0000
  C   C528      1.0  0.50189  0.49378  0.95731  1.0000
  H   H843      1.0  0.84216  0.44502  0.66147  1.0000
  C   C529      1.0  0.63311  0.43495  0.78804  1.0000
  H   H844      1.0  0.63152  0.41055  0.85069  1.0000
  H   H845      1.0  0.64394  0.42344  0.78735  1.0000
  H   H846      1.0  0.64762  0.45552  0.79631  1.0000
  H   H847      1.0  0.58110  0.43170  0.83208  1.0000
  C   C530      1.0  0.62149  0.42283  0.85006  1.0000
  Fe  Fe110     1.0  0.55327  0.48291  0.91910  1.0000
  H   H848      1.0  0.83861  0.25767  0.71751  1.0000
  H   H849      1.0  0.80743  0.45675  0.64524  1.0000
  H   H850      1.0  0.85238  0.44577  0.70827  1.0000
  H   H851      1.0  0.79220  0.46580  0.67989  1.0000
  C   C531      1.0  0.81456  0.45357  0.73683  1.0000
  H   H852      1.0  0.83091  0.45699  0.75655  1.0000
  N   N53       1.0  0.61117  0.42354  0.81313  1.0000
  C   C532      1.0  0.80122  0.45308  0.67385  1.0000
  C   C533      1.0  0.80655  0.49776  0.60012  1.0000
  H   H853      1.0  0.85467  0.28188  0.79374  1.0000
  C   C534      1.0  0.49972  0.49535  0.52582  1.0000
  C   C535      1.0  0.50351  0.32473  0.59334  1.0000
  H   H854      1.0  0.70252  0.26623  0.82703  1.0000
  H   H855      1.0  0.77911  0.47001  0.56036  1.0000
  H   H856      1.0  0.51130  0.46847  0.98990  1.0000
  C   C536      1.0  0.82114  0.48452  0.82505  1.0000
  H   H857      1.0  0.88246  0.27644  0.80058  1.0000
  H   H858      1.0  0.79781  0.45521  0.86347  1.0000
  C   C537      1.0  0.84372  0.48665  0.69651  1.0000
  H   H859      1.0  0.75151  0.26166  0.89029  1.0000
  S   S214      1.0  0.53623  0.38547  0.52407  1.0000
  C   C538      1.0  0.96803  0.48733  0.98611  1.0000
  N   N54       1.0  0.82366  0.45876  0.69924  1.0000
  S   S215      1.0  0.87072  0.49228  0.53611  1.0000
  H   H860      1.0  0.66174  0.49168  0.87202  1.0000
  C   C539      1.0  0.81899  0.47975  0.54858  1.0000
  H   H861      1.0  0.81677  0.25145  0.75394  1.0000
  H   H862      1.0  0.80673  0.46682  0.74555  1.0000
  C   C540      1.0  0.59794  0.43991  0.81378  1.0000
  C   C541      1.0  0.74243  0.26724  0.86727  1.0000
  H   H863      1.0  0.50900  0.31955  0.61914  1.0000
  H   H864      1.0  0.86037  0.49205  0.71660  1.0000
  Fe  Fe111     1.0  0.60497  0.49295  0.88347  1.0000
  C   C542      1.0  0.86686  0.27438  0.78041  1.0000
  H   H865      1.0  0.72475  0.26238  0.79779  1.0000
  H   H866      1.0  0.50218  0.49125  0.55386  1.0000
  H   H867      1.0  0.92214  0.49702  0.58086  1.0000
  H   H868      1.0  0.50350  0.43885  0.91758  1.0000
  H   H869      1.0  0.50326  0.36181  0.64269  1.0000
  H   H870      1.0  0.49234  0.31837  0.80537  1.0000
  Fe  Fe112     1.0  0.86578  0.39327  0.98737  1.0000
  C   C543      1.0  0.70954  0.25231  0.81832  1.0000
  C   C544      1.0  0.49938  0.33918  0.81013  1.0000
  H   H871      1.0  0.80557  0.48893  0.81710  1.0000
  H   H872      1.0  0.94739  0.48197  0.98507  1.0000
  H   H873      1.0  0.85186  0.49107  0.66897  1.0000
  H   H874      1.0  0.49572  0.36795  0.68743  1.0000
  C   C545      1.0  0.86567  0.49207  0.82038  1.0000
  H   H875      1.0  0.70062  0.48827  0.85226  1.0000
  H   H876      1.0  0.49491  0.45699  0.86127  1.0000
  C   C546      1.0  0.84550  0.49417  0.55970  1.0000
  C   C547      1.0  0.50077  0.47964  0.98847  1.0000
  H   H877      1.0  0.87675  0.24969  0.72526  1.0000
  H   H878      1.0  0.96356  0.49822  0.56133  1.0000
  H   H879      1.0  0.49374  0.39526  0.61605  1.0000
  C   C548      1.0  0.69275  0.49837  0.83553  1.0000
  H   H880      1.0  0.65900  0.49833  0.99609  1.0000
  C   C549      1.0  0.84570  0.49814  0.80960  1.0000
  C   C550      1.0  0.50433  0.48146  0.49783  1.0000
  S   S216      1.0  0.87126  0.70539  0.10045  1.0000
  Fe  Fe113     1.0  0.75331  0.53342  0.23227  1.0000
  S   S217      1.0  0.74587  0.56284  0.26332  1.0000
  H   H881      1.0  0.61731  0.51472  0.39050  1.0000
  Fe  Fe114     1.0  0.72652  0.53903  0.16250  1.0000
  S   S218      1.0  0.71693  0.56826  0.18829  1.0000
  S   S219      1.0  0.71998  0.52719  0.10275  1.0000
  Fe  Fe115     1.0  0.75834  0.58705  0.21216  1.0000
  S   S220      1.0  0.78222  0.63209  0.20874  1.0000
  Fe  Fe116     1.0  0.70514  0.54172  0.23672  1.0000
  S   S221      1.0  0.66530  0.53077  0.26082  1.0000
  S   S222      1.0  0.76858  0.55909  0.18357  1.0000
  S   S223      1.0  0.50272  0.72384  0.37372  1.0000
  C   C551      1.0  0.60639  0.51114  0.41599  1.0000
  H   H882      1.0  0.50439  0.64035  0.39271  1.0000
  Fe  Fe117     1.0  0.52691  0.70785  0.24920  1.0000
  H   H883      1.0  0.61516  0.56059  0.42791  1.0000
  Fe  Fe118     1.0  0.52038  0.73315  0.31782  1.0000
  H   H884      1.0  0.76440  0.50642  0.12453  1.0000
  S   S224      1.0  0.55216  0.72425  0.30059  1.0000
  C   C552      1.0  0.66719  0.51324  0.10015  1.0000
  H   H885      1.0  0.49627  0.66075  0.29811  1.0000
  H   H886      1.0  0.55839  0.52314  0.44744  1.0000
  H   H887      1.0  0.57650  0.50959  0.35723  1.0000
  H   H888      1.0  0.88533  0.70428  0.25006  1.0000
  H   H889      1.0  0.87612  0.72976  0.20390  1.0000
  H   H890      1.0  0.82990  0.56481  0.44927  1.0000
  C   C553      1.0  0.56724  0.50622  0.38403  1.0000
  H   H891      1.0  0.61060  0.55313  0.37999  1.0000
  H   H892      1.0  0.91477  0.72039  0.15963  1.0000
  H   H893      1.0  0.51793  0.68304  0.36242  1.0000
  H   H894      1.0  0.56029  0.71369  0.48004  1.0000
  C   C554      1.0  0.49721  0.65340  0.40207  1.0000
  H   H895      1.0  0.60181  0.53407  0.00602  1.0000
  S   S225      1.0  0.85834  0.52580  0.36998  1.0000
  H   H896      1.0  0.70256  0.51404  0.02793  1.0000
  C   C555      1.0  0.49524  0.69426  0.39629  1.0000
  C   C556      1.0  0.83262  0.51933  0.33739  1.0000
  C   C557      1.0  0.82856  0.54027  0.32579  1.0000
  C   C558      1.0  0.80852  0.53613  0.29975  1.0000
  H   H897      1.0  0.84120  0.55990  0.33667  1.0000
  H   H898      1.0  0.80584  0.55247  0.29078  1.0000
  C   C559      1.0  0.84735  0.68588  0.13212  1.0000
  C   C560      1.0  0.83450  0.69589  0.15353  1.0000
  C   C561      1.0  0.81506  0.67930  0.17734  1.0000
  C   C562      1.0  0.80817  0.65252  0.18010  1.0000
  C   C563      1.0  0.82154  0.64274  0.15941  1.0000
  C   C564      1.0  0.84076  0.65923  0.13535  1.0000
  H   H899      1.0  0.83917  0.71628  0.15127  1.0000
  H   H900      1.0  0.80496  0.68718  0.19330  1.0000
  H   H901      1.0  0.81705  0.62242  0.16189  1.0000
  H   H902      1.0  0.85073  0.65130  0.11919  1.0000
  H   H903      1.0  0.85090  0.54330  0.48668  1.0000
  C   C565      1.0  0.55877  0.50301  0.04232  1.0000
  C   C566      1.0  0.49407  0.64896  0.19281  1.0000
  H   H904      1.0  0.74834  0.61920  0.03236  1.0000
  C   C567      1.0  0.79980  0.49874  0.43330  1.0000
  C   C568      1.0  0.97896  0.50185  0.45945  1.0000
  H   H905      1.0  0.83085  0.54738  0.40948  1.0000
  C   C569      1.0  0.57340  0.51630  0.44839  1.0000
  C   C570      1.0  0.64839  0.50619  0.29317  1.0000
  H   H906      1.0  0.56713  0.56011  0.00540  1.0000
  H   H907      1.0  0.66928  0.51721  0.12913  1.0000
  N   N55       1.0  0.81430  0.52314  0.45560  1.0000
  H   H908      1.0  0.75230  0.50604  0.16872  1.0000
  H   H909      1.0  0.95498  0.74388  0.22382  1.0000
  N   N56       1.0  0.75638  0.61319  0.08786  1.0000
  C   C571      1.0  0.76969  0.60061  0.10788  1.0000
  C   C572      1.0  0.76923  0.64151  0.09790  1.0000
  C   C573      1.0  0.72846  0.60063  0.09738  1.0000
  C   C574      1.0  0.75817  0.60992  0.04843  1.0000
  H   H910      1.0  0.76067  0.57928  0.10095  1.0000
  H   H911      1.0  0.76853  0.60255  0.13773  1.0000
  H   H912      1.0  0.79082  0.60960  0.10145  1.0000
  H   H913      1.0  0.79054  0.65151  0.09201  1.0000
  H   H914      1.0  0.76004  0.65185  0.08293  1.0000
  H   H915      1.0  0.76785  0.64454  0.12748  1.0000
  H   H916      1.0  0.71753  0.60904  0.08196  1.0000
  H   H917      1.0  0.72650  0.60348  0.12680  1.0000
  H   H918      1.0  0.71843  0.57902  0.09155  1.0000
  H   H919      1.0  0.77903  0.61911  0.04044  1.0000
  H   H920      1.0  0.74864  0.58870  0.04018  1.0000
  H   H921      1.0  0.62111  0.52107  0.43866  1.0000
  N   N57       1.0  0.57109  0.53189  0.03925  1.0000
  C   C575      1.0  0.68585  0.51142  0.04314  1.0000
  S   S226      1.0  0.76805  0.50495  0.25021  1.0000
  H   H922      1.0  0.90913  0.73453  0.27207  1.0000
  S   S227      1.0  0.89726  0.51249  0.44420  1.0000
  H   H923      1.0  0.53676  0.53149  0.01450  1.0000
  H   H924      1.0  0.54741  0.53588  0.08000  1.0000
  S   S228      1.0  0.71187  0.51119  0.20854  1.0000
  H   H925      1.0  0.57756  0.56530  0.07237  1.0000
  H   H926      1.0  0.91845  0.71030  0.25898  1.0000
  H   H927      1.0  0.52911  0.71337  0.47936  1.0000
  C   C576      1.0  0.50486  0.67753  0.38484  1.0000
  C   C577      1.0  0.60025  0.54908  0.40605  1.0000
  H   H928      1.0  0.57815  0.53878  0.09688  1.0000
  C   C578      1.0  0.68889  0.51668  0.08077  1.0000
  H   H929      1.0  0.55162  0.51222  0.38228  1.0000
  H   H930      1.0  0.88889  0.69610  0.18511  1.0000
  H   H931      1.0  0.53122  0.68539  0.46263  1.0000
  C   C579      1.0  0.56847  0.54350  0.07367  1.0000
  C   C580      1.0  0.90635  0.71972  0.25059  1.0000
  C   C581      1.0  0.59922  0.54250  0.03181  1.0000
  H   H932      1.0  0.85246  0.52735  0.44575  1.0000
  S   S229      1.0  0.51854  0.66766  0.22673  1.0000
  C   C582      1.0  0.90978  0.71181  0.18709  1.0000
  C   C583      1.0  0.79250  0.51098  0.28472  1.0000
  C   C584      1.0  0.83978  0.52563  0.46871  1.0000
  C   C585      1.0  0.55787  0.53851  0.00926  1.0000
  H   H933      1.0  0.92213  0.70229  0.19328  1.0000
  N   N58       1.0  0.58683  0.52067  0.41364  1.0000
  C   C586      1.0  0.81899  0.54605  0.43336  1.0000
  S   S230      1.0  0.95764  0.50424  0.42577  1.0000
  C   C587      1.0  0.98563  0.50723  0.01055  1.0000
  H   H934      1.0  0.97832  0.51701  0.02830  1.0000
  H   H935      1.0  0.58748  0.52676  0.47151  1.0000
  N   N59       1.0  0.91386  0.73207  0.21486  1.0000
  H   H936      1.0  0.83712  0.50821  0.48432  1.0000
  H   H937      1.0  0.60930  0.56425  0.02946  1.0000
  H   H938      1.0  0.60972  0.53746  0.05360  1.0000
  C   C588      1.0  0.79863  0.52212  0.48702  1.0000
  H   H939      1.0  0.58601  0.55684  0.40403  1.0000
  H   H940      1.0  0.61320  0.50991  0.28741  1.0000
  S   S231      1.0  0.54710  0.74644  0.22124  1.0000
  C   C589      1.0  0.62249  0.49993  0.30136  1.0000
  C   C590      1.0  0.64254  0.50418  0.08209  1.0000
  C   C591      1.0  0.66120  0.50252  0.02501  1.0000
  H   H941      1.0  0.80022  0.54473  0.42264  1.0000
  C   C592      1.0  0.53893  0.70111  0.48417  1.0000
  H   H942      1.0  0.50229  0.61641  0.19548  1.0000
  C   C593      1.0  0.89738  0.74437  0.20498  1.0000
  H   H943      1.0  0.62576  0.50117  0.09743  1.0000
  S   S232      1.0  0.49435  0.71471  0.26808  1.0000
  C   C594      1.0  0.49346  0.50565  0.45350  1.0000
  C   C595      1.0  0.63939  0.49866  0.04453  1.0000
  H   H944      1.0  0.77937  0.52052  0.47818  1.0000
  H   H945      1.0  0.95629  0.52889  0.49754  1.0000
  H   H946      1.0  0.81117  0.49872  0.40954  1.0000
  S   S233      1.0  0.51522  0.65171  0.61952  1.0000
  C   C596      1.0  0.74974  0.59506  0.72258  1.0000
  S   S234      1.0  0.84009  0.70039  0.58855  1.0000
  Fe  Fe119     1.0  0.76569  0.52534  0.75058  1.0000
  S   S235      1.0  0.80494  0.55676  0.77280  1.0000
  C   C597      1.0  0.76613  0.59055  0.78166  1.0000
  Fe  Fe120     1.0  0.79006  0.52198  0.67868  1.0000
  S   S236      1.0  0.83040  0.55329  0.69666  1.0000
  H   H947      1.0  0.98321  0.56726  0.53780  1.0000
  Fe  Fe121     1.0  0.82165  0.53211  0.74997  1.0000
  H   H948      1.0  0.73259  0.60644  0.80551  1.0000
  Fe  Fe122     1.0  0.80963  0.57491  0.71733  1.0000
  S   S237      1.0  0.82386  0.61942  0.71628  1.0000
  C   C598      1.0  0.83305  0.51215  0.61116  1.0000
  S   S238      1.0  0.76927  0.54456  0.69644  1.0000
  H   H949      1.0  0.74107  0.60518  0.70595  1.0000
  C   C599      1.0  0.72961  0.59957  0.77663  1.0000
  H   H950      1.0  0.56638  0.72390  0.54630  1.0000
  H   H951      1.0  0.88484  0.72979  0.54601  1.0000
  H   H952      1.0  0.97709  0.56603  0.58545  1.0000
  C   C600      1.0  0.52249  0.71147  0.68600  1.0000
  C   C601      1.0  0.52777  0.69392  0.66566  1.0000
  H   H953      1.0  0.76830  0.59871  0.70978  1.0000
  H   H954      1.0  0.53766  0.72628  0.70371  1.0000
  H   H955      1.0  0.54709  0.69542  0.66788  1.0000
  H   H956      1.0  0.91420  0.70023  0.53076  1.0000
  H   H957      1.0  0.76959  0.59672  0.81082  1.0000
  H   H958      1.0  0.53913  0.65680  0.50465  1.0000
  S   S239      1.0  0.78157  0.49911  0.62504  1.0000
  H   H959      1.0  0.80913  0.54001  0.50486  1.0000
  H   H960      1.0  0.77747  0.64101  0.79075  1.0000
  H   H961      1.0  0.92412  0.69840  0.57698  1.0000
  H   H962      1.0  0.75313  0.56882  0.78027  1.0000
  H   H963      1.0  0.49694  0.65618  0.50628  1.0000
  C   C602      1.0  0.83527  0.67814  0.62458  1.0000
  C   C603      1.0  0.83963  0.68625  0.66115  1.0000
  C   C604      1.0  0.83606  0.66803  0.68865  1.0000
  C   C605      1.0  0.82801  0.64143  0.68014  1.0000
  C   C606      1.0  0.82353  0.63328  0.64358  1.0000
  C   C607      1.0  0.82723  0.65154  0.61606  1.0000
  H   H964      1.0  0.84586  0.70659  0.66828  1.0000
  H   H965      1.0  0.83972  0.67467  0.71676  1.0000
  H   H966      1.0  0.81735  0.61296  0.63647  1.0000
  H   H967      1.0  0.82377  0.64498  0.58792  1.0000
  C   C608      1.0  0.67247  0.52454  0.79292  1.0000
  H   H968      1.0  0.95281  0.74552  0.52654  1.0000
  C   C609      1.0  0.69471  0.52285  0.78179  1.0000
  H   H969      1.0  0.54161  0.70310  0.57662  1.0000
  H   H970      1.0  0.70355  0.53116  0.75642  1.0000
  H   H971      1.0  0.88473  0.50243  0.80859  1.0000
  C   C610      1.0  0.77315  0.63314  0.76232  1.0000
  N   N60       1.0  0.95398  0.52961  0.55574  1.0000
  H   H972      1.0  0.79228  0.63760  0.75058  1.0000
  H   H973      1.0  0.94209  0.52443  0.61115  1.0000
  S   S240      1.0  0.63218  0.51555  0.83810  1.0000
  H   H974      1.0  0.49486  0.68504  0.51946  1.0000
  N   N61       1.0  0.75465  0.60458  0.76080  1.0000
  H   H975      1.0  0.73611  0.57351  0.72039  1.0000
  H   H976      1.0  0.90884  0.73901  0.51175  1.0000
  H   H977      1.0  0.72034  0.60980  0.76152  1.0000
  H   H978      1.0  0.71525  0.57821  0.77602  1.0000
  H   H979      1.0  0.89156  0.69345  0.56651  1.0000
  C   C611      1.0  0.70502  0.50982  0.80316  1.0000
  S   S241      1.0  0.49841  0.60379  0.53553  1.0000
  H   H980      1.0  0.96256  0.74312  0.57265  1.0000
  H   H981      1.0  0.83869  0.52482  0.63507  1.0000
  H   H982      1.0  0.78543  0.59463  0.77102  1.0000
  H   H983      1.0  0.93041  0.73299  0.62194  1.0000
  H   H984      1.0  0.76525  0.64437  0.74664  1.0000
  H   H985      1.0  0.95365  0.56650  0.55266  1.0000
  C   C612      1.0  0.50810  0.67418  0.64317  1.0000
  C   C613      1.0  0.54485  0.71116  0.54870  1.0000
  H   H986      1.0  0.92658  0.52724  0.51342  1.0000
  H   H987      1.0  0.56847  0.68468  0.52270  1.0000
  H   H988      1.0  0.87280  0.52142  0.60009  1.0000
  H   H989      1.0  0.91900  0.52623  0.57904  1.0000
  C   C614      1.0  0.85238  0.51022  0.59120  1.0000
  C   C615      1.0  0.97320  0.52008  0.56266  1.0000
  C   C616      1.0  0.54683  0.67313  0.52534  1.0000
  S   S242      1.0  0.85209  0.52219  0.77592  1.0000
  H   H990      1.0  0.53529  0.72384  0.54642  1.0000
  C   C617      1.0  0.93348  0.51890  0.58302  1.0000
  C   C618      1.0  0.96759  0.55866  0.55808  1.0000
  S   S243      1.0  0.59586  0.51150  0.93116  1.0000
  C   C619      1.0  0.49737  0.70925  0.68427  1.0000
  H   H991      1.0  0.83534  0.50000  0.70208  1.0000
  H   H992      1.0  0.66447  0.53448  0.77613  1.0000
  S   S244      1.0  0.73242  0.50622  0.79031  1.0000
  S   S245      1.0  0.78243  0.49980  0.73059  1.0000
  C   C620      1.0  0.91262  0.70515  0.55949  1.0000
  C   C621      1.0  0.50547  0.67365  0.52502  1.0000
  C   C622      1.0  0.90617  0.74156  0.54099  1.0000
  H   H993      1.0  0.55867  0.52932  0.98299  1.0000
  C   C623      1.0  0.66029  0.51317  0.82540  1.0000
  N   N62       1.0  0.53405  0.68980  0.52079  1.0000
  H   H994      1.0  0.98321  0.52654  0.58992  1.0000
  C   C624      1.0  0.94159  0.52082  0.51908  1.0000
  H   H995      1.0  0.54325  0.66400  0.55255  1.0000
  C   C625      1.0  0.67060  0.50012  0.84670  1.0000
  H   H996      1.0  0.50104  0.66625  0.55306  1.0000
  N   N63       1.0  0.92201  0.73362  0.56476  1.0000
  H   H997      1.0  0.93145  0.49899  0.51592  1.0000
  H   H998      1.0  0.98876  0.52758  0.54225  1.0000
  H   H999      1.0  0.89817  0.72861  0.61067  1.0000
  Fe  Fe123     1.0  0.85064  0.74407  0.59134  1.0000
  C   C626      1.0  0.91915  0.73918  0.60306  1.0000
  H   H1000     1.0  0.79450  0.50488  0.50408  1.0000
  H   H1001     1.0  0.68319  0.93741  0.37189  1.0000
  S   S246      1.0  0.88891  0.78164  0.11915  1.0000
  Fe  Fe124     1.0  0.94751  0.79135  0.05979  1.0000
  S   S247      1.0  0.94478  0.82506  0.08572  1.0000
  C   C627      1.0  0.94184  0.75238  0.21683  1.0000
  Fe  Fe125     1.0  0.93204  0.80027  0.13540  1.0000
  S   S248      1.0  0.94096  0.81110  0.19545  1.0000
  Fe  Fe126     1.0  0.90208  0.80342  0.06672  1.0000
  S   S249      1.0  0.89018  0.83093  0.03698  1.0000
  C   C628      1.0  0.72659  0.97092  0.41119  1.0000
  C   C629      1.0  0.83159  0.86749  0.33442  1.0000
  H   H1002     1.0  0.62499  0.85404  0.17532  1.0000
  Fe  Fe127     1.0  0.78931  0.95177  0.40896  1.0000
  S   S250      1.0  0.82208  0.94839  0.38299  1.0000
  C   C630      1.0  0.51115  0.81952  0.20243  1.0000
  Fe  Fe128     1.0  0.74686  0.89805  0.37860  1.0000
  S   S251      1.0  0.77651  0.89023  0.35071  1.0000
  S   S252      1.0  0.70224  0.87273  0.38335  1.0000
  Fe  Fe129     1.0  0.80202  0.90627  0.40177  1.0000
  S   S253      1.0  0.83019  0.89155  0.42257  1.0000
  Fe  Fe130     1.0  0.79485  0.93264  0.33368  1.0000
  S   S254      1.0  0.80690  0.94030  0.27479  1.0000
  S   S255      1.0  0.77118  0.91097  0.43140  1.0000
  S   S256      1.0  0.76338  0.93920  0.35788  1.0000
  H   H1003     1.0  0.81267  0.92060  0.01831  1.0000
  S   S257      1.0  0.53900  0.77412  0.29474  1.0000
  S   S258      1.0  0.61319  0.79375  0.26870  1.0000
  H   H1004     1.0  0.52508  0.86142  0.20162  1.0000
  H   H1005     1.0  0.57839  0.81029  0.24179  1.0000
  H   H1006     1.0  0.67862  0.90797  0.39415  1.0000
  C   C631      1.0  0.67793  0.85058  0.35109  1.0000
  C   C632      1.0  0.68379  0.84771  0.31535  1.0000
  C   C633      1.0  0.66376  0.83023  0.29068  1.0000
  C   C634      1.0  0.63764  0.81523  0.30134  1.0000
  C   C635      1.0  0.63176  0.81813  0.33707  1.0000
  C   C636      1.0  0.65176  0.83574  0.36168  1.0000
  H   H1007     1.0  0.70375  0.85894  0.30668  1.0000
  H   H1008     1.0  0.66863  0.82817  0.26318  1.0000
  H   H1009     1.0  0.61183  0.80681  0.34578  1.0000
  H   H1010     1.0  0.64693  0.83771  0.38922  1.0000
  H   H1011     1.0  0.61168  0.86424  0.21173  1.0000
  C   C637      1.0  0.82183  0.97160  0.25415  1.0000
  C   C638      1.0  0.82244  0.97285  0.21604  1.0000
  H   H1012     1.0  0.62187  0.83977  0.21927  1.0000
  H   H1013     1.0  0.81310  0.95484  0.19986  1.0000
  H   H1014     1.0  0.90221  0.75345  0.17786  1.0000
  H   H1015     1.0  0.84018  0.78295  0.02178  1.0000
  S   S259      1.0  0.93808  0.76802  0.11116  1.0000
  C   C639      1.0  0.51359  0.84283  0.18719  1.0000
  H   H1016     1.0  0.59946  0.80937  0.14778  1.0000
  C   C640      1.0  0.49623  0.79536  0.18412  1.0000
  H   H1017     1.0  0.88288  0.89228  0.32007  1.0000
  H   H1018     1.0  0.56732  0.78742  0.16340  1.0000
  H   H1019     1.0  0.67231  0.92556  0.45239  1.0000
  C   C641      1.0  0.82439  0.86548  0.45266  1.0000
  C   C642      1.0  0.79904  0.84655  0.46139  1.0000
  H   H1020     1.0  0.86306  0.93305  0.31811  1.0000
  H   H1021     1.0  0.85383  0.88884  0.00022  1.0000
  H   H1022     1.0  0.78222  0.84790  0.45035  1.0000
  C   C643      1.0  0.69342  0.92845  0.38772  1.0000
  C   C644      1.0  0.95534  0.79908  0.46490  1.0000
  H   H1023     1.0  0.56727  0.83378  0.23331  1.0000
  C   C645      1.0  0.82920  0.89246  0.05790  1.0000
  H   H1024     1.0  0.70605  0.91090  0.44843  1.0000
  H   H1025     1.0  0.73484  0.92995  0.42382  1.0000
  S   S260      1.0  0.97858  0.79504  0.01983  1.0000
  H   H1026     1.0  0.86567  0.87769  0.46053  1.0000
  C   C646      1.0  0.86293  0.82339  0.00692  1.0000
  H   H1027     1.0  0.83389  0.99445  0.30403  1.0000
  H   H1028     1.0  0.59599  0.79518  0.19181  1.0000
  C   C647      1.0  0.97270  0.82411  0.21659  1.0000
  H   H1029     1.0  0.84140  0.91405  0.06289  1.0000
  Fe  Fe131     1.0  0.56949  0.76399  0.27449  1.0000
  H   H1030     1.0  0.95789  0.81917  0.27054  1.0000
  H   H1031     1.0  0.74167  0.97052  0.39360  1.0000
  S   S261      1.0  0.79124  0.98650  0.44104  1.0000
  H   H1032     1.0  0.83552  0.91473  0.34559  1.0000
  C   C648      1.0  0.50076  0.84222  0.15385  1.0000
  H   H1033     1.0  0.58465  0.84286  0.13659  1.0000
  H   H1034     1.0  0.94808  0.76255  0.19056  1.0000
  C   C649      1.0  0.80255  0.85762  0.01464  1.0000
  H   H1035     1.0  0.90051  0.76033  0.22472  1.0000
  H   H1036     1.0  0.84187  0.88323  0.06405  1.0000
  C   C650      1.0  0.83403  0.99508  0.27471  1.0000
  C   C651      1.0  0.85305  0.91489  0.33421  1.0000
  N   N64       1.0  0.70687  0.94408  0.42104  1.0000
  H   H1037     1.0  0.73748  0.98309  0.43568  1.0000
  N   N65       1.0  0.81832  0.88646  0.02014  1.0000
  C   C652      1.0  0.84235  0.84228  0.48985  1.0000
  C   C653      1.0  0.68739  0.94554  0.44446  1.0000
  H   H1038     1.0  0.54937  0.80106  0.21383  1.0000
  N   N66       1.0  0.58548  0.82608  0.18828  1.0000
  C   C654      1.0  0.57313  0.83617  0.16154  1.0000
  C   C655      1.0  0.58714  0.80354  0.17204  1.0000
  C   C656      1.0  0.56939  0.81745  0.22070  1.0000
  C   C657      1.0  0.61219  0.84701  0.19905  1.0000
  H   H1039     1.0  0.57137  0.85309  0.17295  1.0000
  H   H1040     1.0  0.55286  0.82074  0.15315  1.0000
  Fe  Fe132     1.0  0.89539  0.75007  0.09327  1.0000
  H   H1041     1.0  0.78547  0.84906  0.03253  1.0000
  C   C658      1.0  0.97524  0.82582  0.25470  1.0000
  H   H1042     1.0  0.81449  0.84756  0.02044  1.0000
  H   H1043     1.0  0.86627  0.91638  0.35775  1.0000
  H   H1044     1.0  0.81359  0.86653  0.34578  1.0000
  H   H1045     1.0  0.88009  0.90897  0.28055  1.0000
  C   C659      1.0  0.86919  0.89146  0.29759  1.0000
  H   H1046     1.0  0.82166  0.87220  0.26351  1.0000
  C   C660      1.0  0.79539  0.82541  0.48371  1.0000
  H   H1047     1.0  0.86416  0.87363  0.28056  1.0000
  H   H1048     1.0  0.70754  0.92673  0.36957  1.0000
  H   H1049     1.0  0.52023  0.82016  0.22873  1.0000
  H   H1050     1.0  0.80960  0.88945  0.29107  1.0000
  N   N67       1.0  0.84540  0.89091  0.31183  1.0000
  C   C661      1.0  0.80155  0.89892  0.01329  1.0000
  H   H1051     1.0  0.94417  0.78886  0.44047  1.0000
  H   H1052     1.0  0.67697  0.95504  0.43036  1.0000
  H   H1053     1.0  0.84178  0.98829  0.45707  1.0000
  H   H1054     1.0  0.84419  0.86788  0.35815  1.0000
  C   C662      1.0  0.82777  0.88992  0.28125  1.0000
  H   H1055     1.0  0.82553  0.84893  0.31862  1.0000
  H   H1056     1.0  0.83736  0.90762  0.26413  1.0000
  C   C663      1.0  0.84598  0.86320  0.46708  1.0000
  H   H1057     1.0  0.92101  0.79351  0.49335  1.0000
  H   H1058     1.0  0.77568  0.81059  0.48959  1.0000
  S   S262      1.0  0.50360  0.87202  0.13678  1.0000
  Fe  Fe133     1.0  0.51584  0.75458  0.24296  1.0000
  H   H1059     1.0  0.78432  0.89089  0.03093  1.0000
  S   S263      1.0  0.90527  0.77038  0.03920  1.0000
  H   H1060     1.0  0.81327  0.88501  0.07775  1.0000
  H   H1061     1.0  0.69697  0.95716  0.46986  1.0000
  H   H1062     1.0  0.73095  0.94272  0.46591  1.0000
  S   S264      1.0  0.49894  0.89958  0.03701  1.0000
  C   C664      1.0  0.72015  0.93135  0.44087  1.0000
  H   H1063     1.0  0.94560  0.76791  0.23767  1.0000
  H   H1064     1.0  0.71740  0.98127  0.39629  1.0000
  C   C665      1.0  0.98287  0.80997  0.46597  1.0000
  H   H1065     1.0  0.83568  0.99784  0.16930  1.0000
  H   H1066     1.0  0.93809  0.84756  0.00545  1.0000
  C   C666      1.0  0.94214  0.80159  0.49493  1.0000
  H   H1067     1.0  0.98329  0.88181  0.43683  1.0000
  H   H1068     1.0  0.95474  0.82835  0.00629  1.0000
  C   C667      1.0  0.84076  0.79853  0.00509  1.0000
  C   C668      1.0  0.49465  0.98525  0.00589  1.0000
  H   H1069     1.0  0.98588  0.86176  0.47180  1.0000
  C   C669      1.0  0.81489  0.98930  0.99968  1.0000
  S   S265      1.0  0.49348  0.96532  0.04331  1.0000
  C   C670      1.0  0.83961  0.99064  0.99959  1.0000
  C   C671      1.0  0.49275  0.99611  0.46625  1.0000
  C   C672      1.0  0.83521  0.99723  0.19861  1.0000
  S   S266      1.0  0.49225  0.76527  0.20187  1.0000
  Fe  Fe134     1.0  0.85901  0.79182  0.63839  1.0000
  H   H1070     1.0  0.98092  0.84785  0.93342  1.0000
  S   S267      1.0  0.85170  0.79738  0.69751  1.0000
  Fe  Fe135     1.0  0.89684  0.79842  0.57719  1.0000
  C   C673      1.0  0.84163  0.83882  0.96205  1.0000
  S   S268      1.0  0.94076  0.81789  0.56579  1.0000
  Fe  Fe136     1.0  0.84122  0.78873  0.55885  1.0000
  H   H1071     1.0  0.87691  0.90989  0.85053  1.0000
  C   C674      1.0  0.77474  0.78126  0.61564  1.0000
  S   S269      1.0  0.87474  0.82024  0.59261  1.0000
  S   S270      1.0  0.88433  0.77310  0.62657  1.0000
  Fe  Fe137     1.0  0.78581  0.83808  0.90006  1.0000
  S   S271      1.0  0.81944  0.87306  0.87668  1.0000
  S   S272      1.0  0.79048  0.80816  0.93500  1.0000
  Fe  Fe138     1.0  0.74496  0.85316  0.86849  1.0000
  S   S273      1.0  0.77638  0.89002  0.84386  1.0000
  S   S274      1.0  0.70046  0.83799  0.87046  1.0000
  Fe  Fe139     1.0  0.79352  0.86408  0.82631  1.0000
  S   S275      1.0  0.81033  0.87025  0.76992  1.0000
  Fe  Fe140     1.0  0.79982  0.89603  0.89637  1.0000
  S   S276      1.0  0.82997  0.93392  0.92566  1.0000
  S   S277      1.0  0.76092  0.82701  0.84800  1.0000
  S   S278      1.0  0.76740  0.86124  0.92258  1.0000
  Fe  Fe141     1.0  0.52393  0.79909  0.81337  1.0000
  S   S279      1.0  0.55161  0.83698  0.78830  1.0000
  C   C675      1.0  0.94995  0.74870  0.55552  1.0000
  Fe  Fe142     1.0  0.51542  0.76798  0.74188  1.0000
  S   S280      1.0  0.54296  0.80408  0.71217  1.0000
  Fe  Fe143     1.0  0.56956  0.81452  0.76253  1.0000
  S   S281      1.0  0.61410  0.83725  0.75715  1.0000
  Fe  Fe144     1.0  0.52305  0.82382  0.74018  1.0000
  S   S282      1.0  0.51611  0.85570  0.71434  1.0000
  S   S283      1.0  0.54353  0.77680  0.79039  1.0000
  C   C676      1.0  0.82333  0.95446  0.95455  1.0000
  H   H1072     1.0  0.90230  0.81012  0.97029  1.0000
  H   H1073     1.0  0.85159  0.91873  0.99677  1.0000
  S   S284      1.0  0.82445  0.76119  0.60562  1.0000
  C   C677      1.0  0.93666  0.85281  0.93396  1.0000
  H   H1074     1.0  0.60227  0.81490  0.88252  1.0000
  N   N68       1.0  0.94192  0.83337  0.95314  1.0000
  C   C678      1.0  0.67712  0.83670  0.83675  1.0000
  C   C679      1.0  0.65025  0.81937  0.84122  1.0000
  C   C680      1.0  0.63084  0.81866  0.81642  1.0000
  C   C681      1.0  0.63800  0.83584  0.78734  1.0000
  C   C682      1.0  0.66486  0.85300  0.78262  1.0000
  C   C683      1.0  0.68433  0.85334  0.80701  1.0000
  H   H1075     1.0  0.64446  0.80625  0.86392  1.0000
  H   H1076     1.0  0.61034  0.80492  0.81988  1.0000
  H   H1077     1.0  0.67069  0.86629  0.76012  1.0000
  H   H1078     1.0  0.70487  0.86685  0.80325  1.0000
  H   H1079     1.0  0.83256  0.89164  0.96609  1.0000
  H   H1080     1.0  0.77507  0.96882  0.97769  1.0000
  C   C684      1.0  0.81888  0.79405  0.98245  1.0000
  C   C685      1.0  0.79840  0.95257  0.95549  1.0000
  H   H1081     1.0  0.78651  0.84362  0.59935  1.0000
  C   C686      1.0  0.91733  0.80810  0.95444  1.0000
  C   C687      1.0  0.84079  0.81824  0.71734  1.0000
  C   C688      1.0  0.82719  0.81070  0.74976  1.0000
  C   C689      1.0  0.81796  0.82653  0.76639  1.0000
  C   C690      1.0  0.82228  0.85011  0.75070  1.0000
  C   C691      1.0  0.83632  0.85795  0.71864  1.0000
  C   C692      1.0  0.84577  0.84224  0.70224  1.0000
  H   H1082     1.0  0.82359  0.79238  0.76198  1.0000
  H   H1083     1.0  0.80727  0.82030  0.79114  1.0000
  H   H1084     1.0  0.84004  0.87633  0.70654  1.0000
  H   H1085     1.0  0.85727  0.84884  0.67826  1.0000
  C   C693      1.0  0.84009  0.89688  0.99477  1.0000
  H   H1086     1.0  0.92159  0.85599  0.94794  1.0000
  H   H1087     1.0  0.95519  0.82242  0.90539  1.0000
  H   H1088     1.0  0.51797  0.81430  0.94898  1.0000
  H   H1089     1.0  0.91177  0.76256  0.54583  1.0000
  H   H1090     1.0  0.82153  0.81939  0.59251  1.0000
  C   C694      1.0  0.95634  0.81470  0.52671  1.0000
  C   C695      1.0  0.50564  0.82000  0.93297  1.0000
  H   H1091     1.0  0.78166  0.81818  0.56719  1.0000
  H   H1092     1.0  0.75298  0.77184  0.61669  1.0000
  H   H1093     1.0  0.80155  0.77492  0.98179  1.0000
  C   C696      1.0  0.81910  0.81421  0.96109  1.0000
  H   H1094     1.0  0.85575  0.91829  0.75756  1.0000
  H   H1095     1.0  0.89959  0.95873  0.85411  1.0000
  H   H1096     1.0  0.97110  0.86156  0.99070  1.0000
  H   H1097     1.0  0.87212  0.95350  0.75997  1.0000
  C   C697      1.0  0.58726  0.82166  0.88293  1.0000
  C   C698      1.0  0.81592  0.82156  0.62031  1.0000
  C   C699      1.0  0.95193  0.84317  0.99049  1.0000
  H   H1098     1.0  0.91653  0.95975  0.81360  1.0000
  S   S285      1.0  0.49376  0.78744  0.76737  1.0000
  H   H1099     1.0  0.85857  0.89300  0.81002  1.0000
  H   H1100     1.0  0.92918  0.84613  0.90558  1.0000
  H   H1101     1.0  0.75929  0.80644  0.66241  1.0000
  H   H1102     1.0  0.85098  0.93353  0.85420  1.0000
  H   H1103     1.0  0.79471  0.85222  0.98612  1.0000
  H   H1104     1.0  0.89367  0.91096  0.80973  1.0000
  S   S286      1.0  0.81116  0.79558  0.52517  1.0000
  C   C700      1.0  0.87608  0.91124  0.82045  1.0000
  H   H1105     1.0  0.77948  0.77671  0.58832  1.0000
  H   H1106     1.0  0.75557  0.81374  0.59616  1.0000
  H   H1107     1.0  0.62564  0.88601  0.86330  1.0000
  C   C701      1.0  0.98385  0.82532  0.52794  1.0000
  S   S287      1.0  0.51979  0.80039  0.87452  1.0000
  C   C702      1.0  0.78085  0.81505  0.65943  1.0000
  H   H1108     1.0  0.95748  0.77025  0.55970  1.0000
  N   N69       1.0  0.59195  0.88164  0.67672  1.0000
  C   C703      1.0  0.56734  0.86977  0.65403  1.0000
  C   C704      1.0  0.60529  0.86545  0.67359  1.0000
  C   C705      1.0  0.58572  0.88282  0.71499  1.0000
  C   C706      1.0  0.60942  0.90854  0.66449  1.0000
  H   H1109     1.0  0.57112  0.86852  0.62490  1.0000
  H   H1110     1.0  0.55656  0.88129  0.65628  1.0000
  H   H1111     1.0  0.55360  0.84950  0.66274  1.0000
  H   H1112     1.0  0.62371  0.87359  0.69091  1.0000
  H   H1113     1.0  0.59268  0.84504  0.68280  1.0000
  H   H1114     1.0  0.61040  0.86407  0.64513  1.0000
  H   H1115     1.0  0.57227  0.86288  0.72456  1.0000
  H   H1116     1.0  0.57559  0.89483  0.71862  1.0000
  H   H1117     1.0  0.60366  0.89105  0.73324  1.0000
  H   H1118     1.0  0.62810  0.91805  0.68122  1.0000
  H   H1119     1.0  0.59988  0.92122  0.66669  1.0000
  H   H1120     1.0  0.61454  0.90842  0.63567  1.0000
  H   H1121     1.0  0.63072  0.85160  0.92405  1.0000
  N   N70       1.0  0.87461  0.93504  0.80941  1.0000
  C   C707      1.0  0.87335  0.93587  0.76933  1.0000
  H   H1122     1.0  0.78839  0.80645  0.68069  1.0000
  C   C708      1.0  0.77722  0.82191  0.59520  1.0000
  H   H1123     1.0  0.60215  0.84697  0.94754  1.0000
  H   H1124     1.0  0.84217  0.85433  0.94532  1.0000
  C   C709      1.0  0.61702  0.86432  0.85998  1.0000
  H   H1125     1.0  0.83267  0.91692  0.81350  1.0000
  N   N71       1.0  0.59944  0.85036  0.88974  1.0000
  S   S288      1.0  0.86412  0.76857  0.54087  1.0000
  C   C710      1.0  0.89820  0.95869  0.82389  1.0000
  H   H1126     1.0  0.78240  0.93803  0.93852  1.0000
  C   C711      1.0  0.61485  0.85725  0.92455  1.0000
  H   H1127     1.0  0.57309  0.81050  0.90413  1.0000
  C   C712      1.0  0.85086  0.93441  0.82403  1.0000
  H   H1128     1.0  0.62434  0.87878  0.93057  1.0000
  H   H1129     1.0  0.56654  0.85311  0.86583  1.0000
  C   C713      1.0  0.84387  0.97350  0.97683  1.0000
  C   C714      1.0  0.79430  0.97005  0.97773  1.0000
  C   C715      1.0  0.96179  0.82937  0.93392  1.0000
  H   H1130     1.0  0.84911  0.95208  0.81640  1.0000
  H   H1131     1.0  0.49833  0.88956  0.68214  1.0000
  C   C716      1.0  0.50302  0.81559  0.89512  1.0000
  C   C717      1.0  0.57865  0.85817  0.89157  1.0000
  H   H1132     1.0  0.60637  0.85849  0.83301  1.0000
  H   H1133     1.0  0.57602  0.81582  0.85641  1.0000
  N   N72       1.0  0.78715  0.80995  0.62266  1.0000
  H   H1134     1.0  0.96572  0.81440  0.94757  1.0000
  H   H1135     1.0  0.82390  0.81180  0.63891  1.0000
  H   H1136     1.0  0.63368  0.85986  0.85900  1.0000
  H   H1137     1.0  0.56484  0.84775  0.91349  1.0000
  H   H1138     1.0  0.58698  0.87966  0.89681  1.0000
  H   H1139     1.0  0.78174  0.77162  0.63601  1.0000
  H   H1140     1.0  0.82609  0.84296  0.62718  1.0000
  H   H1141     1.0  0.89089  0.93621  0.75732  1.0000
  H   H1142     1.0  0.78992  0.83652  0.66576  1.0000
  H   H1143     1.0  0.88048  0.86268  0.98626  1.0000
  H   H1144     1.0  0.89780  0.97702  0.81590  1.0000
  H   H1145     1.0  0.85917  0.84078  0.50054  1.0000
  H   H1146     1.0  0.79398  0.89583  0.98460  1.0000
  H   H1147     1.0  0.92646  0.76061  0.60806  1.0000
  H   H1148     1.0  0.86318  0.97497  0.97655  1.0000
  H   H1149     1.0  0.95480  0.87217  0.93286  1.0000
  C   C718      1.0  0.86332  0.84344  0.98513  1.0000
  H   H1150     1.0  0.90862  0.80056  0.92678  1.0000
  H   H1151     1.0  0.92087  0.79276  0.96759  1.0000
  H   H1152     1.0  0.49408  0.83450  0.97955  1.0000
  C   C719      1.0  0.81699  0.82308  0.49800  1.0000
  C   C720      1.0  0.49244  0.84990  0.67898  1.0000
