data_image0
_chemical_formula_structural       FeS2FeS2FeSFeS3FeS2FeS2FeSFeS3FeS2FeS2FeSFeS3FeS2FeS2FeSFeS3FeS2FeS2FeSFeS3FeS2FeS2FeSFeS3FeS2FeS2FeSFeS3FeS2FeS2FeSFeS3C6H4C6H4C6H4C6H4C6H4C6H4C6H4C6H4C6H4C6H4C6H4C6H4C6H4C6H4C6H4C6H4FeS2FeS2FeSFeS3FeS2FeS2FeSFeS3FeS2FeS2FeSFeS3FeS2FeS2FeSFeS3FeS2FeS2FeSFeS3FeS2FeS2FeSFeS3FeS2FeS2FeSFeS3FeS2FeS2FeSFeS3C6H4C6H4C6H4C6H4C6H4C6H4C6H4C6H4C6H4C6H4C6H4C6H4C6H4C6H4C6H4C6H4FeS2FeS2FeSFeS3FeS2FeS2FeSFeS3FeS2FeS2FeSFeS3FeS2FeS2FeSFeS3FeS2FeS2FeSFeS3FeS2FeS2FeSFeS3FeS2FeS2FeSFeS3FeS2FeS2FeSFeS3C6H4C6H4C6H4C6H4C6H4C6H4C6H4C6H4C6H4C6H4C6H4C6H4C6H4C6H4C6H4C6H4FeS2FeS2FeSFeS3FeS2FeS2FeSFeS3FeS2FeS2FeSFeS3FeS2FeS2FeSFeS3FeS2FeS2FeSFeS3FeS2FeS2FeSFeS3FeS2FeS2FeSFeS3FeS2FeS2FeSFeS3C6H4C6H4C6H4C6H4C6H4C6H4C6H4C6H4C6H4C6H4C6H4C6H4C6H4C6H4C6H4C6H4NC4H12NC4H12NC4H12NC4H12NC4H12NC4H12NC4H12NC4H12NC4H12NC4H12NC4H12NC4H12NC4H12NC4H12NC4H12NC4H12NC4H12NC4H12NC4H12NC4H12NC4H12NC4H12NC4H12NC4H12NC4H12NC4H12NC4H12NC4H12NC4H12NC4H12NC4H12NC4H12NC4H12NC4H12NC4H12NC4H12NC4H12NC4H12NC4H12NC4H12NC4H12NC4H12NC4H12NC4H12NC4H12NC4H12NC4H12NC4H12NC4H12NC4H12NC4H12NC4H12NC4H12NC4H12NC4H12NC4H12NC4H12NC4H12NC4H12NC4H12NC4H12NC4H12NC4H12NC4H12
_chemical_formula_sum              "Fe128 S256 C640 H1024 N64"
_cell_length_a       35.96934794876445
_cell_length_b       35.31316620226553
_cell_length_c       36.92450769405139
_cell_angle_alpha    89.9202273128051
_cell_angle_beta     90.29630046972248
_cell_angle_gamma    89.52748441765623

_space_group_name_H-M_alt    "P 1"
_space_group_IT_number       1

loop_
  _space_group_symop_operation_xyz
  'x, y, z'

loop_
  _atom_site_type_symbol
  _atom_site_label
  _atom_site_symmetry_multiplicity
  _atom_site_fract_x
  _atom_site_fract_y
  _atom_site_fract_z
  _atom_site_occupancy
  Fe  Fe1       1.0  0.24527864955026296  0.43243520516742034  0.6597643173966959  1.0000
  S   S1        1.0  0.19947457768645946  0.461983845081627  0.6899697630734851  1.0000
  S   S2        1.0  0.2799924007988053  0.46662717389622393  0.6216683412019522  1.0000
  Fe  Fe2       1.0  0.2377532245513001  0.3598218940539568  0.7023825314922307  1.0000
  S   S3        1.0  0.19165139563883227  0.3834164820765295  0.7360989262273603  1.0000
  S   S4        1.0  0.253670529732204  0.30057758928092604  0.7181182754686289  1.0000
  Fe  Fe3       1.0  0.1697985625975129  0.40675357740049495  0.683950297741417  1.0000
  S   S5        1.0  0.10814870197679372  0.40323431719567904  0.6754616507874035  1.0000
  Fe  Fe4       1.0  0.22570869828578388  0.4357691035961538  0.7391490215211735  1.0000
  S   S6        1.0  0.23428709831588812  0.4617725186243118  0.7939807951248279  1.0000
  S   S7        1.0  0.2132214415464813  0.378895506639134  0.6493584733656305  1.0000
  S   S8        1.0  0.27400430506609663  0.4104787931473497  0.7096304839701338  1.0000
  Fe  Fe5       1.0  0.249612733441044  0.5188950216584474  0.4268546617939543  1.0000
  S   S9        1.0  0.2256490533408753  0.5723975812734297  0.4036738530881578  1.0000
  S   S10       1.0  0.21679729167679931  0.48002280857945734  0.46239045934894046  1.0000
  Fe  Fe6       1.0  0.3206704867881839  0.5246832618736051  0.38409396502480464  1.0000
  S   S11       1.0  0.3031648444077569  0.5785246184659728  0.3564816772140441  1.0000
  S   S12       1.0  0.37426184591503203  0.49285937134061175  0.37633137963685437  1.0000
  Fe  Fe7       1.0  0.28287976732173625  0.5955312753050621  0.41152488246189356  1.0000
  S   S13       1.0  0.28752324590728934  0.6542798028900816  0.4339621972707551  1.0000
  Fe  Fe8       1.0  0.24753615163879375  0.5510244965460057  0.3508035042723343  1.0000
  S   S14       1.0  0.2175049112883648  0.5542518356205536  0.29739355742570556  1.0000
  S   S15       1.0  0.3052361421155658  0.5440559426452457  0.4397439738459768  1.0000
  S   S16       1.0  0.2668544526043665  0.4953397450947611  0.37318358783141914  1.0000
  Fe  Fe9       1.0  0.2544414653537997  0.27736167449854104  0.20937229630458923  1.0000
  S   S17       1.0  0.2702650301946303  0.3360454162824535  0.2270057141462075  1.0000
  S   S18       1.0  0.28621810325806074  0.2428844956004904  0.16866296657032337  1.0000
  Fe  Fe10      1.0  0.1846355527434523  0.276580362109558  0.25291110435896025  1.0000
  S   S19       1.0  0.19245750711417098  0.3354076355124108  0.2741717057696031  1.0000
  S   S20       1.0  0.13583095284446853  0.2404647111504189  0.26558362431265436  1.0000
  Fe  Fe11      1.0  0.21003794240864831  0.34985271488028885  0.21795036440360482  1.0000
  S   S21       1.0  0.1921668017830733  0.40258008093444886  0.1887073796023179  1.0000
  Fe  Fe12      1.0  0.2516126801512372  0.31711551837013074  0.2820580950528633  1.0000
  S   S22       1.0  0.27602661477410706  0.3349925195187589  0.33534270381547815  1.0000
  S   S23       1.0  0.19567288631448512  0.29322949370967194  0.19575894554737025  1.0000
  S   S24       1.0  0.2423283556328913  0.25671776260279466  0.2655632093404634  1.0000
  Fe  Fe13      1.0  0.20373355497028772  0.1795006658823649  0.9087390796301579  1.0000
  S   S25       1.0  0.2551921223030606  0.20633888414523552  0.8876328973737534  1.0000
  S   S26       1.0  0.16655752362802254  0.14717553107666953  0.8716078825095585  1.0000
  Fe  Fe14      1.0  0.21016559525127895  0.21633398583768668  0.981845422471085  1.0000
  S   S27       1.0  0.26165141266931935  0.24819553295429914  0.9673739246179319  1.0000
  S   S28       1.0  0.1801660975912356  0.21872656147785263  0.034775847259544745  1.0000
  Fe  Fe15      1.0  0.2332897500050609  0.2586931293875146  0.9142790178691166  1.0000
  S   S29       1.0  0.23552119210115968  0.3149491814324242  0.8869766226736175  1.0000
  Fe  Fe16      1.0  0.27916384768723596  0.19334845920135438  0.9420799205881738  1.0000
  S   S30       1.0  0.3391337344640599  0.17748095015875995  0.943437876180711  1.0000
  S   S31       1.0  0.17973122695494673  0.2331456807792764  0.9311621291435901  1.0000
  S   S32       1.0  0.22998458196968077  0.16017861750336695  0.9609027709035927  1.0000
  Fe  Fe17      1.0  0.48465830902851764  0.3660031274652953  0.4644646336957972  1.0000
  S   S33       1.0  0.5335989581928738  0.33148220252201444  0.4830562360340988  1.0000
  S   S34       1.0  0.46586051693859576  0.40926691673714144  0.5050620106459635  1.0000
  Fe  Fe18      1.0  0.4765872823909858  0.32211509749897693  0.39425523715219296  1.0000
  S   S35       1.0  0.524231181632254  0.28375093665253304  0.4078822398079467  1.0000
  S   S36       1.0  0.44909529144482563  0.30805233978414087  0.3413970626513162  1.0000
  Fe  Fe19      1.0  0.5003418687231238  0.28237654654524463  0.46359952606457794  1.0000
  S   S37       1.0  0.4953648089453368  0.22824144494160079  0.4950196990574143  1.0000
  Fe  Fe20      1.0  0.5524912076535297  0.33676617718258367  0.42576030961064815  1.0000
  S   S38       1.0  0.6109339297651839  0.3486732425654322  0.4089645091195096  1.0000
  S   S39       1.0  0.449863424957306  0.31626092335245903  0.44841770603690984  1.0000
  S   S40       1.0  0.5063440675451368  0.3758716671058863  0.40822834455730983  1.0000
  Fe  Fe21      1.0  0.4736973003876083  0.30105852199605604  0.7179758971771845  1.0000
  S   S41       1.0  0.4401194523304677  0.35336810757384823  0.7050812051294777  1.0000
  S   S42       1.0  0.5354732489307632  0.2938810656797754  0.7121145536385236  1.0000
  Fe  Fe22      1.0  0.40621627326462323  0.25479570589203954  0.7380330684977738  1.0000
  S   S43       1.0  0.36632162453636563  0.3023502437137543  0.7265751310057017  1.0000
  S   S44       1.0  0.38777202433933855  0.19911136679526117  0.7606092108049558  1.0000
  Fe  Fe23      1.0  0.4014713536808433  0.3130463453002969  0.677735754398608  1.0000
  S   S45       1.0  0.3747542089289793  0.3217418445605461  0.6235512599742734  1.0000
  Fe  Fe24      1.0  0.4082488415027234  0.33811059478927596  0.7550786547059632  1.0000
  S   S46       1.0  0.39153097529173536  0.3783810676687638  0.7987927049133959  1.0000
  S   S47       1.0  0.43742860719526283  0.2616836891622088  0.6862999399913329  1.0000
  S   S48       1.0  0.44552883095816276  0.28972229677670197  0.7706558668134289  1.0000
  Fe  Fe25      1.0  0.5364952882650391  0.5673436942803933  0.21342602745852302  1.0000
  S   S49       1.0  0.5026569812886217  0.5391655924529513  0.2563038311742465  1.0000
  S   S50       1.0  0.5066923198549786  0.5842262651498293  0.16249826653362678  1.0000
  Fe  Fe26      1.0  0.6083744763225079  0.5587888035366535  0.2557112992475389  1.0000
  S   S51       1.0  0.5803883467766531  0.5307781515832659  0.30261547136924655  1.0000
  S   S52       1.0  0.670655808464033  0.5623147109375164  0.25918980938230424  1.0000
  Fe  Fe27      1.0  0.5501780550924437  0.49830186825997846  0.26023723824516054  1.0000
  S   S53       1.0  0.5461924133570148  0.4358865022740348  0.26848893507537847  1.0000
  Fe  Fe28      1.0  0.5361962522725623  0.5745042600187924  0.2943377756377767  1.0000
  S   S54       1.0  0.5068079430696536  0.602055615002528  0.34034693837632346  1.0000
  S   S55       1.0  0.5811448503622922  0.5227593290962872  0.21342610067524692  1.0000
  S   S56       1.0  0.5666523074591496  0.6063900237733094  0.25125605973611237  1.0000
  Fe  Fe29      1.0  0.5519693171695289  0.5114896890474696  0.98365118421945  1.0000
  S   S57       1.0  0.5105460964035485  0.4658111781172526  0.9719391709094708  1.0000
  S   S58       1.0  0.5921164365392574  0.5126694723044483  0.030355325566673974  1.0000
  Fe  Fe30      1.0  0.5293454767010969  0.5588889836182084  0.9185136820514457  1.0000
  S   S59       1.0  0.486123836189043  0.5176255953883715  0.9006944330055314  1.0000
  S   S60       1.0  0.5449634194984927  0.6116670531447932  0.8884670272750053  1.0000
  Fe  Fe31      1.0  0.4717601368270238  0.5144304511182904  0.9595360044767219  1.0000
  S   S61       1.0  0.41191630229606396  0.5177676378869402  0.9760561982946303  1.0000
  Fe  Fe32      1.0  0.5286816063308317  0.47329366416757757  0.9142930753277381  1.0000
  S   S62       1.0  0.5411026272234257  0.42795145437799037  0.873789071083273  1.0000
  S   S63       1.0  0.5116538904020136  0.5596274993882473  0.9763979148247368  1.0000
  S   S64       1.0  0.573425665580545  0.5147125512162807  0.9270297445894219  1.0000
  C   C1        1.0  0.5307698104715687  0.565116144034973  0.12568082476384027  1.0000
  C   C2        1.0  0.5108949727583632  0.5504038002604654  0.0963689653571119  1.0000
  C   C3        1.0  0.5298088458745566  0.5338353553531634  0.06731384537245283  1.0000
  C   C4        1.0  0.5686669893876835  0.5326358592334843  0.06717476087423013  1.0000
  C   C5        1.0  0.588662186188134  0.5473946166662029  0.09646713721776767  1.0000
  C   C6        1.0  0.5696756599928419  0.5634394941016535  0.1258637997425801  1.0000
  H   H1        1.0  0.4808666673321768  0.5508430452216146  0.09659550219152949  1.0000
  H   H2        1.0  0.5141881810763147  0.5213794318374567  0.045344643517652106  1.0000
  H   H3        1.0  0.6187279502823514  0.5466162119453214  0.09637010505856325  1.0000
  H   H4        1.0  0.5850962326882485  0.5751843357646074  0.14837067952163702  1.0000
  C   C7        1.0  0.42710518036377926  0.1754362309681147  0.7782244191673668  1.0000
  C   C8        1.0  0.42266027886848806  0.14344807201735477  0.8000759599121382  1.0000
  C   C9        1.0  0.453905223964856  0.12471334818164226  0.8144964464550718  1.0000
  C   C10       1.0  0.48963113901782473  0.13827200258629885  0.8080483799285156  1.0000
  C   C11       1.0  0.49416177360958397  0.1702916400633858  0.786191114843017  1.0000
  C   C12       1.0  0.46295304437432955  0.1886420373694039  0.7710199261745693  1.0000
  H   H5        1.0  0.395180690342485  0.13335089064637162  0.8062459256782682  1.0000
  H   H6        1.0  0.46932570632503257  0.588809057121571  0.8733017655194589  1.0000
  H   H7        1.0  0.5217729228042886  0.18076365459274293  0.7807850312157907  1.0000
  H   H8        1.0  0.4668316455383934  0.21279800578040078  0.7535397217355513  1.0000
  C   C13       1.0  0.43266777701144726  0.3929182025089447  0.8198036733536649  1.0000
  C   C14       1.0  0.4667849474937146  0.3837400276423148  0.8040686813875044  1.0000
  C   C15       1.0  0.4999927088350422  0.39443358478642127  0.8207992620328426  1.0000
  C   C16       1.0  0.4992435625071882  0.4143713468797483  0.8534169148433173  1.0000
  C   C17       1.0  0.4650795676538229  0.4236010903718023  0.8693121736792884  1.0000
  C   C18       1.0  0.4317169846838881  0.41301052265706684  0.8523944833374647  1.0000
  H   H9        1.0  0.46769466256998693  0.368586034044828  0.7787975840567604  1.0000
  H   H10       1.0  0.5261062024889889  0.3875863573690723  0.8081016492060847  1.0000
  H   H11       1.0  0.46428863224958417  0.4383349722042836  0.8949404527490462  1.0000
  H   H12       1.0  0.4053574927672875  0.41990761573280505  0.8648542579476782  1.0000
  C   C19       1.0  0.4401468354022435  0.38637561574982104  0.5386604531887303  1.0000
  C   C20       1.0  0.44614392316976137  0.3943809183471656  0.5753757458264127  1.0000
  C   C21       1.0  0.4263889751331518  0.3745960207832043  0.6020862905336889  1.0000
  C   C22       1.0  0.3995782564861326  0.3481224286375342  0.5918451108849638  1.0000
  C   C23       1.0  0.39247171881558524  0.34169562818548077  0.5552390383555387  1.0000
  C   C24       1.0  0.4134794385680846  0.35974987472167597  0.528756515081313  1.0000
  H   H13       1.0  0.4665275955713418  0.4152696489965331  0.5831467404926258  1.0000
  H   H14       1.0  0.43136532348009166  0.3803765496409069  0.630392668659596  1.0000
  H   H15       1.0  0.37082689374852956  0.32236936190316606  0.5474437290663142  1.0000
  H   H16       1.0  0.4079769280164522  0.3538388380627286  0.5006644593675637  1.0000
  C   C25       1.0  0.34741432227851937  0.13444739091080127  0.921644838722107  1.0000
  C   C26       1.0  0.3426903210319106  0.6065604014007848  0.9575525960186729  1.0000
  C   C27       1.0  0.356278530285405  0.5704155558211605  0.9667805658479832  1.0000
  C   C28       1.0  0.3937132081054784  0.5611960036653862  0.9609972882661358  1.0000
  C   C29       1.0  0.4171675839724602  0.5877242933627076  0.9449979554451151  1.0000
  C   C30       1.0  0.38155561524361703  0.1287759991970885  0.9047338073931078  1.0000
  H   H17       1.0  0.31408726795952585  0.6140354301361398  0.9631179766176702  1.0000
  H   H18       1.0  0.3380248104369958  0.549883543330577  0.9790081903374407  1.0000
  H   H19       1.0  0.4458598883935402  0.5807584500871404  0.939911848249634  1.0000
  H   H20       1.0  0.40129643708211693  0.15167378796831119  0.9028879198849431  1.0000
  C   C31       1.0  0.5915746415649886  0.4181541208753368  0.2652221884044664  1.0000
  C   C32       1.0  0.09174577450903665  0.4544679019271027  0.18932037243026328  1.0000
  C   C33       1.0  0.12925815861836903  0.4459748566829427  0.1827145857122476  1.0000
  C   C34       1.0  0.14485083289583  0.41205046774577503  0.1955044424137317  1.0000
  C   C35       1.0  0.12273699662370441  0.3862595783006286  0.21422390334484934  1.0000
  C   C36       1.0  0.5982364612462848  0.37920807331786377  0.26632827494068695  1.0000
  H   H21       1.0  0.07970103357796021  0.4802946694681665  0.1787766475012355  1.0000
  H   H22       1.0  0.1462143940782317  0.46577488575972303  0.16787172554902277  1.0000
  H   H23       1.0  0.13434955575745877  0.3596248844316397  0.22347311977032025  1.0000
  H   H24       1.0  0.5758122614721474  0.3599293591184075  0.27222124436902223  1.0000
  C   C37       1.0  0.6253937410426189  0.31011893232854426  0.3826136188150368  1.0000
  C   C38       1.0  0.6170779309750387  0.2730310792617899  0.39317149533557116  1.0000
  C   C39       1.0  0.625879008654191  0.24246300209250266  0.3704007802301908  1.0000
  C   C40       1.0  0.6428509549847006  0.2490640992175164  0.3370210365861313  1.0000
  C   C41       1.0  0.6516197079260346  0.28608636860459324  0.326880454943852  1.0000
  C   C42       1.0  0.6432851974865997  0.3165390035046499  0.3497355265507557  1.0000
  H   H25       1.0  0.6038274581778929  0.2679224213095258  0.4189175003809837  1.0000
  H   H26       1.0  0.6191559541310042  0.21387591182873317  0.3784695952227558  1.0000
  H   H27       1.0  0.6640792525835532  0.2915575423313495  0.30104444656471974  1.0000
  H   H28       1.0  0.6494792308452295  0.3450999347574685  0.3412283458923715  1.0000
  C   C43       1.0  0.3240179381740586  0.32713412942918135  0.3371708101376783  1.0000
  C   C44       1.0  0.3422140149527678  0.3092912687124901  0.3084624045767104  1.0000
  C   C45       1.0  0.3806921187152173  0.30309736629524636  0.3102102561049672  1.0000
  C   C46       1.0  0.4009000019196158  0.31452464439820527  0.3407215778956568  1.0000
  C   C47       1.0  0.3826813314380521  0.33225516132584015  0.36953059109039876  1.0000
  C   C48       1.0  0.34420551687157136  0.3386442936051836  0.36770014152406505  1.0000
  H   H29       1.0  0.3266774214649555  0.3002909430088788  0.284870659933495  1.0000
  H   H30       1.0  0.3947987101786063  0.2895182843130711  0.2878283060429396  1.0000
  H   H31       1.0  0.39831864154670255  0.3419098179336152  0.39272708241780313  1.0000
  H   H32       1.0  0.33012683263218817  0.3528612459555046  0.389704172215033  1.0000
  C   C49       1.0  0.25770536907541086  0.2300685711544754  0.13197395075735283  1.0000
  C   C50       1.0  0.21955966164927515  0.22497518269855427  0.13688471317303444  1.0000
  C   C51       1.0  0.19601539620144504  0.21989492811267067  0.1069989660489703  1.0000
  C   C52       1.0  0.21064548881309622  0.21922329627528045  0.07201832012789988  1.0000
  C   C53       1.0  0.24911447358896155  0.22183565981235337  0.06716611618525176  1.0000
  C   C54       1.0  0.2726352155450418  0.22733346106333452  0.09714726111778094  1.0000
  H   H33       1.0  0.2080343260225175  0.22519785618094212  0.16371086639182364  1.0000
  H   H34       1.0  0.16634886720095543  0.21724420448920703  0.1109435890039383  1.0000
  H   H35       1.0  0.26073974212031775  0.22059562574227984  0.040321897952057206  1.0000
  H   H36       1.0  0.30221210623423456  0.23078043027598752  0.09319210362844026  1.0000
  C   C55       1.0  0.3302290585425866  0.6753092986126319  0.42439834486981853  1.0000
  C   C56       1.0  0.33272591719202965  0.7147782742527717  0.4241038410119428  1.0000
  C   C57       1.0  0.4240977491011758  0.2500087311775607  0.5119458210674892  1.0000
  C   C58       1.0  0.44885707659881596  0.21983506101463643  0.5064445457567711  1.0000
  C   C59       1.0  0.39661124422011335  0.6706273176963703  0.4141146704063462  1.0000
  C   C60       1.0  0.3620458883000638  0.653158450836612  0.4187159823382376  1.0000
  H   H37       1.0  0.36689752368480416  0.26626758497626696  0.5207470584320539  1.0000
  H   H38       1.0  0.4340682846852386  0.27870562383197106  0.5121737013015061  1.0000
  H   H39       1.0  0.42152524405019953  0.6535510242268954  0.41136898053590976  1.0000
  H   H40       1.0  0.36028085768153983  0.6226094698705142  0.4191215923895453  1.0000
  C   C61       1.0  0.09669448597889496  0.5942616693008058  0.298713541477634  1.0000
  C   C62       1.0  0.11535256446629359  0.5875396668903904  0.33143970368747333  1.0000
  C   C63       1.0  0.15270881274496756  0.5758392479322734  0.33135352632000253  1.0000
  C   C64       1.0  0.1716376379751849  0.5715231607485042  0.29859786807114475  1.0000
  C   C65       1.0  0.15319020968322533  0.5792525035131736  0.26595050749546384  1.0000
  C   C66       1.0  0.11577961233437795  0.5906019677012381  0.26602014298265914  1.0000
  H   H41       1.0  0.10067329284370552  0.5904738427123231  0.35681470335066834  1.0000
  H   H42       1.0  0.16632730773781929  0.569309418533038  0.3566111957189372  1.0000
  H   H43       1.0  0.16785243979318  0.5763727589157414  0.24060752934510968  1.0000
  H   H44       1.0  0.10191530875942001  0.5973302584529036  0.2408511243597763  1.0000
  C   C67       1.0  0.4116385346977808  0.5235085835327941  0.3691545458493504  1.0000
  C   C68       1.0  0.4061746177603292  0.5627429725692101  0.3691096943995022  1.0000
  C   C69       1.0  0.43574391926777395  0.5869100326271626  0.3611260306757509  1.0000
  C   C70       1.0  0.47077397764429696  0.5718664895913267  0.35301968383327875  1.0000
  C   C71       1.0  0.47644101304798614  0.5326186602795068  0.35355052780059754  1.0000
  C   C72       1.0  0.44701381858489103  0.5085068022030087  0.3622883962927138  1.0000
  H   H45       1.0  0.3791564243802656  0.5745401924886788  0.3748444294587315  1.0000
  H   H46       1.0  0.43117210206521545  0.6171482991584671  0.36003559107308597  1.0000
  H   H47       1.0  0.503603760164524  0.5209073130813499  0.3475689079353882  1.0000
  H   H48       1.0  0.45163129667212204  0.4782745638467398  0.3635206938756834  1.0000
  C   C73       1.0  0.560859855415803  0.3349560836339755  0.7210145365700174  1.0000
  C   C74       1.0  0.10633308282889242  0.2922766599075318  0.7022773635741205  1.0000
  C   C75       1.0  0.11858689640706399  0.3282874153023546  0.6919764453973684  1.0000
  C   C76       1.0  0.09313704074097706  0.35826224482874847  0.6885654763762948  1.0000
  C   C77       1.0  0.5634013616840894  0.4012110704633267  0.737783333601446  1.0000
  C   C78       1.0  0.5427474817353566  0.3687730427560082  0.7298920688588152  1.0000
  H   H49       1.0  0.12608197747895283  0.2690588327900193  0.7043277426191328  1.0000
  H   H50       1.0  0.1476706834897075  0.3326132995210342  0.6860695964666929  1.0000
  H   H51       1.0  0.5491060434504639  0.4271126571958063  0.7449793225585418  1.0000
  H   H52       1.0  0.5128514862561845  0.36998683124297627  0.7309796989901216  1.0000
  C   C79       1.0  0.2528471708810882  0.302318088501578  0.7654719126167765  1.0000
  C   C80       1.0  0.23933318448313012  0.2717903629397721  0.785457589680368  1.0000
  C   C81       1.0  0.23369386103509915  0.27562206761787383  0.8228574233931805  1.0000
  C   C82       1.0  0.24248871495245877  0.30958711631303565  0.840363365967405  1.0000
  C   C83       1.0  0.2567659163591936  0.3397034701834045  0.8204659273862333  1.0000
  C   C84       1.0  0.26197922798066287  0.33602480099525756  0.783133066672365  1.0000
  H   H53       1.0  0.23155388235262403  0.24593004833868212  0.771796954078694  1.0000
  H   H54       1.0  0.22099525954588287  0.25287789804611605  0.8376933469434188  1.0000
  H   H55       1.0  0.2635197104474931  0.36608922314258624  0.8337902142867919  1.0000
  H   H56       1.0  0.27281963924976865  0.35957335127459633  0.7680270052178086  1.0000
  C   C85       1.0  0.23344717407831472  0.5112319520330406  0.7958626628138755  1.0000
  C   C86       1.0  0.21851895659008228  0.5327922655947467  0.7674774538041144  1.0000
  C   C87       1.0  0.21641526244729412  0.5723077015926764  0.77050493758778  1.0000
  C   C88       1.0  0.22967426914234548  0.5903120482161798  0.801687897784661  1.0000
  C   C89       1.0  0.24602638197676344  0.5688004756943096  0.8293730498810921  1.0000
  C   C90       1.0  0.24755469280414855  0.5292685405624915  0.8266544686280488  1.0000
  H   H57       1.0  0.20800476133609433  0.5191815457122607  0.7434543287073081  1.0000
  H   H58       1.0  0.2041209936000603  0.58896018002922  0.748838750164048  1.0000
  H   H59       1.0  0.25749385586624984  0.5825615775189161  0.852856341887172  1.0000
  H   H60       1.0  0.25957804809585905  0.5126590510046978  0.8484883483254958  1.0000
  C   C91       1.0  0.2607623808024808  0.47122794634540194  0.5781990039479165  1.0000
  C   C92       1.0  0.23300341014558038  0.4467255756880919  0.5661038817782558  1.0000
  C   C93       1.0  0.21903419932502838  0.4500071906081927  0.5306684055473154  1.0000
  C   C94       1.0  0.23243045626385037  0.47811209403981403  0.5074907751031961  1.0000
  C   C95       1.0  0.2594011157407444  0.503276873623634  0.5200193845912015  1.0000
  C   C96       1.0  0.2739362026812816  0.49950737848178717  0.5551211286571897  1.0000
  H   H61       1.0  0.22269031849403953  0.4249018147923476  0.5838141346017847  1.0000
  H   H62       1.0  0.1980183702249906  0.43060489469697916  0.5211591250871205  1.0000
  H   H63       1.0  0.26881947853150956  0.5258637800739491  0.5028767348841627  1.0000
  H   H64       1.0  0.2950555190852226  0.5187859704319917  0.5646247067600918  1.0000
  Fe  Fe33      1.0  0.24546069534299186  0.9824014373552261  0.704813012133542  1.0000
  S   S65       1.0  0.19535879222682379  0.0024307655835187347  0.7355422187353836  1.0000
  S   S66       1.0  0.2833169903247178  0.024004871551701168  0.6778608803747257  1.0000
  Fe  Fe34      1.0  0.23717841367569337  0.9016201092961685  0.7297870867516815  1.0000
  S   S67       1.0  0.1866313266254382  0.9142872945444589  0.7629491342840194  1.0000
  S   S68       1.0  0.25928461280478143  0.8424241086239562  0.7296759254948916  1.0000
  Fe  Fe35      1.0  0.16932565073041772  0.9487684893342949  0.7149887586864863  1.0000
  S   S69       1.0  0.11052040152162011  0.9428350569212472  0.6961286912265123  1.0000
  Fe  Fe36      1.0  0.21754030536051877  0.9657968918576314  0.78056777047732  1.0000
  S   S70       1.0  0.22388872919098007  0.9814672350782064  0.8392968543418325  1.0000
  S   S71       1.0  0.21731393694989276  0.9318863823584321  0.6801728221531145  1.0000
  S   S72       1.0  0.2698446966845584  0.9502584037458737  0.7514168981997582  1.0000
  Fe  Fe37      1.0  0.282998677153417  0.0682660226580698  0.48101767170442905  1.0000
  S   S73       1.0  0.25355639931829127  0.12447063041507067  0.48326360016515835  1.0000
  S   S74       1.0  0.2675710583157617  0.014065903891437248  0.507934726814993  1.0000
  Fe  Fe38      1.0  0.3430998511484543  0.09597401160397534  0.4313139444096995  1.0000
  S   S75       1.0  0.31963761418816183  0.1548426773833751  0.4281532156765389  1.0000
  S   S76       1.0  0.39869952923794294  0.07953196646966476  0.40902572621130145  1.0000
  Fe  Fe39      1.0  0.3109395989092711  0.14831570671569327  0.4878334464182402  1.0000
  S   S77       1.0  0.3252687822065889  0.19808755393454258  0.5223839909728634  1.0000
  Fe  Fe40      1.0  0.26444411672201373  0.12624125042700185  0.42354483138946264  1.0000
  S   S78       1.0  0.21961270802448482  0.1459977490991784  0.3854343537175887  1.0000
  S   S79       1.0  0.3393340077181279  0.09193021512126887  0.4915228523990285  1.0000
  S   S80       1.0  0.2886454268940923  0.06772102297011351  0.4207905225757204  1.0000
  Fe  Fe41      1.0  0.2634860506112946  0.6868689657592322  0.15117980119966695  1.0000
  S   S81       1.0  0.2976061961902623  0.7390549139190641  0.1595051553031126  1.0000
  S   S82       1.0  0.27864601342421846  0.6365651750827366  0.11731265787764777  1.0000
  Fe  Fe42      1.0  0.20634937637317138  0.7091983403041907  0.20707898796001398  1.0000
  S   S83       1.0  0.23510425891985662  0.7631380943005421  0.22134910351429532  1.0000
  S   S84       1.0  0.15629800818053427  0.6861635812783133  0.23451651444795232  1.0000
  Fe  Fe43      1.0  0.24204418295350888  0.7688914766117546  0.16135173861767416  1.0000
  S   S85       1.0  0.23012848580306042  0.8253009488922519  0.13591549015374724  1.0000
  Fe  Fe44      1.0  0.28737288886920975  0.7286040552556599  0.21844808975238159  1.0000
  S   S86       1.0  0.3300840892268753  0.7280372637049913  0.2625415752428282  1.0000
  S   S87       1.0  0.20867348819437734  0.717566658708365  0.14726076112595352  1.0000
  S   S88       1.0  0.2579028836896649  0.6739652722095839  0.20995492644025193  1.0000
  Fe  Fe45      1.0  0.23480542957003886  0.6631354395562401  0.8614298869643572  1.0000
  S   S89       1.0  0.27570124921814565  0.7096980151176167  0.8684712403500147  1.0000
  S   S90       1.0  0.22421832096407873  0.6394217661059979  0.806027529907826  1.0000
  Fe  Fe46      1.0  0.21056770373999048  0.6674992327671202  0.9392374276318702  1.0000
  S   S91       1.0  0.24902434123732192  0.7149772833309552  0.9534159629506038  1.0000
  S   S92       1.0  0.17518698570460822  0.6382544771918739  0.9799774713386357  1.0000
  Fe  Fe47      1.0  0.23078149630225836  0.7385720425993878  0.8998120431862031  1.0000
  S   S93       1.0  0.21906924203670597  0.7999113568316731  0.8899093439396175  1.0000
  Fe  Fe48      1.0  0.29048698386091154  0.6820331381141415  0.9209651020719584  1.0000
  S   S94       1.0  0.35131563752176503  0.6795354265654581  0.9336630012000001  1.0000
  S   S95       1.0  0.1882199011482162  0.6943723014609672  0.8885947762544866  1.0000
  S   S96       1.0  0.25377100413636267  0.6321853128882247  0.9112628778811304  1.0000
  Fe  Fe49      1.0  0.4446570191805437  0.8666408993757782  0.4509453689900128  1.0000
  S   S97       1.0  0.489944085107618  0.8271109031323332  0.4327773766814695  1.0000
  S   S98       1.0  0.4406457779776871  0.8843922693444531  0.509137229414547  1.0000
  Fe  Fe50      1.0  0.4049685578956563  0.8654494674748642  0.37836458625619057  1.0000
  S   S99       1.0  0.4467049828561665  0.82552920913854  0.35439160624131  1.0000
  S   S100      1.0  0.3569022044603534  0.8821553843300661  0.3427032821360063  1.0000
  Fe  Fe51      1.0  0.4431599636459258  0.7948449783107574  0.4072232902240236  1.0000
  S   S101      1.0  0.44284430936288416  0.7312764470872248  0.408470204725668  1.0000
  Fe  Fe52      1.0  0.48865264862690067  0.8618436290410155  0.3819626674024169  1.0000
  S   S102      1.0  0.5374818797078272  0.8790461727554292  0.34882490942351657  1.0000
  S   S103      1.0  0.3978902740760201  0.8319711776772152  0.4292056276790089  1.0000
  S   S104      1.0  0.4473162131409119  0.9046156652220677  0.4020608121151995  1.0000
  Fe  Fe53      1.0  0.5084917782386501  0.7506845886604037  0.6958972320675315  1.0000
  S   S105      1.0  0.4640294425657035  0.7901419200058707  0.6754857401785743  1.0000
  S   S106      1.0  0.5695134576495098  0.7633035763418999  0.6931576639291053  1.0000
  Fe  Fe54      1.0  0.4529311199616182  0.6930483663805477  0.7233892511132616  1.0000
  S   S107      1.0  0.4037738194320335  0.7276658540851207  0.7051709948828098  1.0000
  S   S108      1.0  0.4399507684924963  0.6394997427105541  0.7535497086241794  1.0000
  Fe  Fe55      1.0  0.43688263962763185  0.7376544800599795  0.6549684173660353  1.0000
  S   S109      1.0  0.4124981584149271  0.7351575180505513  0.599100954752732  1.0000
  Fe  Fe56      1.0  0.435677581117505  0.7763042298104755  0.7275719002991894  1.0000
  S   S110      1.0  0.40950483694140166  0.8197254635088073  0.7631373942483116  1.0000
  S   S111      1.0  0.48370058797672105  0.6985692890868347  0.6709722950134918  1.0000
  S   S112      1.0  0.48240707293850293  0.7413446665986508  0.7499045153404155  1.0000
  Fe  Fe57      1.0  0.5005876567857408  0.06546212030361165  0.15631536777874702  1.0000
  S   S113      1.0  0.46619005174733835  0.013738967241613276  0.16529251395322206  1.0000
  S   S114      1.0  0.4999224432789402  0.09984935932665406  0.1052023069348047  1.0000
  Fe  Fe58      1.0  0.5377959604394519  0.06035241667676683  0.22953653236144475  1.0000
  S   S115      1.0  0.5068073092802952  0.008536640303546505  0.24571547348017939  1.0000
  S   S116      1.0  0.5765705069202706  0.08766689642793346  0.2693574819481169  1.0000
  Fe  Fe59      1.0  0.5181817446174942  0.9888255117455422  0.1893617106285751  1.0000
  S   S117      1.0  0.529531603163592  0.9267544126109835  0.1835943304962028  1.0000
  Fe  Fe60      1.0  0.4572465553464434  0.03725929399565908  0.22081384630964804  1.0000
  S   S118      1.0  0.40030063907346747  0.03202073136020389  0.24451333680917942  1.0000
  S   S119      1.0  0.5538156466470625  0.038329577111002155  0.1747806292521698  1.0000
  S   S120      1.0  0.4869242165766469  0.09161855875738056  0.2099642747360766  1.0000
  Fe  Fe61      1.0  0.5171387839158528  0.00866278461496206  0.9200595414292209  1.0000
  S   S121      1.0  0.4795827370995112  0.9658525925647018  0.8946671263027108  1.0000
  S   S122      1.0  0.5402265435575216  0.9925624311837531  0.9744865416758156  1.0000
  Fe  Fe62      1.0  0.5110096724188209  0.0618271747860093  0.8554436703244277  1.0000
  S   S123      1.0  0.4731686106764354  0.023065818122170123  0.8249399398450137  1.0000
  S   S124      1.0  0.5284552919167411  0.11519555096943712  0.8273777309078421  1.0000
  Fe  Fe63      1.0  0.4447207683856741  0.016106584836066862  0.878411981156157  1.0000
  S   S125      1.0  0.3822090879238092  0.017015393710181348  0.8841965541151421  1.0000
  Fe  Fe64      1.0  0.5119981693811141  0.9775447258140026  0.8442935088028655  1.0000
  S   S126      1.0  0.5353451424064254  0.9341506677032393  0.8063677408065679  1.0000
  S   S127      1.0  0.4801002804025766  0.05830627638511654  0.908036711244463  1.0000
  S   S128      1.0  0.5523645384446988  0.016648981203147173  0.8707862444591905  1.0000
  C   C97       1.0  0.5124262888840831  0.07067670278156934  0.06883015517881207  1.0000
  C   C98       1.0  0.5151665719092882  0.08569482029793574  0.033818336048389463  1.0000
  C   C99       1.0  0.5231149171522939  0.061801993959598844  0.004416991973822394  1.0000
  C   C100      1.0  0.528298718621829  0.022940599289847263  0.010128720763155963  1.0000
  C   C101      1.0  0.526241791875446  0.008166821118603007  0.04521521903334835  1.0000
  C   C102      1.0  0.5182457773501041  0.0319446679582478  0.07448613142324138  1.0000
  H   H65       1.0  0.5110814062487786  0.11575705865170272  0.029452616396861142  1.0000
  H   H66       1.0  0.5255909029885985  0.0735090424248388  0.9774578479889386  1.0000
  H   H67       1.0  0.5306894121213166  0.9781706755337867  0.0497940334190381  1.0000
  H   H68       1.0  0.5163380876926471  0.02010095830948  0.10139084717293789  1.0000
  C   C103      1.0  0.4686712458863461  0.6332559732409578  0.791594490614167  1.0000
  C   C104      1.0  0.45658681992488315  0.6106918439026436  0.8203101133080329  1.0000
  C   C105      1.0  0.4792655415087739  0.6054050482674441  0.8508958713399821  1.0000
  C   C106      1.0  0.5144279709436307  0.6219196102438252  0.8525093354168588  1.0000
  C   C107      1.0  0.5261324362258957  0.6452691358322167  0.8241869023460792  1.0000
  C   C108      1.0  0.5033165590980127  0.6508460110189547  0.7936777155376069  1.0000
  H   H69       1.0  0.42956219789202865  0.5975087590474507  0.8190697849545282  1.0000
  H   H70       1.0  0.45050151054472165  0.09983923183878574  0.8308099670805031  1.0000
  H   H71       1.0  0.5532939819745313  0.65820463353192  0.8253741395431685  1.0000
  H   H72       1.0  0.513030617217548  0.6678858078822156  0.7713658541880846  1.0000
  C   C109      1.0  0.44409943653172174  0.8520674428297569  0.7748085711425019  1.0000
  C   C110      1.0  0.4799821449741459  0.8476582053514311  0.7609352384026336  1.0000
  C   C111      1.0  0.5077812113285531  0.8734453860977968  0.770077387707  1.0000
  C   C112      1.0  0.4998656929814721  0.9033875102251329  0.7935446280418188  1.0000
  C   C113      1.0  0.46385690180698197  0.9081855873834627  0.8070690044817912  1.0000
  C   C114      1.0  0.43592866294359256  0.8824804261650779  0.7976930503415125  1.0000
  H   H73       1.0  0.486500878542138  0.8243254483900216  0.7432678043993721  1.0000
  H   H74       1.0  0.5353674733420604  0.8701046318042976  0.7590252034610308  1.0000
  H   H75       1.0  0.45748833900095637  0.9315446434141407  0.8249091145795411  1.0000
  H   H76       1.0  0.4081790389907825  0.8860137459179597  0.8084406650939483  1.0000
  C   C115      1.0  0.43168643969839327  0.843396463651066  0.5345553889860318  1.0000
  C   C116      1.0  0.42504828731214833  0.8456779520305786  0.5718228498799109  1.0000
  C   C117      1.0  0.4186870948294121  0.8125343026047552  0.591929206047973  1.0000
  C   C118      1.0  0.41918871400244767  0.777165101399754  0.5747556904166893  1.0000
  C   C119      1.0  0.42587673305847573  0.7750262480064805  0.5376059871132302  1.0000
  C   C120      1.0  0.4322542413700011  0.8079736561865858  0.5176557779636541  1.0000
  H   H77       1.0  0.4247472980227435  0.8729903447477986  0.5850244724411666  1.0000
  H   H78       1.0  0.41283465441026235  0.8143722811878457  0.6205072713696478  1.0000
  H   H79       1.0  0.4269410222026587  0.7477989512625947  0.5242123101875387  1.0000
  H   H80       1.0  0.43830108771465515  0.8055722312602831  0.4892368001720901  1.0000
  C   C121      1.0  0.36664317236905825  0.6333959179499825  0.9426659890566699  1.0000
  C   C122      1.0  0.3217977623048749  0.10482498652642169  0.9234328554848042  1.0000
  C   C123      1.0  0.3316978065344779  0.06873519658799077  0.9104488986170114  1.0000
  C   C124      1.0  0.3668853481438039  0.06271019743788853  0.8953321427935348  1.0000
  C   C125      1.0  0.3909616088990259  0.09307852827254615  0.8913074720587169  1.0000
  C   C126      1.0  0.40381205512319013  0.6239134480700635  0.9362943286146713  1.0000
  H   H81       1.0  0.29523402261519044  0.10918837355981914  0.9364220759972163  1.0000
  H   H82       1.0  0.3127743281230835  0.045281204136773834  0.9133509370690032  1.0000
  H   H83       1.0  0.41740349916351277  0.08881673687724145  0.8787530048522354  1.0000
  H   H84       1.0  0.42245904704823245  0.6445968043376635  0.9248753907882442  1.0000
  C   C127      1.0  0.5765711865576947  0.9144375974932729  0.18874610662425942  1.0000
  C   C128      1.0  0.14376729399418248  0.8964766736789996  0.1535449490187589  1.0000
  C   C129      1.0  0.17657311386644622  0.8803437691579966  0.13997323564027042  1.0000
  C   C130      1.0  0.18717615820888872  0.843643219508216  0.15018818312295504  1.0000
  C   C131      1.0  0.16406273943300165  0.822554309801395  0.17285267417161934  1.0000
  C   C132      1.0  0.5863197895869158  0.8763900293334371  0.19378517965712835  1.0000
  H   H85       1.0  0.1356474990863937  0.9246595585518221  0.14531119963406877  1.0000
  H   H86       1.0  0.19407518071935617  0.8965280154148392  0.1220169934226152  1.0000
  H   H87       1.0  0.17159875355891338  0.7938541407452349  0.18006092928287434  1.0000
  H   H88       1.0  0.5649233008021265  0.8550318220105294  0.19463345564949827  1.0000
  C   C133      1.0  0.5549668295164347  0.838429603680862  0.3275630883264508  1.0000
  C   C134      1.0  0.5485585584515213  0.8024682620499054  0.3422231359014537  1.0000
  C   C135      1.0  0.5638604339188763  0.7702040599592411  0.32567320092009494  1.0000
  C   C136      1.0  0.5850326666433308  0.7739147384753281  0.294243111395854  1.0000
  C   C137      1.0  0.5905282872632376  0.8097149075293599  0.2791943788848035  1.0000
  C   C138      1.0  0.5755532870888509  0.8419625589582448  0.29579732533455866  1.0000
  H   H89       1.0  0.5326721240840488  0.7995708380419755  0.36682057343739316  1.0000
  H   H90       1.0  0.5602266323145816  0.7425904637156131  0.3377324106926148  1.0000
  H   H91       1.0  0.6062949911020825  0.8124420367908269  0.25460754531911756  1.0000
  H   H92       1.0  0.5796084434430114  0.8695174812444574  0.2837870987717088  1.0000
  C   C139      1.0  0.33253021816756784  0.7709642171489804  0.28582934284928485  1.0000
  C   C140      1.0  0.31970404323059665  0.804914706153904  0.270311922818798  1.0000
  C   C141      1.0  0.3251874763666594  0.8393731993103433  0.28858253183424365  1.0000
  C   C142      1.0  0.343516679061344  0.8395959693487187  0.32216661552520787  1.0000
  C   C143      1.0  0.3544696624187225  0.8053765205738915  0.338120825959468  1.0000
  C   C144      1.0  0.34903071627951526  0.7711938725292719  0.3200701195070899  1.0000
  H   H93       1.0  0.3071384818679244  0.8047769616904539  0.24363209770996472  1.0000
  H   H94       1.0  0.3169530933364333  0.8657905545786211  0.275946030218269  1.0000
  H   H95       1.0  0.36782560762379274  0.8050972918996571  0.364236765363619  1.0000
  H   H96       1.0  0.3581806842774666  0.7449566835780624  0.3325456779140489  1.0000
  C   C145      1.0  0.2502709826052646  0.6368695336778094  0.07892864878676824  1.0000
  C   C146      1.0  0.23620000494788573  0.6711565769215668  0.06561603991778733  1.0000
  C   C147      1.0  0.2125629560201185  0.6714391806919986  0.03544271274651356  1.0000
  C   C148      1.0  0.20253199087377402  0.637385856618082  0.019020598425225854  1.0000
  C   C149      1.0  0.21653012550573464  0.6029876938775255  0.032339619074380765  1.0000
  C   C150      1.0  0.24072554139137103  0.6027562934007863  0.06221245880251147  1.0000
  H   H97       1.0  0.2442020211030979  0.6976196726011503  0.07800469300804523  1.0000
  H   H98       1.0  0.2021877063031239  0.6980868365730031  0.024760119186883367  1.0000
  H   H99       1.0  0.2092205962011928  0.5766943217687536  0.01921176283321957  1.0000
  H   H100      1.0  0.251741694894427  0.5762325915237309  0.07252225348707364  1.0000
  C   C151      1.0  0.37311175335941  0.20603277842771472  0.5181266557035119  1.0000
  C   C152      1.0  0.38627089610992243  0.24306106622964885  0.5176718654675397  1.0000
  C   C153      1.0  0.3670416119160553  0.7321307450664519  0.4182494927603054  1.0000
  C   C154      1.0  0.3991685762267087  0.7101639224962036  0.4137399847743727  1.0000
  C   C155      1.0  0.4359683046493371  0.1826639243180801  0.5083962638979982  1.0000
  C   C156      1.0  0.39807027236478476  0.17578875010826978  0.5138704034868266  1.0000
  H   H101      1.0  0.3081328356760971  0.7320160917266675  0.4284213631625437  1.0000
  H   H102      1.0  0.36850638172897054  0.7624566422025545  0.41770418599226  1.0000
  H   H103      1.0  0.4550985129723914  0.15915836547722773  0.5048617197922645  1.0000
  H   H104      1.0  0.388378534625811  0.14705578296779254  0.5151629378211808  1.0000
  C   C157      1.0  0.20630694875218575  0.050595468921939224  0.30417702310368344  1.0000
  C   C158      1.0  0.24168229859677776  0.06042955309555409  0.31664330187973805  1.0000
  C   C159      1.0  0.2458943497467943  0.09084254235549705  0.34050355207167143  1.0000
  C   C160      1.0  0.2146892236817185  0.11101297349212325  0.3523846252319467  1.0000
  C   C161      1.0  0.17939966683212002  0.10198598723692931  0.33905178950559417  1.0000
  C   C162      1.0  0.175151772066198  0.07170687413690668  0.3148599096851142  1.0000
  H   H105      1.0  0.2658363621983591  0.04434784297684291  0.3081028661705088  1.0000
  H   H106      1.0  0.273324028943229  0.09847326653785293  0.34991566323850637  1.0000
  H   H107      1.0  0.1553494751676598  0.11737341842119253  0.3486679505866871  1.0000
  H   H108      1.0  0.14773252004534354  0.06393867320243829  0.3054534556467244  1.0000
  C   C163      1.0  0.3984553315915137  0.06619764544498419  0.3633952327176272  1.0000
  C   C164      1.0  0.36511717833733864  0.05941368585359519  0.344968134048528  1.0000
  C   C165      1.0  0.36576292967166846  0.048670156232494266  0.30840223037898573  1.0000
  C   C166      1.0  0.3996644046256011  0.045535346080133765  0.29012510046723844  1.0000
  C   C167      1.0  0.4329098960323854  0.05289334136660484  0.30848122099329905  1.0000
  C   C168      1.0  0.43232629000280115  0.0627456200577643  0.34519371730318776  1.0000
  H   H109      1.0  0.33887200608895757  0.06211114104598692  0.3588134163099584  1.0000
  H   H110      1.0  0.33999429553839183  0.043030612860136985  0.29421690607953366  1.0000
  H   H111      1.0  0.45913132371923115  0.050902919322391105  0.29449671829370455  1.0000
  H   H112      1.0  0.458172632592541  0.06800056991503722  0.35937788790629516  1.0000
  C   C169      1.0  0.5812464877921567  0.8105846125985738  0.6849341089554034  1.0000
  C   C170      1.0  0.11406542254230834  0.8279477378807162  0.6920708399692712  1.0000
  C   C171      1.0  0.12481059583114495  0.8660431261981443  0.694757645980066  1.0000
  C   C172      1.0  0.09794086342028319  0.8949598230370284  0.6933400666739775  1.0000
  C   C173      1.0  0.5640991606214759  0.8762904255855418  0.6739411267438916  1.0000
  C   C174      1.0  0.5541651215701283  0.839204538660811  0.6832025422788952  1.0000
  H   H113      1.0  0.13500403001771788  0.8057786457353181  0.692673158180415  1.0000
  H   H114      1.0  0.15392979074737137  0.8729758936915758  0.6972081688959473  1.0000
  H   H115      1.0  0.5429531485868296  0.8981735761953442  0.6717638622958424  1.0000
  H   H116      1.0  0.5255828632430565  0.8329363248460542  0.6887580775402979  1.0000
  C   C175      1.0  0.25255776070573094  0.8288764680275013  0.7745813011711741  1.0000
  C   C176      1.0  0.24631859700372727  0.7911135259771453  0.783854483734293  1.0000
  C   C177      1.0  0.23620312284361958  0.7819368856344242  0.8194306367772716  1.0000
  C   C178      1.0  0.2323184277914754  0.8104922629961624  0.8455155270912252  1.0000
  C   C179      1.0  0.23854429945718966  0.8480385995284226  0.8359260189744038  1.0000
  C   C180      1.0  0.24947875814599466  0.8570616172866647  0.8008734982501996  1.0000
  H   H117      1.0  0.2480151379573007  0.7692642520434555  0.7633864442147187  1.0000
  H   H118      1.0  0.22974604966040746  0.7530070432680219  0.8260333858824951  1.0000
  H   H119      1.0  0.2346669232616496  0.8703992192088189  0.855257614810077  1.0000
  H   H120      1.0  0.25491955142154427  0.8861640714485299  0.7942040804034404  1.0000
  C   C181      1.0  0.20781029671698448  0.02741313445420257  0.8483672445613956  1.0000
  C   C182      1.0  0.18019795154434154  0.043990411799866624  0.8266972693025579  1.0000
  C   C183      1.0  0.16764055188033558  0.0808567341203108  0.8340341033819741  1.0000
  C   C184      1.0  0.18304297855624285  0.1013516093435729  0.8627093648530919  1.0000
  C   C185      1.0  0.2111853044189378  0.08503834186051362  0.8840193313020477  1.0000
  C   C186      1.0  0.22327893918716227  0.04790584326789005  0.8770813873978441  1.0000
  H   H121      1.0  0.16796345612594105  0.0281087308514254  0.8048089831522001  1.0000
  H   H122      1.0  0.1459537903621444  0.09361116239819234  0.8175562716350756  1.0000
  H   H123      1.0  0.22339158783647767  0.10080723598478092  0.9060306345353611  1.0000
  H   H124      1.0  0.244993056642302  0.03531980064333351  0.893625206971605  1.0000
  C   C187      1.0  0.2806033269451367  0.02085224485489423  0.6305013991294982  1.0000
  C   C188      1.0  0.26985556245229586  0.9870658213498295  0.6139487973681541  1.0000
  C   C189      1.0  0.2661606608242937  0.9850866071377836  0.5762447108541201  1.0000
  C   C190      1.0  0.2732422607302515  0.01692849903248206  0.5549430693214455  1.0000
  C   C191      1.0  0.2848983843902666  0.05056497621479239  0.5713123444054  1.0000
  C   C192      1.0  0.288824319542386  0.05243465917606582  0.6091113885494036  1.0000
  H   H125      1.0  0.264484709082752  0.9623464442719831  0.6300312015788692  1.0000
  H   H126      1.0  0.25729362604016115  0.9590184105027372  0.5636127483688327  1.0000
  H   H127      1.0  0.2902936623102746  0.07529992776240269  0.5549709520755729  1.0000
  H   H128      1.0  0.29734808082401837  0.07857654453159313  0.6217822265519529  1.0000
  Fe  Fe65      1.0  0.7681478585974827  0.4370211147251113  0.7338891511534168  1.0000
  S   S129      1.0  0.729414502084055  0.4740776841020548  0.7656151709777356  1.0000
  S   S130      1.0  0.8091371221495461  0.46305772600524164  0.6952397849468824  1.0000
  Fe  Fe66      1.0  0.7448169663035502  0.365783954829631  0.7735345536338852  1.0000
  S   S131      1.0  0.7044818180707985  0.39654755805186637  0.809260752925004  1.0000
  S   S132      1.0  0.7529245024730872  0.30262896468276096  0.7731263130044618  1.0000
  Fe  Fe67      1.0  0.6882053841515074  0.42735059619855775  0.7585091670601964  1.0000
  S   S133      1.0  0.6276860376861486  0.4400940428960886  0.7492141340483901  1.0000
  Fe  Fe68      1.0  0.7487893362469726  0.44031733834717546  0.8135119181167089  1.0000
  S   S134      1.0  0.7651096605843609  0.46985837762988314  0.8645803507501297  1.0000
  S   S135      1.0  0.7249825371596383  0.39309929357739215  0.722061936102989  1.0000
  S   S136      1.0  0.7910955243872669  0.4067997836247428  0.7826849152350611  1.0000
  Fe  Fe69      1.0  0.7844808741062386  0.49692334089223344  0.4952061803369297  1.0000
  S   S137      1.0  0.7690203944300723  0.5575872752818906  0.5045750953011406  1.0000
  S   S138      1.0  0.7664850801119033  0.447899769281782  0.5293465087950205  1.0000
  Fe  Fe70      1.0  0.8276804302684556  0.5141370438120232  0.4276777717076498  1.0000
  S   S139      1.0  0.8168478967309659  0.5767749619870375  0.43017647323231195  1.0000
  S   S140      1.0  0.8630734688585711  0.4822842746071129  0.38823464071169705  1.0000
  Fe  Fe71      1.0  0.8280491343595761  0.5695714713911569  0.4896034301916074  1.0000
  S   S141      1.0  0.8589816314488214  0.6130204899071444  0.5214859583228704  1.0000
  Fe  Fe72      1.0  0.7587646412065685  0.559827309912074  0.4446928473695622  1.0000
  S   S142      1.0  0.7070892789238388  0.5888032493725803  0.4242740658908135  1.0000
  S   S143      1.0  0.8446736511858256  0.5086012966788613  0.4859182509149344  1.0000
  S   S144      1.0  0.7684015976878072  0.4978073497117047  0.4364613528173489  1.0000
  Fe  Fe73      1.0  0.6877075716187602  0.2424741012176353  0.17887846162094628  1.0000
  S   S145      1.0  0.7372436180752026  0.2806877203425726  0.1810302746627035  1.0000
  S   S146      1.0  0.6569067508684934  0.23018058025201674  0.12779162828281043  1.0000
  Fe  Fe74      1.0  0.6824271074416131  0.23535127951111523  0.2598807398122981  1.0000
  S   S147      1.0  0.7309432726260886  0.2729809399740177  0.2693205778401514  1.0000
  S   S148      1.0  0.6531865497317032  0.2112843361674621  0.30781878300020765  1.0000
  Fe  Fe75      1.0  0.7060146890440523  0.3092821166899467  0.22593631528488592  1.0000
  S   S149      1.0  0.7048073129551896  0.37247474570155975  0.2324122487462288  1.0000
  Fe  Fe76      1.0  0.7575011768310609  0.24070951752340922  0.2242473075352735  1.0000
  S   S150      1.0  0.8156556174132231  0.21955450867351387  0.23439055583299195  1.0000
  S   S151      1.0  0.6548181759779678  0.2741213232784591  0.21998016768297937  1.0000
  S   S152      1.0  0.7106377061771427  0.1996225908580944  0.21810845478778187  1.0000
  Fe  Fe77      1.0  0.7300295510097198  0.08722466350291948  0.916687391079876  1.0000
  S   S153      1.0  0.7670774359855288  0.13208511995200078  0.893618244889864  1.0000
  S   S154      1.0  0.7016405710153268  0.03896596140807107  0.8890153120091883  1.0000
  Fe  Fe78      1.0  0.7447784419363517  0.10976844845304724  0.9939896405542503  1.0000
  S   S155      1.0  0.7827652779800093  0.15707804965784578  0.9787559805845346  1.0000
  S   S156      1.0  0.7321127518654438  0.09107434830629213  0.05062680250703977  1.0000
  Fe  Fe79      1.0  0.7406211989069811  0.16975230488306287  0.935262409322141  1.0000
  S   S157      1.0  0.7247467035111789  0.230797973334094  0.9270475864326978  1.0000
  Fe  Fe80      1.0  0.8061020963276679  0.11606761524848698  0.9386751308726599  1.0000
  S   S158      1.0  0.867240536790997  0.1142143510714344  0.9274356823374901  1.0000
  S   S159      1.0  0.7000109773782403  0.12627883157883635  0.9544234993471091  1.0000
  S   S160      1.0  0.7717695757046565  0.06757019814367515  0.957582864754273  1.0000
  Fe  Fe81      1.0  0.9476681121954924  0.30604941939090624  0.46710721241038083  1.0000
  S   S161      1.0  0.9980502922797484  0.27017432308671374  0.45639742597831473  1.0000
  S   S162      1.0  0.9348314491011149  0.3315644807522093  0.5211232924794905  1.0000
  Fe  Fe82      1.0  0.921633826060466  0.30481090011144446  0.3894646236068123  1.0000
  S   S163      1.0  0.96921546617143  0.26868643365777495  0.3711179827670718  1.0000
  S   S164      1.0  0.8773058487133562  0.3298824940733447  0.354135666689355  1.0000
  Fe  Fe83      1.0  0.9592870851776364  0.2359207555499089  0.4220878112277622  1.0000
  S   S165      1.0  0.964310907722186  0.1726990865039835  0.418627080479547  1.0000
  Fe  Fe84      1.0  0.003855105411366244  0.30599065424074434  0.406623860622084  1.0000
  S   S166      1.0  0.05889800952089641  0.33045446705890885  0.3916610518820393  1.0000
  S   S167      1.0  0.9079357180057874  0.2688100468794936  0.43712868431952195  1.0000
  S   S168      1.0  0.9571077403515189  0.3451278940686962  0.42053380391799217  1.0000
  Fe  Fe85      1.0  0.9923161831917019  0.23363962906771907  0.7285918574440674  1.0000
  S   S169      1.0  0.9504696146244356  0.27093943072999443  0.7007198964403663  1.0000
  S   S170      1.0  0.0540644124657399  0.24089092445560462  0.7223254434078611  1.0000
  Fe  Fe86      1.0  0.9332825866321115  0.185676425066453  0.7639985679095733  1.0000
  S   S171      1.0  0.8861293014855516  0.21897301726884288  0.7397023888811601  1.0000
  S   S172      1.0  0.9199372583725746  0.1376063128535219  0.8011432078925894  1.0000
  Fe  Fe87      1.0  0.9201005718731947  0.21729925542956052  0.689062496681204  1.0000
  S   S173      1.0  0.8947157864397989  0.20538336734529977  0.6347253466428497  1.0000
  Fe  Fe88      1.0  0.9205216221865453  0.26940456192310025  0.753630830252492  1.0000
  S   S174      1.0  0.8966362653052383  0.322101637057766  0.7780679767424526  1.0000
  S   S175      1.0  0.964703034462867  0.1794862977036145  0.7121221500994274  1.0000
  S   S176      1.0  0.9648528182719723  0.23634126066515362  0.7829160386582382  1.0000
  Fe  Fe89      1.0  0.006500787559248655  0.5741406441647109  0.17149243710147086  1.0000
  S   S177      1.0  0.9670345658770673  0.525405109196227  0.17600621815477516  1.0000
  S   S178      1.0  0.021382821845037592  0.6026104744800447  0.11926636113683828  1.0000
  Fe  Fe90      1.0  0.021510159276461938  0.5779259198426048  0.25166533264155394  1.0000
  S   S179      1.0  0.984343162708502  0.5294044725292778  0.2637821150068085  1.0000
  S   S180      1.0  0.049257514961731586  0.6058861355617075  0.29871315827283373  1.0000
  Fe  Fe91      1.0  0.009608509186157743  0.5021457275329886  0.21500153259666605  1.0000
  S   S181      1.0  0.023564387926630292  0.440239708659052  0.21948583753213008  1.0000
  Fe  Fe92      1.0  0.9449275504899675  0.5566567989618777  0.2243313038622337  1.0000
  S   S182      1.0  0.8844873917945595  0.5640237324202272  0.23839411175553826  1.0000
  S   S183      1.0  0.050972091288139953  0.5483102034804124  0.20649677947679476  1.0000
  S   S184      1.0  0.9802668746738624  0.6079158157666699  0.21613114073663903  1.0000
  Fe  Fe93      1.0  0.042004449864561755  0.4932267955618866  0.9478032227569136  1.0000
  S   S185      1.0  0.9958467255530515  0.4537828295282261  0.9327992347869319  1.0000
  S   S186      1.0  0.0729520409418567  0.4856187394379401  0.0002667164597445204  1.0000
  Fe  Fe94      1.0  0.03701387006422996  0.5355525525263238  0.8766120173600828  1.0000
  S   S187      1.0  0.9904740955272624  0.5000829928136167  0.8554460605548204  1.0000
  S   S188      1.0  0.06152351631157971  0.5802218242731606  0.8412486586602913  1.0000
  Fe  Fe95      1.0  0.9678048222861316  0.5064743727119017  0.9115434851799282  1.0000
  S   S189      1.0  0.9070762523683273  0.5166954558047732  0.9216269593364413  1.0000
  Fe  Fe96      1.0  0.023088393339992797  0.45155150593414467  0.8783739070900646  1.0000
  S   S190      1.0  0.03751065765559258  0.40194821757226207  0.8435170674986648  1.0000
  S   S191      1.0  0.011841191402384377  0.5462330992847025  0.9310393228352848  1.0000
  S   S192      1.0  0.0715895640201174  0.4863257359405253  0.8951199594928277  1.0000
  C   C193      1.0  0.037135980396529655  0.570294092157177  0.08668637982381155  1.0000
  C   C194      1.0  0.042217967403785694  0.5823879174855808  0.050947035033096506  1.0000
  C   C195      1.0  0.05323970321868732  0.5564725582961036  0.024229147569702514  1.0000
  C   C196      1.0  0.06007517922487038  0.5186068117967823  0.03343741651441201  1.0000
  C   C197      1.0  0.056078837518243496  0.5067891449775938  0.06943285409110467  1.0000
  C   C198      1.0  0.044034262279782244  0.5324645700810329  0.09594255755662826  1.0000
  H   H129      1.0  0.0372699471174851  0.6117499533793517  0.04380247993793108  1.0000
  H   H130      1.0  0.057087543182710476  0.5659481207362331  0.9966575355377639  1.0000
  H   H131      1.0  0.061407483492254  0.4775078054572638  0.07663873923760778  1.0000
  H   H132      1.0  0.04014098905168928  0.5229029734156296  0.12349915398590477  1.0000
  C   C199      1.0  0.9602000153222493  0.11918836520487329  0.8217161967570955  1.0000
  C   C200      1.0  0.9570655017315172  0.08897889057265451  0.8458939157574697  1.0000
  C   C201      1.0  0.9887164339894969  0.073893417576538  0.8628711821395856  1.0000
  C   C202      1.0  0.023652598697598393  0.08906463821802069  0.8560666110300814  1.0000
  C   C203      1.0  0.026973315020870414  0.119480075171017  0.8319485327228243  1.0000
  C   C204      1.0  0.9952390728108823  0.13440548254026763  0.8145397659768965  1.0000
  H   H133      1.0  0.9300950221120052  0.0776192970592775  0.8520666732565327  1.0000
  H   H134      1.0  0.05988907198361626  0.6349757279950801  0.7829221624117821  1.0000
  H   H135      1.0  0.05405127942270349  0.13134514137473  0.8265624831367591  1.0000
  H   H136      1.0  0.9979296372158845  0.15763808649228148  0.7956650119984564  1.0000
  C   C205      1.0  0.9349376769363781  0.34737240098142363  0.794355015474304  1.0000
  C   C206      1.0  0.9705555780651008  0.33698224106593827  0.782940623071443  1.0000
  C   C207      1.0  0.0018390854812437851  0.3546499598440469  0.7974539878091979  1.0000
  C   C208      1.0  0.9976728570535637  0.3826341929088911  0.8237926837939331  1.0000
  C   C209      1.0  0.9620179782039333  0.3941592310895271  0.8345459774642804  1.0000
  C   C210      1.0  0.9305263693204546  0.3765409726021721  0.8196755156781741  1.0000
  H   H137      1.0  0.9741044877542667  0.3150487429343143  0.7630386161227756  1.0000
  H   H138      1.0  0.029234159645931346  0.3463387118742593  0.7884094095313922  1.0000
  H   H139      1.0  0.9587282425502265  0.41579068963340765  0.8550132610892031  1.0000
  H   H140      1.0  0.9029728818694434  0.38456389916363576  0.8286363067477007  1.0000
  C   C211      1.0  0.9215019673625996  0.2967793609745482  0.5520524619875071  1.0000
  C   C212      1.0  0.9165532481455511  0.3064849933697743  0.5884030534793611  1.0000
  C   C213      1.0  0.9079995423013866  0.27845827460049144  0.6138269324908009  1.0000
  C   C214      1.0  0.9040130816604515  0.2408108912989806  0.6029240841964101  1.0000
  C   C215      1.0  0.9082359622051728  0.23125842000736346  0.5664198217406706  1.0000
  C   C216      1.0  0.9173896737022126  0.25916579590857075  0.5410354447374578  1.0000
  H   H141      1.0  0.9198745569999893  0.33556997487405155  0.5969572407281577  1.0000
  H   H142      1.0  0.9041684717990173  0.28604307770198206  0.6417662299314227  1.0000
  H   H143      1.0  0.9052559951184209  0.20211425499564734  0.5578939371802007  1.0000
  H   H144      1.0  0.9216591095741855  0.2513581149934675  0.5130907103306662  1.0000
  C   C217      1.0  0.8906175059303167  0.07473987414594618  0.9459367044007047  1.0000
  C   C218      1.0  0.8433073977294842  0.6108370594094411  0.9316709790304193  1.0000
  C   C219      1.0  0.8554707507172875  0.5729959707346839  0.9304319156085095  1.0000
  C   C220      1.0  0.8922426854084906  0.5642478560754299  0.9212495921665019  1.0000
  C   C221      1.0  0.9168521068731457  0.5934603759273768  0.9131542753230643  1.0000
  C   C222      1.0  0.9283364890064045  0.06959447259194063  0.9385406004824994  1.0000
  H   H145      1.0  0.8149636519862921  0.6172846321879937  0.9390283059389892  1.0000
  H   H146      1.0  0.8364480573936109  0.5504849830347643  0.9370715121388296  1.0000
  H   H147      1.0  0.9452199391808648  0.5870267964983904  0.9059345924339421  1.0000
  H   H148      1.0  0.9431995911215758  0.09113398554957254  0.9238078142074133  1.0000
  C   C223      1.0  0.06987629579887544  0.4291883679079164  0.20895735348222302  1.0000
  C   C224      1.0  0.621070311242912  0.4428864742443124  0.2590117136371527  1.0000
  C   C225      1.0  0.6564071038030983  0.42867222254212345  0.2507786090824967  1.0000
  C   C226      1.0  0.6624952886998747  0.38962688998583456  0.24927348592249635  1.0000
  C   C227      1.0  0.6338224727296394  0.3650426633707516  0.2586794867098509  1.0000
  C   C228      1.0  0.0852947434671647  0.3948536113884038  0.22099461240271334  1.0000
  H   H149      1.0  0.616748390294269  0.47301913255006006  0.25967546193124225  1.0000
  H   H150      1.0  0.6787143286454193  0.44796414235956505  0.2444748250524391  1.0000
  H   H151      1.0  0.6387015804314318  0.33512085922833323  0.2595773224334446  1.0000
  H   H152      1.0  0.06839548893945735  0.37498595790962713  0.23582822243975674  1.0000
  C   C229      1.0  0.07994104670409863  0.30501616540576476  0.3566802917724285  1.0000
  C   C230      1.0  0.058408716250935466  0.2864843245613594  0.3306263607964717  1.0000
  C   C231      1.0  0.07554631005872037  0.26557110284069263  0.30311307079357347  1.0000
  C   C232      1.0  0.11427289154677167  0.26352666949351417  0.30155889737337405  1.0000
  C   C233      1.0  0.1358880431801308  0.28212988204514905  0.32750971703641435  1.0000
  C   C234      1.0  0.11870293576058444  0.3031922983369002  0.3548920048745923  1.0000
  H   H153      1.0  0.028658634847782194  0.28922764889290004  0.33087804212724764  1.0000
  H   H154      1.0  0.05889075254868659  0.2520024567821809  0.28246068460532625  1.0000
  H   H155      1.0  0.16587705073305892  0.2802183801570049  0.3264718871524509  1.0000
  H   H156      1.0  0.13533115945566832  0.3178435608376815  0.3748421571118723  1.0000
  C   C235      1.0  0.8360361492306784  0.250871204707167  0.2653656799415278  1.0000
  C   C236      1.0  0.8230543906093332  0.2882110676434888  0.2674121528505049  1.0000
  C   C237      1.0  0.8358719185527593  0.3122217213828224  0.2947951829531615  1.0000
  C   C238      1.0  0.8621535465501864  0.2991740606813669  0.3199722706867286  1.0000
  C   C239      1.0  0.876129165251974  0.2621525349808043  0.3173621936694046  1.0000
  C   C240      1.0  0.8632232075239518  0.2380490008358585  0.28986537425625214  1.0000
  H   H157      1.0  0.802922238806214  0.2986783890696811  0.24789673818899355  1.0000
  H   H158      1.0  0.8251027088666713  0.340876393769502  0.2965775313011501  1.0000
  H   H159      1.0  0.8963307539086559  0.2518328120576727  0.33683378898571875  1.0000
  H   H160      1.0  0.8735497142097234  0.20924284774803625  0.2882113525348274  1.0000
  C   C241      1.0  0.6760116065943634  0.19068423545222016  0.10630923077554709  1.0000
  C   C242      1.0  0.6854486261250474  0.19305821652500826  0.06975285917395949  1.0000
  C   C243      1.0  0.7025518036700122  0.16228309640297825  0.052634309310569005  1.0000
  C   C244      1.0  0.709262933479545  0.1287630695564148  0.07180199531557485  1.0000
  C   C245      1.0  0.6983331200966898  0.125737865447219  0.10799940240294623  1.0000
  C   C246      1.0  0.6822390022434162  0.15699692444795477  0.12550038445920172  1.0000
  H   H161      1.0  0.6805790483037774  0.21911137889960777  0.05490956227202226  1.0000
  H   H162      1.0  0.7109498025135209  0.16490308026902512  0.024719686995521073  1.0000
  H   H163      1.0  0.7026568363645992  0.09946403643351487  0.1225266066775168  1.0000
  H   H164      1.0  0.6742056111506004  0.1549426015567073  0.1535931152106376  1.0000
  C   C247      1.0  0.9034036775804889  0.6222516908938476  0.5046926142130822  1.0000
  C   C248      1.0  0.9175586778726961  0.658770710645158  0.5080408793376409  1.0000
  C   C249      1.0  0.8920313848272218  0.1698129702810233  0.44090934009246957  1.0000
  C   C250      1.0  0.9202134772266857  0.152268691625798  0.4209346659584103  1.0000
  C   C251      1.0  0.9608042186834959  0.6020791804707195  0.47604550911393134  1.0000
  C   C252      1.0  0.9249546625050163  0.5937847840145555  0.4886013850441496  1.0000
  H   H165      1.0  0.8341215374934942  0.16941247267169257  0.4553421763126632  1.0000
  H   H166      1.0  0.8981382119421499  0.1942823448445036  0.4572302788619371  1.0000
  H   H167      1.0  0.9777446697917517  0.5799973657611007  0.46406560937175434  1.0000
  H   H168      1.0  0.9142734443232183  0.5653261207888962  0.4864413345413284  1.0000
  C   C253      1.0  0.6817819862588865  0.5699150519161849  0.30482875351063804  1.0000
  C   C254      1.0  0.7168826738109503  0.5599027062236828  0.3186726849649847  1.0000
  C   C255      1.0  0.7248076571650507  0.5649313735388299  0.3556447713980162  1.0000
  C   C256      1.0  0.697618986513642  0.5799947483343567  0.37858444242953676  1.0000
  C   C257      1.0  0.662597360175299  0.5896601324701599  0.3647173213131778  1.0000
  C   C258      1.0  0.6548643391320814  0.5851067869638087  0.3278704211880244  1.0000
  H   H169      1.0  0.7377550225771053  0.5478031452916324  0.3011033765405438  1.0000
  H   H170      1.0  0.7519435199014749  0.5574104008817551  0.3663348952155186  1.0000
  H   H171      1.0  0.6412773098165566  0.6006272170476941  0.3824914381364914  1.0000
  H   H172      1.0  0.6280305113470187  0.5937417759761658  0.31725642683479455  1.0000
  C   C259      1.0  0.8651493708764316  0.5029560106178116  0.34519167858296473  1.0000
  C   C260      1.0  0.8433045387883679  0.5345885949360258  0.33611253927680546  1.0000
  C   C261      1.0  0.8483516111515099  0.5527872367290237  0.30267460940979035  1.0000
  C   C262      1.0  0.8749015302354652  0.5390143436760522  0.27825634873230515  1.0000
  C   C263      1.0  0.8952792725140023  0.5063234322870604  0.2867104511620787  1.0000
  C   C264      1.0  0.8907181437776467  0.48860763528574963  0.3202838993921279  1.0000
  H   H173      1.0  0.8232287842241199  0.5455544005750833  0.3551608203446258  1.0000
  H   H174      1.0  0.8325760129435894  0.5781586995499647  0.29632474670695647  1.0000
  H   H175      1.0  0.9146177356991577  0.49471046594519374  0.2673399144510389  1.0000
  H   H176      1.0  0.9075554906222136  0.46425433381674075  0.327389575771688  1.0000
  C   C265      1.0  0.06869169850155021  0.2862576881262494  0.7096462827985869  1.0000
  C   C266      1.0  0.5997208917493381  0.33365446574607366  0.719754798581936  1.0000
  C   C267      1.0  0.6204330707708415  0.3659863415942732  0.7280928301691253  1.0000
  C   C268      1.0  0.6022817465901642  0.3998337174090569  0.7371304371193432  1.0000
  C   C269      1.0  0.05553348990611062  0.3522807238422116  0.6958732424986482  1.0000
  C   C270      1.0  0.04340595124054669  0.31639052679786467  0.7066574247865918  1.0000
  H   H177      1.0  0.6138621430818698  0.30748390877844683  0.7128781850554557  1.0000
  H   H178      1.0  0.6504006635794721  0.3645884162790193  0.7276805677308661  1.0000
  H   H179      1.0  0.035806560412851685  0.37547948475917925  0.6935301842682811  1.0000
  H   H180      1.0  0.01454648662567215  0.31227284379507264  0.7128029033435803  1.0000
  C   C271      1.0  0.7448813826341147  0.28252902008902236  0.8157513899612769  1.0000
  C   C272      1.0  0.7415123806107322  0.24319447372138536  0.8192342596269327  1.0000
  C   C273      1.0  0.7350874311448575  0.22693509394498293  0.8533381182023082  1.0000
  C   C274      1.0  0.7320272506166853  0.2500504866114723  0.8839284767430599  1.0000
  C   C275      1.0  0.73537349969209  0.28932792218849895  0.8803625928619007  1.0000
  C   C276      1.0  0.7420666854958144  0.3055278640839313  0.8463906735425423  1.0000
  H   H181      1.0  0.7435259855663934  0.22534512350346883  0.7955097766478311  1.0000
  H   H182      1.0  0.731840299239075  0.19666221192817387  0.8558348576218529  1.0000
  H   H183      1.0  0.7333656240164356  0.307240963469938  0.904058634694834  1.0000
  H   H184      1.0  0.7456100321400548  0.33577547867316  0.8440984157180659  1.0000
  C   C277      1.0  0.7426506608137864  0.513981215257622  0.866132361380963  1.0000
  C   C278      1.0  0.7080708006723858  0.5191053704241765  0.8493303142519522  1.0000
  C   C279      1.0  0.6910746969753112  0.5549522913827498  0.8491142183935276  1.0000
  C   C280      1.0  0.708777051798769  0.5858054307030961  0.8651966984360411  1.0000
  C   C281      1.0  0.7434567172229302  0.5806891556075543  0.8818900000860427  1.0000
  C   C282      1.0  0.7601569865640041  0.5446697476335847  0.882737313921883  1.0000
  H   H185      1.0  0.6943390648218335  0.49534613330313637  0.8367618018201148  1.0000
  H   H186      1.0  0.6643840978937262  0.5589256346082588  0.8362691967198052  1.0000
  H   H187      1.0  0.7577417016898557  0.604468925241161  0.8936257860890583  1.0000
  H   H188      1.0  0.7870643922257519  0.5407736777380975  0.895349920530321  1.0000
  C   C283      1.0  0.7972113235935196  0.45888029398106245  0.6491058650027206  1.0000
  C   C284      1.0  0.7699700665212178  0.4334089960887872  0.6378519960171833  1.0000
  C   C285      1.0  0.7610510868418695  0.42987476574372147  0.6010090108019339  1.0000
  C   C286      1.0  0.7786436695053874  0.45253827255286233  0.5752519031379265  1.0000
  C   C287      1.0  0.8059155327399564  0.4781516926319785  0.5863669953341248  1.0000
  C   C288      1.0  0.8155215795772739  0.48093062042794665  0.6232275392554155  1.0000
  H   H189      1.0  0.7556259897937847  0.41646225415577603  0.657416323759437  1.0000
  H   H190      1.0  0.7398367626680984  0.4101771336036354  0.5925198475688953  1.0000
  H   H191      1.0  0.8196987321289836  0.49565376229922864  0.5665782300426426  1.0000
  H   H192      1.0  0.8368396021103305  0.5004393441960601  0.6317308366619567  1.0000
  Fe  Fe97      1.0  0.7512556446861405  0.9470091618129562  0.6219133832939251  1.0000
  S   S193      1.0  0.7065804039339226  0.9880218122484291  0.6386659856529108  1.0000
  S   S194      1.0  0.791371568307382  0.9495887993609355  0.5756528828376932  1.0000
  Fe  Fe98      1.0  0.7427225333554364  0.8980685314158926  0.6883501069841614  1.0000
  S   S195      1.0  0.6978122717104654  0.9344700653205239  0.7123132627905862  1.0000
  S   S196      1.0  0.7657566669293339  0.8430978391293251  0.7094782574283701  1.0000
  Fe  Fe99      1.0  0.6752776713967018  0.9362640769765465  0.6557639677536233  1.0000
  S   S197      1.0  0.6134199585486947  0.9302441447110285  0.6522754936962155  1.0000
  Fe  Fe100     1.0  0.7324122908809924  0.9833386892795235  0.6938826661426045  1.0000
  S   S198      1.0  0.742522725910645  0.037568301019896166  0.7235494689590486  1.0000
  S   S199      1.0  0.7173083601903647  0.8956498946229093  0.6329291679666703  1.0000
  S   S200      1.0  0.7797670149589498  0.9468438429228914  0.6759683337302018  1.0000
  Fe  Fe101     1.0  0.7670078465966318  0.9775604485315991  0.38204471130729745  1.0000
  S   S201      1.0  0.7437091729416021  0.03419920629877682  0.3661779642862043  1.0000
  S   S202      1.0  0.7300795847489401  0.9403786010131228  0.41551225643119966  1.0000
  Fe  Fe102     1.0  0.8408103365560751  0.9920732768881934  0.34464092791629286  1.0000
  S   S203      1.0  0.8240652254278428  0.050410977309003124  0.3263826988196373  1.0000
  S   S204      1.0  0.8944447328368296  0.9626098026206834  0.3308389692478556  1.0000
  Fe  Fe103     1.0  0.7997788087220192  0.05558996165551733  0.3820811077446112  1.0000
  S   S205      1.0  0.8026323229810257  0.10601674335542399  0.41852082166944804  1.0000
  Fe  Fe104     1.0  0.769967827726253  0.023225411486693215  0.3123589022015468  1.0000
  S   S206      1.0  0.7436248003494148  0.03381575991447772  0.258219054294605  1.0000
  S   S207      1.0  0.8216082625080883  0.9998510730873328  0.4018392485171665  1.0000
  S   S208      1.0  0.7880985567544132  0.964205571948748  0.326523413952009  1.0000
  Fe  Fe105     1.0  0.7299255349605539  0.7409946097448474  0.20811690045128248  1.0000
  S   S209      1.0  0.7588511963794683  0.7922144413490794  0.22994537954400576  1.0000
  S   S210      1.0  0.7613544901536776  0.7061370532675947  0.1674613500503793  1.0000
  Fe  Fe106     1.0  0.6616696245640705  0.7538233037037637  0.2542568744585461  1.0000
  S   S211      1.0  0.6849340654696284  0.8060532980966785  0.27983462698122863  1.0000
  S   S212      1.0  0.606504370009527  0.7342757630096451  0.27481361955081723  1.0000
  Fe  Fe107     1.0  0.703233563307745  0.8204638867158857  0.2237728648287181  1.0000
  S   S213      1.0  0.6982116564738214  0.8797101899560141  0.20209564032794713  1.0000
  Fe  Fe108     1.0  0.7377167267128751  0.7725393562902566  0.28366254318587386  1.0000
  S   S214      1.0  0.7686155140984021  0.7718412838278256  0.3364452353836541  1.0000
  S   S215      1.0  0.6756694003707358  0.7708191606152898  0.19740235941647608  1.0000
  S   S216      1.0  0.7132740340579569  0.7188508503332688  0.26258398391645016  1.0000
  Fe  Fe109     1.0  0.7194752073063335  0.6743163741961871  0.8942617234963696  1.0000
  S   S217      1.0  0.7668243443306519  0.7074857265938241  0.8715647425206454  1.0000
  S   S218      1.0  0.6869267350150583  0.6303614656488  0.8643507257512463  1.0000
  Fe  Fe110     1.0  0.7201329953454365  0.7149807400943484  0.9659201084044401  1.0000
  S   S219      1.0  0.7682309659565129  0.7516543712892498  0.9507685706751657  1.0000
  S   S220      1.0  0.6835571678961154  0.717826194866362  0.014906275898965538  1.0000
  Fe  Fe111     1.0  0.7392321443537423  0.7579617311163067  0.8971513466019728  1.0000
  S   S221      1.0  0.7313274559353693  0.8168181035856844  0.8748426712547482  1.0000
  Fe  Fe112     1.0  0.7924145894116742  0.6985273301943404  0.926519879936254  1.0000
  S   S222      1.0  0.8542253841250366  0.6878409628069572  0.9278145253879858  1.0000
  S   S223      1.0  0.6892120187921162  0.725710996383789  0.9141813815817273  1.0000
  S   S224      1.0  0.7470485916284331  0.6610822754492325  0.9474039323366447  1.0000
  Fe  Fe113     1.0  0.9846675430657253  0.7861244814516564  0.432534557347407  1.0000
  S   S225      1.0  0.04042095433803894  0.7599241029339597  0.44393091035281856  1.0000
  S   S226      1.0  0.961658978354217  0.8294441541358787  0.4705933540793412  1.0000
  Fe  Fe114     1.0  0.9717648623908967  0.7395813455640585  0.36504907260724234  1.0000
  S   S227      1.0  0.02632078996794207  0.7093849980569216  0.37026213056629553  1.0000
  S   S228      1.0  0.9366102510235942  0.7250876142957619  0.31678583505628705  1.0000
  Fe  Fe115     1.0  0.012412910546373057  0.7055399132631284  0.4292316779563776  1.0000
  S   S229      1.0  0.017384988054707673  0.6504232891166561  0.4592436695173879  1.0000
  Fe  Fe116     1.0  0.049061186048782846  0.7665103777739731  0.38420187431278047  1.0000
  S   S230      1.0  0.10044791200161352  0.7916108552503623  0.360114463142301  1.0000
  S   S231      1.0  0.9557511212415424  0.7312164251419496  0.4229669667151968  1.0000
  S   S232      1.0  0.9953076011455363  0.7973075778852949  0.3738213787460182  1.0000
  Fe  Fe117     1.0  0.0018936962475641916  0.7610796624090342  0.6942897861460293  1.0000
  S   S233      1.0  0.958780420542248  0.8013673296605526  0.6725268109358342  1.0000
  S   S234      1.0  0.06307747770589556  0.770701467457616  0.6862510548123167  1.0000
  Fe  Fe118     1.0  0.9439677154476347  0.7092972928246213  0.7270483872609029  1.0000
  S   S235      1.0  0.8965851672999193  0.745822674755716  0.7083009099564851  1.0000
  S   S236      1.0  0.9273738671181682  0.6584267321256794  0.7588436285271111  1.0000
  Fe  Fe119     1.0  0.9284504015874483  0.7489263118422382  0.6564693602209307  1.0000
  S   S237      1.0  0.8997949941738929  0.7377240059545657  0.6035927488132299  1.0000
  Fe  Fe120     1.0  0.9321086886970469  0.7938101959672422  0.7265806983787478  1.0000
  S   S238      1.0  0.9114684829598338  0.8417728918599299  0.7607658115737541  1.0000
  S   S239      1.0  0.9734825190263612  0.7087160368658876  0.6738405783506733  1.0000
  S   S240      1.0  0.9772687583779449  0.7569096782050043  0.7497897381756897  1.0000
  Fe  Fe121     1.0  0.1155379812962054  0.033532500000799326  0.17357277905248042  1.0000
  S   S241      1.0  0.06017464780216608  0.007005053485907631  0.18413380292343895  1.0000
  S   S242      1.0  0.12880466989977024  0.06317380989615051  0.12149313610450549  1.0000
  Fe  Fe122     1.0  0.14652206059040407  0.012292277338805668  0.24716166092001154  1.0000
  S   S243      1.0  0.09447259232887761  0.9833873272172264  0.2648028820118023  1.0000
  S   S244      1.0  0.20163052571356022  0.012001964338853366  0.2750613524621175  1.0000
  Fe  Fe123     1.0  0.09377838676214134  0.9594530223233282  0.20845021131906705  1.0000
  S   S245      1.0  0.0828126062771406  0.8978020762006228  0.19773000655839792  1.0000
  Fe  Fe124     1.0  0.06549346658467936  0.033416480531233805  0.2391862436786482  1.0000
  S   S246      1.0  0.01954353037684098  0.06683626888223526  0.26543914157653997  1.0000
  S   S247      1.0  0.1486683635690802  0.9839910042890094  0.19351899051909494  1.0000
  S   S248      1.0  0.11798315255038405  0.0644530285688878  0.22631362940170924  1.0000
  Fe  Fe125     1.0  0.08680362954028298  0.9571198490875124  0.9575568674419145  1.0000
  S   S249      1.0  0.042711264253003645  0.9140848937442106  0.9465710259483797  1.0000
  S   S250      1.0  0.1321851982867821  0.9422964549094869  0.9968964759302352  1.0000
  Fe  Fe126     1.0  0.05322187176319515  0.014547158212787847  0.9052846437512119  1.0000
  S   S251      1.0  0.006082801684925032  0.9765377346539461  0.8902482012953367  1.0000
  S   S252      1.0  0.06321775790531126  0.07015357740753525  0.8775684918785606  1.0000
  Fe  Fe127     1.0  0.003931986290145462  0.9640650229331401  0.9496277007326459  1.0000
  S   S253      1.0  0.9501331422791969  0.9655281313492482  0.9796670801680772  1.0000
  Fe  Fe128     1.0  0.04974123017400478  0.9312767792233532  0.8884973911215052  1.0000
  S   S254      1.0  0.057717950531038564  0.8943922551140865  0.8399857163604818  1.0000
  S   S255      1.0  0.047515439047930874  0.005924223558033459  0.9651845550561401  1.0000
  S   S256      1.0  0.09733431241077373  0.9700364023271489  0.8993518181436815  1.0000
  C   C289      1.0  0.13507770397596253  0.03079031281568323  0.08603132052009672  1.0000
  C   C290      1.0  0.1254124805980137  0.041376478553231344  0.05070371251675397  1.0000
  C   C291      1.0  0.12605505400720607  0.014512698656894418  0.022792249408193355  1.0000
  C   C292      1.0  0.13669337209014665  0.9771580907800632  0.03015360068844597  1.0000
  C   C293      1.0  0.14862240706005458  0.9670768651293359  0.06494731393382391  1.0000
  C   C294      1.0  0.14757853610282412  0.9938493503102472  0.09290387943265849  1.0000
  H   H193      1.0  0.1163031528163152  0.07000226229365203  0.04531741320246585  1.0000
  H   H194      1.0  0.1180282426138839  0.022469149086208118  0.9956529321406352  1.0000
  H   H195      1.0  0.1574693867465211  0.9382825166798977  0.07061111553567079  1.0000
  H   H196      1.0  0.1564168346063728  0.9857920878738303  0.11969182377937725  1.0000
  C   C295      1.0  0.9651362835704774  0.6389396796346545  0.7827242391285045  1.0000
  C   C296      1.0  0.001752333538643569  0.6469423467639642  0.772717297833672  1.0000
  C   C297      1.0  0.03160574481556888  0.6294752830817961  0.7911302475297818  1.0000
  C   C298      1.0  0.024745981593718547  0.6043974619444075  0.8196999687646573  1.0000
  C   C299      1.0  0.9881687614723832  0.5976272728366192  0.8303938600046255  1.0000
  C   C300      1.0  0.9584086016456513  0.6146136657009957  0.8117992425593873  1.0000
  H   H197      1.0  0.007061119252116166  0.6659272778270993  0.750353063226222  1.0000
  H   H198      1.0  0.9858054801607317  0.05119892259094594  0.8819987906847633  1.0000
  H   H199      1.0  0.9827374642086502  0.57946408211874  0.8531768501485862  1.0000
  H   H200      1.0  0.9301831792939447  0.6092185777504662  0.8202193549331804  1.0000
  C   C301      1.0  0.9512895489625625  0.8604917086132352  0.7814704997666222  1.0000
  C   C302      1.0  0.9860679729332149  0.8534624685474628  0.7661049154158924  1.0000
  C   C303      1.0  0.018502834702035065  0.864959606343857  0.783820590100262  1.0000
  C   C304      1.0  0.01636212571160045  0.8831861741208763  0.8172959060366517  1.0000
  C   C305      1.0  0.9815452036560942  0.8911819632533383  0.8324478585843457  1.0000
  C   C306      1.0  0.9489202452286907  0.8801004401397945  0.8143356117805902  1.0000
  H   H201      1.0  0.9880585061464023  0.838981372327198  0.7405096338188909  1.0000
  H   H202      1.0  0.04528329517907559  0.8594588186135815  0.7716074429030427  1.0000
  H   H203      1.0  0.9797381807555671  0.90493698328804  0.8585002490426135  1.0000
  H   H204      1.0  0.9220541792150234  0.8855802383980153  0.8263558031936817  1.0000
  C   C307      1.0  0.9432439000010396  0.8055783424594444  0.5078323629580388  1.0000
  C   C308      1.0  0.958093000867746  0.811515001484792  0.5424147033649798  1.0000
  C   C309      1.0  0.9452052626537256  0.7903538548405827  0.5718685399968526  1.0000
  C   C310      1.0  0.9163928596480378  0.7644511256813883  0.5670871640693523  1.0000
  C   C311      1.0  0.9005601560012864  0.7597425258823948  0.5327467556021407  1.0000
  C   C312      1.0  0.9145736303776713  0.7795601033148846  0.5029667094198929  1.0000
  H   H205      1.0  0.9804145363524838  0.8315471309192115  0.546159834937968  1.0000
  H   H206      1.0  0.9576950916832713  0.7941681603886656  0.5981079494666053  1.0000
  H   H207      1.0  0.8775766358808983  0.7405457201813694  0.5290463606096605  1.0000
  H   H208      1.0  0.902908343583919  0.7748987512561786  0.4763169293159108  1.0000
  C   C313      1.0  0.868109365700274  0.6401286287239221  0.9243533008200279  1.0000
  C   C314      1.0  0.8718805255192876  0.04740337359651603  0.9661884443979974  1.0000
  C   C315      1.0  0.890289233999104  0.014126367992004951  0.9773065792838389  1.0000
  C   C316      1.0  0.9276197436931245  0.008274229597674987  0.9684005756791028  1.0000
  C   C317      1.0  0.94674907372455  0.036399127665957653  0.9496037596379493  1.0000
  C   C318      1.0  0.9049164277599179  0.6313401419007673  0.9150858028859074  1.0000
  H   H209      1.0  0.8433340682368142  0.05173070923742151  0.9734622212405324  1.0000
  H   H210      1.0  0.8754866801773639  0.9927523643483814  0.9923596728294704  1.0000
  H   H211      1.0  0.9757312736786707  0.03260215401345268  0.9433748385638029  1.0000
  H   H212      1.0  0.9242586782704633  0.6538545671723879  0.9093516228312218  1.0000
  C   C319      1.0  0.12156568543608004  0.8761226993775667  0.17752590692015893  1.0000
  C   C320      1.0  0.6043974448373045  0.9419202143409511  0.18779296884220226  1.0000
  C   C321      1.0  0.6419127882814416  0.9312116078844676  0.191476310991924  1.0000
  C   C322      1.0  0.6514985556668125  0.8931200045866698  0.1968039645228508  1.0000
  C   C323      1.0  0.6236816592568729  0.8658292533666648  0.19800527001017643  1.0000
  C   C324      1.0  0.13126870167528204  0.8387976004118477  0.18654927979126  1.0000
  H   H213      1.0  0.5971346713927503  0.9713112170576685  0.1838456316622244  1.0000
  H   H214      1.0  0.6633977179648334  0.9524533100877064  0.19057518623380582  1.0000
  H   H215      1.0  0.6308712382226411  0.8364527028631482  0.20182596302567862  1.0000
  H   H216      1.0  0.11397590133922986  0.8227910046238844  0.20482857052222864  1.0000
  C   C325      1.0  0.11880383814498341  0.7621410195988632  0.3266936603470297  1.0000
  C   C326      1.0  0.11548213369208393  0.7228699511655984  0.32954563942977516  1.0000
  C   C327      1.0  0.1274440214678232  0.6995562968719276  0.30124548781197164  1.0000
  C   C328      1.0  0.143036949097179  0.7154644200602824  0.27025454393387016  1.0000
  C   C329      1.0  0.147043632198268  0.7547468213836765  0.26762349260489415  1.0000
  C   C330      1.0  0.13499927584172466  0.7780978885159725  0.29593525733652754  1.0000
  H   H217      1.0  0.103797952190541  0.7103824009975922  0.353621912929729  1.0000
  H   H218      1.0  0.12441132931413046  0.66918579651146  0.3033533312912691  1.0000
  H   H219      1.0  0.15807656062331032  0.7672138018465597  0.24326098051262995  1.0000
  H   H220      1.0  0.13678752560714202  0.8085520173448779  0.2934430472854436  1.0000
  C   C331      1.0  0.8146118689803995  0.7566452407798362  0.33099849975598616  1.0000
  C   C332      1.0  0.8277784344847269  0.7453434842865581  0.29709263579823786  1.0000
  C   C333      1.0  0.865249353408488  0.7350288604653906  0.2929595733410468  1.0000
  C   C334      1.0  0.8895392308860801  0.7363579589694329  0.3226454884133188  1.0000
  C   C335      1.0  0.8761044239780761  0.746888908523103  0.35665067846754317  1.0000
  C   C336      1.0  0.8385651181992594  0.7565822316277399  0.3608973365153628  1.0000
  H   H221      1.0  0.8092295505403804  0.7447161849228418  0.2740089626642351  1.0000
  H   H222      1.0  0.8754732459616896  0.7266144284244689  0.2666374802374711  1.0000
  H   H223      1.0  0.8944638235421418  0.7475101858936455  0.379711309693668  1.0000
  H   H224      1.0  0.8280393460950228  0.7642480997225227  0.38727919234270386  1.0000
  C   C337      1.0  0.7395162391577735  0.7051827904249208  0.1249718329341097  1.0000
  C   C338      1.0  0.7009149630477549  0.7088563803229971  0.12225600521743743  1.0000
  C   C339      1.0  0.6838509499398802  0.7111432564999682  0.08815474226133935  1.0000
  C   C340      1.0  0.7053432449174616  0.7098403497339196  0.05669928594384621  1.0000
  C   C341      1.0  0.7438831513625603  0.7049831112709548  0.059270899655595816  1.0000
  C   C342      1.0  0.7609575099931712  0.7024213134792714  0.093489821913553  1.0000
  H   H225      1.0  0.6841305967627125  0.7098292835742488  0.14641955837297824  1.0000
  H   H226      1.0  0.6539771635810813  0.7146336622394868  0.08617815681019159  1.0000
  H   H227      1.0  0.760583012685212  0.7041029112257847  0.03498014196107624  1.0000
  H   H228      1.0  0.7908716987718202  0.699557500593842  0.09554712416812036  1.0000
  C   C343      1.0  0.8482127110303213  0.12271728276003446  0.4203674249757643  1.0000
  C   C344      1.0  0.8559661191826163  0.15528296617068982  0.4403721399652919  1.0000
  C   C345      1.0  0.9524140655743223  0.6675394232560004  0.49383027575736194  1.0000
  C   C346      1.0  0.9742009568123551  0.6391785521916747  0.4779762292985104  1.0000
  C   C347      1.0  0.9127234158595658  0.11897678011836632  0.40181131203393505  1.0000
  C   C348      1.0  0.8766644812830817  0.1041658868850146  0.40155382698673836  1.0000
  H   H229      1.0  0.9010396361941312  0.6804742970046662  0.52091771674342  1.0000
  H   H230      1.0  0.9624898417475628  0.6962250099955187  0.495624159619177  1.0000
  H   H231      1.0  0.9345528804567234  0.10505542854063554  0.38661677898148084  1.0000
  H   H232      1.0  0.8709723692131458  0.07860616620565941  0.3865570803764096  1.0000
  C   C349      1.0  0.6230306778410483  0.0726600368261574  0.2662564401567647  1.0000
  C   C350      1.0  0.6490102226013235  0.08491125502088548  0.29199263223840327  1.0000
  C   C351      1.0  0.6861942170264917  0.07280959361962225  0.28993382084502617  1.0000
  C   C352      1.0  0.6974949985488496  0.049177671277563784  0.26162687369952886  1.0000
  C   C353      1.0  0.6717386486210158  0.03751342856898554  0.23559045423490374  1.0000
  C   C354      1.0  0.6344694623140265  0.04875339488344932  0.23824994735137509  1.0000
  H   H233      1.0  0.6403160145122602  0.10367157545999528  0.313587255383613  1.0000
  H   H234      1.0  0.7060894849129425  0.08222502471020365  0.3099154841068471  1.0000
  H   H235      1.0  0.6804290591535574  0.01913600738933785  0.2137257133917789  1.0000
  H   H236      1.0  0.6147488693047716  0.0387697157293172  0.21861080925580204  1.0000
  C   C355      1.0  0.9291374880888642  0.9919790353973844  0.31312073256863304  1.0000
  C   C356      1.0  0.927003059940448  0.03137201218665142  0.316781714490857  1.0000
  C   C357      1.0  0.9548814805801642  0.05428214520428609  0.3021095085399676  1.0000
  C   C358      1.0  0.9849300447433011  0.03783844678652204  0.28373884256872683  1.0000
  C   C359      1.0  0.9871970382009355  0.9984600075635901  0.28030194740459075  1.0000
  C   C360      1.0  0.9594319593286671  0.9755694156945655  0.29514204220342327  1.0000
  H   H237      1.0  0.9042137561512343  0.0441870194671834  0.3313164527320766  1.0000
  H   H238      1.0  0.953117209469182  0.08471127646021936  0.30502155023333755  1.0000
  H   H239      1.0  0.010243758095712874  0.985580543698001  0.26610533300647665  1.0000
  H   H240      1.0  0.9612748173335733  0.9451180127323181  0.2923604500055952  1.0000
  C   C361      1.0  0.07640806234618092  0.8186404684444544  0.6885806087385997  1.0000
  C   C362      1.0  0.6185258457034101  0.8195650905169526  0.6792663986015678  1.0000
  C   C363      1.0  0.6285797062508978  0.8567675479878332  0.6710098912607594  1.0000
  C   C364      1.0  0.6013086620606264  0.884949254675872  0.6672439562452587  1.0000
  C   C365      1.0  0.06044191956388367  0.8856488007592292  0.6896830143045217  1.0000
  C   C366      1.0  0.04977040098045982  0.8476551607825584  0.687499456785009  1.0000
  H   H241      1.0  0.6396886444743712  0.797617612289742  0.6807280429688307  1.0000
  H   H242      1.0  0.6573830932956597  0.8632140819119551  0.6666437575601403  1.0000
  H   H243      1.0  0.039554315739068535  0.9078390905088951  0.6885864263990865  1.0000
  H   H244      1.0  0.02090464715870044  0.8411461973777643  0.6846024538202548  1.0000
  C   C367      1.0  0.7568590248537418  0.8360370975086622  0.7555352611679474  1.0000
  C   C368      1.0  0.7596283526157787  0.7995192736701043  0.7701788834097895  1.0000
  C   C369      1.0  0.7517171468345059  0.7932980005478494  0.8068537118609459  1.0000
  C   C370      1.0  0.7417516963015762  0.8237081141573578  0.8290412721614175  1.0000
  C   C371      1.0  0.7392069937267662  0.8602686038959707  0.8144175348444028  1.0000
  C   C372      1.0  0.7465932917996121  0.8664207891003015  0.7776539272392822  1.0000
  H   H245      1.0  0.7672862997164871  0.7759455949639811  0.7529896608239718  1.0000
  H   H246      1.0  0.7529872981960273  0.764971744487245  0.8177837925687306  1.0000
  H   H247      1.0  0.7315745764967317  0.8838826849517479  0.8315795079104206  1.0000
  H   H248      1.0  0.7449652585219264  0.8947391916310838  0.766612780438669  1.0000
  C   C373      1.0  0.7308467737892665  0.037319521732888994  0.7693971289221294  1.0000
  C   C374      1.0  0.7295685644629659  0.071647450740433  0.7881976058142551  1.0000
  C   C375      1.0  0.7201113414716973  0.07224995690779257  0.8249037179973039  1.0000
  C   C376      1.0  0.7120776872997712  0.038490826932694455  0.8428840464304065  1.0000
  C   C377      1.0  0.7135218170816409  0.004073583145803639  0.8241799614408005  1.0000
  C   C378      1.0  0.7230496264033176  0.003463497309217356  0.7874126672578787  1.0000
  H   H249      1.0  0.7355179834751607  0.09788202939101143  0.7742426549049181  1.0000
  H   H250      1.0  0.7183495921741146  0.09894935328411103  0.8390853259012571  1.0000
  H   H251      1.0  0.7077445452533214  0.9778674909272845  0.8382431182578518  1.0000
  H   H252      1.0  0.7249109871125775  0.976806184736732  0.7732513817224008  1.0000
  C   C379      1.0  0.7732350880208562  0.9428597271321493  0.5319707773211225  1.0000
  C   C380      1.0  0.7348892352565449  0.942067667393937  0.525395752253865  1.0000
  C   C381      1.0  0.7214462841155178  0.9399296407709331  0.48958120575354547  1.0000
  C   C382      1.0  0.7463496224327956  0.9390859179322142  0.46048113288388226  1.0000
  C   C383      1.0  0.7845526408310998  0.938762979947874  0.46736350412641925  1.0000
  C   C384      1.0  0.7980005014585747  0.9404852735601763  0.5029500216331793  1.0000
  H   H253      1.0  0.7156220408467143  0.943864911554085  0.5477515626054351  1.0000
  H   H254      1.0  0.6918126770956655  0.9400858649068348  0.4843777298951573  1.0000
  H   H255      1.0  0.8037311537557161  0.9370648504469079  0.44514469027475395  1.0000
  H   H256      1.0  0.8276733421208241  0.9406585899167861  0.5079044462683789  1.0000
  N   N1        1.0  0.40032897992756933  0.07164172272073244  0.015026737097035614  1.0000
  C   C385      1.0  0.4180241160539718  0.061111056292508126  0.049877609928988154  1.0000
  C   C386      1.0  0.4284920419087023  0.0879562894595578  0.9907317932467079  1.0000
  C   C387      1.0  0.3705855048971293  0.09996965170439598  0.02141136552095868  1.0000
  C   C388      1.0  0.3844176426758086  0.037523462757419024  0.9979612600706492  1.0000
  H   H257      1.0  0.43051624985106157  0.08617167620627186  0.06346068417064621  1.0000
  H   H258      1.0  0.44077191605908506  0.03993043713620903  0.045957392341049674  1.0000
  H   H259      1.0  0.397696949825115  0.04864098538559469  0.06901042023145454  1.0000
  H   H260      1.0  0.4505054166595517  0.06681729861041785  0.9842141276884363  1.0000
  H   H261      1.0  0.41594339922378465  0.09727348564587102  0.9646289659244238  1.0000
  H   H262      1.0  0.4421423961028347  0.11300229173437626  0.0031387237201077056  1.0000
  H   H263      1.0  0.3566610954748278  0.10854558670278647  0.995635468794584  1.0000
  H   H264      1.0  0.38186707426342154  0.12621642223314034  0.033879238549415325  1.0000
  H   H265      1.0  0.34883542055164196  0.0887877122907661  0.039773259091136604  1.0000
  H   H266      1.0  0.36289634349278577  0.02442959571115444  0.01537899092010031  1.0000
  H   H267      1.0  0.40627428791328796  0.015685924232330617  0.9926669278541231  1.0000
  H   H268      1.0  0.37125967408390004  0.04437556597026138  0.971410537305686  1.0000
  N   N2        1.0  0.9410347050026564  0.6086672642349503  0.36355578871410116  1.0000
  C   C389      1.0  0.9817677566722937  0.6052348585175685  0.36825027995853676  1.0000
  C   C390      1.0  0.9229267533019619  0.5749643913088059  0.37906167014178266  1.0000
  C   C391      1.0  0.9319538958387189  0.6116794224801443  0.3245445365172964  1.0000
  C   C392      1.0  0.9274997384928647  0.6429418175732112  0.382387010883614  1.0000
  H   H269      1.0  0.996389207878128  0.6300382203476176  0.3565643435550652  1.0000
  H   H270      1.0  0.9929978749382968  0.5795796739127075  0.35449665806048414  1.0000
  H   H271      1.0  0.9898221238504117  0.6035289096063781  0.39735522511771293  1.0000
  H   H272      1.0  0.9300423799617706  0.5712891912880385  0.4082162982995047  1.0000
  H   H273      1.0  0.8921363988852407  0.5772774797211994  0.37714931258858087  1.0000
  H   H274      1.0  0.931529245432211  0.548609836357407  0.3647547059729731  1.0000
  H   H275      1.0  0.9014645722073784  0.6146135791286889  0.3199322403556968  1.0000
  H   H276      1.0  0.9415003211784  0.5862048808893695  0.30943120586287787  1.0000
  H   H277      1.0  0.9454059990335748  0.6367953308321403  0.31205212070409266  1.0000
  H   H278      1.0  0.8969896864263267  0.6470142999550497  0.3787349806507736  1.0000
  H   H279      1.0  0.9412508954069385  0.6686756380331609  0.3717878405743488  1.0000
  H   H280      1.0  0.9332862818753402  0.6415075196014026  0.4119718276304555  1.0000
  N   N3        1.0  0.14583491720615038  0.6055392550276729  0.13819602552619695  1.0000
  C   C393      1.0  0.14301816226800979  0.6113852240890472  0.09860835185901558  1.0000
  C   C394      1.0  0.12371589530604532  0.6349618038826192  0.15691015502816516  1.0000
  C   C395      1.0  0.185162101927566  0.6080631524690073  0.14974776757991054  1.0000
  C   C396      1.0  0.13130811886451355  0.5677692994836617  0.147589108225392  1.0000
  H   H281      1.0  0.11360062032240448  0.6103180979868132  0.08908339535737633  1.0000
  H   H282      1.0  0.15878388140884536  0.589281676843015  0.08354995630493478  1.0000
  H   H283      1.0  0.15441225062069885  0.639365544033136  0.09044907923125191  1.0000
  H   H284      1.0  0.12462620851400796  0.630937126845782  0.1867986084379014  1.0000
  H   H285      1.0  0.1345065001769954  0.6638246052324992  0.15124321775472305  1.0000
  H   H286      1.0  0.09398283034994437  0.634317311959342  0.1483547112874554  1.0000
  H   H287      1.0  0.19729629167143337  0.6357966425345821  0.1422036721085871  1.0000
  H   H288      1.0  0.20267681453718178  0.5858372455392794  0.13675588384377277  1.0000
  H   H289      1.0  0.18822618655331547  0.6050863502850855  0.17965841955064474  1.0000
  H   H290      1.0  0.13340008161954064  0.5622907896894451  0.1772466064680537  1.0000
  H   H291      1.0  0.14690782720388262  0.5448295977826437  0.13349514497535223  1.0000
  H   H292      1.0  0.10152441226059516  0.5652425499669737  0.13972331859166737  1.0000
  N   N4        1.0  0.023853714084996813  0.7302854449159233  0.24508271015280264  1.0000
  C   C397      1.0  0.053983320589402695  0.7327437853985611  0.21813469289508222  1.0000
  C   C398      1.0  0.9875582414192531  0.7305525107258446  0.22612199841446015  1.0000
  C   C399      1.0  0.02590081837298497  0.7629657728794702  0.2700002308223805  1.0000
  C   C400      1.0  0.0279795083585197  0.6947814023638298  0.26601385654768445  1.0000
  H   H293      1.0  0.05196456083669432  0.759343529026289  0.20200822692370074  1.0000
  H   H294      1.0  0.05344843991013937  0.7083879183121694  0.19903948594083032  1.0000
  H   H295      1.0  0.08168162788857858  0.7324080225387399  0.23146642108290613  1.0000
  H   H296      1.0  0.9641321740811398  0.7287836119149642  0.24559960524050803  1.0000
  H   H297      1.0  0.9834650875001667  0.7569669315647556  0.21008336556674453  1.0000
  H   H298      1.0  0.9850595293069958  0.7060306866275171  0.20736668531890376  1.0000
  H   H299      1.0  0.0034487908287268443  0.7620521424435813  0.2905986454829493  1.0000
  H   H300      1.0  0.023242260149892946  0.7903582478068154  0.25523961891389013  1.0000
  H   H301      1.0  0.052807168071526966  0.7633295546033405  0.2850099275422848  1.0000
  H   H302      1.0  0.027980930893229283  0.6695092250427129  0.24811712168296302  1.0000
  H   H303      1.0  0.0051267227496816226  0.6913365271687236  0.2859186567028357  1.0000
  H   H304      1.0  0.05450952907704831  0.6939211740390451  0.28155881743663314  1.0000
  N   N5        1.0  0.09687706259698325  0.13480763678513785  0.9638687207367866  1.0000
  C   C401      1.0  0.07493166453541455  0.1487376933625518  0.9325278585941605  1.0000
  C   C402      1.0  0.11254569436464235  0.09702113411383873  0.9555025282249351  1.0000
  C   C403      1.0  0.07266050418733494  0.13242211602635678  0.9959930449333749  1.0000
  C   C404      1.0  0.12764142900468212  0.1610917101841648  0.9713286620791752  1.0000
  H   H305      1.0  0.06442688971179411  0.17804300565227754  0.9369417852725415  1.0000
  H   H306      1.0  0.05047605605552308  0.13039695077973512  0.9272380076330229  1.0000
  H   H307      1.0  0.09183933313575188  0.1487636577733965  0.9072755605511299  1.0000
  H   H308      1.0  0.09024116812014848  0.07593143443162442  0.9511480507431986  1.0000
  H   H309      1.0  0.12933042509149062  0.09758147892766833  0.9301713771402638  1.0000
  H   H310      1.0  0.1310109567887252  0.08658061925313622  0.9776513939014229  1.0000
  H   H311      1.0  0.08866036632882968  0.12359242187097519  0.02047792462526976  1.0000
  H   H312      1.0  0.049939404394552245  0.11160501995797789  0.9917899993534752  1.0000
  H   H313      1.0  0.05957872082263549  0.1603273302426851  0.0021858308843032415  1.0000
  H   H314      1.0  0.1465248336970122  0.16264960921941352  0.9477064651338762  1.0000
  H   H315      1.0  0.14464806075418135  0.15173024175100744  0.9950733867904513  1.0000
  H   H316      1.0  0.1173428575873654  0.1902091588471982  0.9773243595861454  1.0000
  N   N6        1.0  0.6316080000919618  0.6166450337572469  0.9715552958317475  1.0000
  C   C405      1.0  0.657198689223656  0.6176684928980414  0.0029780689731713217  1.0000
  C   C406      1.0  0.6404851425231045  0.5833749180387768  0.9488504571413785  1.0000
  C   C407      1.0  0.6357474355075334  0.6513694636101987  0.9497105110460574  1.0000
  C   C408      1.0  0.5929486087375663  0.6142425423634756  0.9845438932880846  1.0000
  H   H317      1.0  0.6509894274577731  0.6422743788596603  0.02085378494275525  1.0000
  H   H318      1.0  0.6866165553055813  0.6203217563802748  0.9942222724479827  1.0000
  H   H319      1.0  0.6548893647997424  0.591504561931571  0.019684073669381963  1.0000
  H   H320      1.0  0.6223241141808318  0.5825226636401869  0.9243307652772427  1.0000
  H   H321      1.0  0.6697017866390548  0.584197955326493  0.939012942953243  1.0000
  H   H322      1.0  0.6368656464621303  0.5564419499758868  0.9641235417180207  1.0000
  H   H323      1.0  0.6164459667611383  0.6515897865000165  0.9259643630767249  1.0000
  H   H324      1.0  0.6643371965943272  0.6533968288811666  0.9388280305505651  1.0000
  H   H325      1.0  0.6301707588100468  0.6773022194236263  0.965977433593082  1.0000
  H   H326      1.0  0.5729304364570632  0.613710177212621  0.961508675498047  1.0000
  H   H327      1.0  0.5854959929696195  0.6389595786257785  0.001775587319873928  1.0000
  H   H328      1.0  0.588660607276756  0.5882290334105253  0.0009662185479493157  1.0000
  N   N7        1.0  0.803383554813418  0.0604600510140858  0.5247202444255881  1.0000
  C   C409      1.0  0.7852221860711467  0.04524818261002461  0.49187558283705324  1.0000
  C   C410      1.0  0.8368633666125176  0.037551135894315246  0.5333395709026824  1.0000
  C   C411      1.0  0.7771583345637012  0.05889899676960364  0.5553826065255713  1.0000
  C   C412      1.0  0.8144204836436747  0.10010911445815651  0.5181680155095748  1.0000
  H   H329      1.0  0.7613078922817161  0.06327437714993156  0.483035122709701  1.0000
  H   H330      1.0  0.7744673143748086  0.01623107442076721  0.4964173423594644  1.0000
  H   H331      1.0  0.8049443025092157  0.04378734910591486  0.4688314596389907  1.0000
  H   H332      1.0  0.8572767451525658  0.038197823046653534  0.5107674728854843  1.0000
  H   H333      1.0  0.8510871223719455  0.048025226202582205  0.5581786018083303  1.0000
  H   H334      1.0  0.8296858520461163  0.00742562875229047  0.5381288918103889  1.0000
  H   H335      1.0  0.7899246502923798  0.06999948736608985  0.5807274917636315  1.0000
  H   H336      1.0  0.7684124419830042  0.029251384356037802  0.5609932353245966  1.0000
  H   H337      1.0  0.7515392214003367  0.07581282802371336  0.5496956118002878  1.0000
  H   H338      1.0  0.8348279028445024  0.10192466360619146  0.4956767460657902  1.0000
  H   H339      1.0  0.8275563339051815  0.11285225861793124  0.5426004405744933  1.0000
  H   H340      1.0  0.7901193735903974  0.11811301666903495  0.5103420542913599  1.0000
  N   N8        1.0  0.036108546168944766  0.7106729064408961  0.5679308130754326  1.0000
  C   C413      1.0  0.06979053163318238  0.6866272999644316  0.5648919749444625  1.0000
  C   C414      1.0  0.040790857049881835  0.7377300593696549  0.5980948853524405  1.0000
  C   C415      1.0  0.0034941563751655913  0.6865500506358025  0.5748691165797714  1.0000
  C   C416      1.0  0.030408090019392375  0.7316843563576341  0.5337112188630926  1.0000
  H   H341      1.0  0.09490621083244943  0.703985858779356  0.5596129822127972  1.0000
  H   H342      1.0  0.06717822278758834  0.6660074298436123  0.5421563229707184  1.0000
  H   H343      1.0  0.07499454968219998  0.6702027253789791  0.5901939392162926  1.0000
  H   H344      1.0  0.06500346720445949  0.7566528550024496  0.5938016795554291  1.0000
  H   H345      1.0  0.015825120970380357  0.7561660292317817  0.6013607550620259  1.0000
  H   H346      1.0  0.045574717943026366  0.7228073763212883  0.6243075858400428  1.0000
  H   H347      1.0  0.9773124719820823  0.7036366197204015  0.5759307911069196  1.0000
  H   H348      1.0  0.0063383384902220286  0.6711450508888688  0.6010435276085667  1.0000
  H   H349      1.0  1.0261164131275535e-05  0.6649791427118604  0.553172746291893  1.0000
  H   H350      1.0  0.004446331233000089  0.7489468506187619  0.534224105121605  1.0000
  H   H351      1.0  0.028172198485119537  0.7120186556291687  0.5102978375008844  1.0000
  H   H352      1.0  0.05383960807287669  0.7512281530622962  0.5281608257979176  1.0000
  N   N9        1.0  0.35303149463753575  0.8895831656760945  0.6855992128298336  1.0000
  C   C417      1.0  0.3536923812928316  0.848068173188721  0.6803257405603362  1.0000
  C   C418      1.0  0.3195970608079881  0.9059023231896361  0.6678740293301447  1.0000
  C   C419      1.0  0.38672667010242795  0.9061879397335798  0.6695025737826418  1.0000
  C   C420      1.0  0.35215165113438135  0.8982091969281758  0.7247551023349065  1.0000
  H   H353      1.0  0.3531674901576226  0.8404356929873563  0.6511118065535129  1.0000
  H   H354      1.0  0.3292899865492371  0.8344297741184568  0.693258785477933  1.0000
  H   H355      1.0  0.37897661775920716  0.8349489538965168  0.6926649040314925  1.0000
  H   H356      1.0  0.3177251637092009  0.9371392321914461  0.6719259137146057  1.0000
  H   H357      1.0  0.3194816087895439  0.9005030181362406  0.6381929573439238  1.0000
  H   H358      1.0  0.2937913554584969  0.8933312555769628  0.6790168408136243  1.0000
  H   H359      1.0  0.41242218093448535  0.894549146024372  0.6825378294832602  1.0000
  H   H360      1.0  0.3870131545008056  0.9375161175741195  0.6729282769818434  1.0000
  H   H361      1.0  0.3883643202681546  0.9000644372464305  0.6399920279923612  1.0000
  H   H362      1.0  0.3280972912177083  0.8844929804195082  0.7382208146477954  1.0000
  H   H363      1.0  0.3501562206792046  0.9291991732006081  0.7297755006523695  1.0000
  H   H364      1.0  0.37763389197887515  0.8877318754104645  0.7387403554236152  1.0000
  N   N10       1.0  0.8209603628769051  0.32694122440632417  0.6804449322682935  1.0000
  C   C421      1.0  0.8241757883342503  0.354032218846356  0.7106948259133212  1.0000
  C   C422      1.0  0.8387435570215906  0.290718381167432  0.6910987727863994  1.0000
  C   C423      1.0  0.8396038878245354  0.34260815735584843  0.6482126758510226  1.0000
  C   C424      1.0  0.7812976555210022  0.32047150976004174  0.6720431485150506  1.0000
  H   H365      1.0  0.8101880864984633  0.38139913411376414  0.7041700782746774  1.0000
  H   H366      1.0  0.853748398587273  0.3602304739818991  0.7173004102012375  1.0000
  H   H367      1.0  0.811552001405613  0.3425054041257739  0.7358175560334042  1.0000
  H   H368      1.0  0.86825905609683  0.2949230476493644  0.6991338889609053  1.0000
  H   H369      1.0  0.824474081930485  0.27796830971725855  0.7148777600079967  1.0000
  H   H370      1.0  0.8381116323099013  0.26962412406057124  0.6686899777354759  1.0000
  H   H371      1.0  0.8377685506880141  0.3229051033215415  0.6247681345152966  1.0000
  H   H372      1.0  0.8695626052335954  0.3478975612907957  0.6537228499749551  1.0000
  H   H373      1.0  0.8268125531851851  0.37013654401577706  0.639814361719133  1.0000
  H   H374      1.0  0.7779294128992389  0.29940320291472505  0.6499173505951236  1.0000
  H   H375      1.0  0.7670834640272456  0.3470974044482213  0.6633775118450703  1.0000
  H   H376      1.0  0.7662015532303255  0.30955037724073475  0.696126034095604  1.0000
  N   N11       1.0  0.46891867589005437  0.7028662266373512  0.30049976977751613  1.0000
  C   C425      1.0  0.48814183903119135  0.7305359748256143  0.27723922781202953  1.0000
  C   C426      1.0  0.46546563375865285  0.6664944642777847  0.28104890850348685  1.0000
  C   C427      1.0  0.43147808311968244  0.7173499928095054  0.3097263733260141  1.0000
  C   C428      1.0  0.4906654787829458  0.6970410883015052  0.3341236730533395  1.0000
  H   H377      1.0  0.49088650666316935  0.7584114212988954  0.2910128834421351  1.0000
  H   H378      1.0  0.472823985827873  0.735295861282638  0.2513662013392412  1.0000
  H   H379      1.0  0.516785283391558  0.7205872136250503  0.2703927495171802  1.0000
  H   H380      1.0  0.4510666695333061  0.6450026181583949  0.29790033328454524  1.0000
  H   H381      1.0  0.44939136278087954  0.6698042185510936  0.25540578127805474  1.0000
  H   H382      1.0  0.4932645686019412  0.6544346117655346  0.2741918446183336  1.0000
  H   H383      1.0  0.416457559755238  0.6971207824323172  0.327501977901459  1.0000
  H   H384      1.0  0.4140483027683239  0.7220960498775255  0.2850866546474503  1.0000
  H   H385      1.0  0.43303577902209345  0.7445823661099461  0.3247630680855504  1.0000
  H   H386      1.0  0.476455599630478  0.6772144191816343  0.3529191074551323  1.0000
  H   H387      1.0  0.49455008295859965  0.7240629593273213  0.349050810441182  1.0000
  H   H388      1.0  0.518659052199779  0.6848241539593456  0.32839867650181115  1.0000
  N   N12       1.0  0.86258408249132  0.6290478841881691  0.6343993487164293  1.0000
  C   C429      1.0  0.8487932155026928  0.5915172404726168  0.6456748749326534  1.0000
  C   C430      1.0  0.870750965479468  0.6521829987320547  0.6667694837568696  1.0000
  C   C431      1.0  0.8339020075986161  0.648390728689992  0.6120867809338605  1.0000
  C   C432      1.0  0.8969175909966296  0.6241952676995423  0.6129790598692835  1.0000
  H   H389      1.0  0.8421936789468654  0.5735189704630725  0.6217279806481817  1.0000
  H   H390      1.0  0.8229073685000721  0.5941033199354845  0.6619275384240835  1.0000
  H   H391      1.0  0.8697584173729603  0.5759792419326001  0.6624054585531544  1.0000
  H   H392      1.0  0.8811965197277137  0.6805767022624537  0.6589180216203572  1.0000
  H   H393      1.0  0.8455416483159076  0.6566524629339563  0.6836287865575343  1.0000
  H   H394      1.0  0.8923285206710239  0.6386025273400266  0.684359259303782  1.0000
  H   H395      1.0  0.8439530640684808  0.6760966492358159  0.6016687671339647  1.0000
  H   H396      1.0  0.8080740032931387  0.6538408996657541  0.6277325159665104  1.0000
  H   H397      1.0  0.8261124636989361  0.63111159446042  0.588075553424864  1.0000
  H   H398      1.0  0.8923079262812667  0.6051822487844329  0.5894181232474011  1.0000
  H   H399      1.0  0.9198177729134569  0.6116405018391335  0.6295266122635408  1.0000
  H   H400      1.0  0.906681264013211  0.6517761967640092  0.60198846631072  1.0000
  N   N13       1.0  0.6162541656164022  0.42501085451984333  0.1412419204866088  1.0000
  C   C433      1.0  0.5949987341623736  0.45291621185949626  0.11937399524971921  1.0000
  C   C434      1.0  0.6293993224821247  0.39386432473656224  0.11770707080397634  1.0000
  C   C435      1.0  0.5920929260611029  0.40951916245973974  0.1698270079144455  1.0000
  C   C436      1.0  0.6486013320585098  0.44371881124742457  0.15814301250569107  1.0000
  H   H401      1.0  0.570398099934495  0.43990632252247003  0.10604854899034932  1.0000
  H   H402      1.0  0.6123455860528614  0.4652695074177109  0.09748170984464219  1.0000
  H   H403      1.0  0.584617054848415  0.47679327654968523  0.1363381473190794  1.0000
  H   H404      1.0  0.6057514872147061  0.3790276825537646  0.10450416948889148  1.0000
  H   H405      1.0  0.6477290746423972  0.404574562443622  0.09580448521144386  1.0000
  H   H406      1.0  0.6456150333263506  0.37232218588627936  0.1334485032786798  1.0000
  H   H407      1.0  0.5674476577921448  0.3950513675916682  0.15815087005635023  1.0000
  H   H408      1.0  0.581612974518345  0.43227215252625983  0.1880910910977047  1.0000
  H   H409      1.0  0.6073841262753374  0.3885504782769969  0.18697707896931273  1.0000
  H   H410      1.0  0.6397149160913258  0.4665708834020231  0.17706288297404485  1.0000
  H   H411      1.0  0.6669095794623265  0.45668116712202095  0.13742419177834658  1.0000
  H   H412      1.0  0.665876261069308  0.4231548062840685  0.17399476788733415  1.0000
  N   N14       1.0  0.848092320069704  0.3877781102662804  0.4665087816158075  1.0000
  C   C437      1.0  0.8472955995209308  0.3466107434729225  0.45963127536143095  1.0000
  C   C438      1.0  0.8834060681915091  0.403555537060615  0.4531643413307049  1.0000
  C   C439      1.0  0.8449495380025037  0.39479817516570154  0.5058482843364642  1.0000
  C   C440      1.0  0.8167154305416652  0.4061945048056686  0.4472897903746161  1.0000
  H   H413      1.0  0.8206305107679202  0.3340308345397627  0.4686211294961081  1.0000
  H   H414      1.0  0.8701021777231107  0.33178390185241496  0.47447831909371846  1.0000
  H   H415      1.0  0.8505527550829055  0.3402646968421848  0.43025430935145165  1.0000
  H   H416      1.0  0.884514940296434  0.43476133508080017  0.4571989687558347  1.0000
  H   H417      1.0  0.9077109020161639  0.39087978095447257  0.4676308826581548  1.0000
  H   H418      1.0  0.8868423018925412  0.3983857237025545  0.42358652119985785  1.0000
  H   H419      1.0  0.845256043886739  0.4256301786510024  0.5120184959761892  1.0000
  H   H420      1.0  0.8683138175598699  0.3813197627196305  0.5211425128506284  1.0000
  H   H421      1.0  0.8185015525099273  0.383451126691702  0.5168161506740248  1.0000
  H   H422      1.0  0.8172227294266508  0.43725882754627565  0.45135551245756256  1.0000
  H   H423      1.0  0.7894379976214874  0.39598444157576246  0.45736198291178554  1.0000
  H   H424      1.0  0.818070720828752  0.40109731710290836  0.41753922668253035  1.0000
  N   N15       1.0  0.3089177954380388  0.07771455276431793  0.7910980212000215  1.0000
  C   C441      1.0  0.2989260132169532  0.09901046339447683  0.8241366546608624  1.0000
  C   C442      1.0  0.3178114176404638  0.10446903095758997  0.7616056671861512  1.0000
  C   C443      1.0  0.27724857105585404  0.053951921870964537  0.7799365212205261  1.0000
  C   C444      1.0  0.34154083089345305  0.05315470019778634  0.7987155364437378  1.0000
  H   H425      1.0  0.27456630177948715  0.1180771118977959  0.8194037248840832  1.0000
  H   H426      1.0  0.32247496422290084  0.11664556049961705  0.8338942189018936  1.0000
  H   H427      1.0  0.291349815284648  0.07945311136935862  0.8465124134653851  1.0000
  H   H428      1.0  0.3252919540863558  0.08915829114592255  0.7362414906287843  1.0000
  H   H429      1.0  0.2937090176800405  0.12330050427167594  0.7551869150050909  1.0000
  H   H430      1.0  0.3416442452198505  0.1229196529334955  0.7689411649934947  1.0000
  H   H431      1.0  0.2833699006181272  0.038352186209261285  0.7544828160514739  1.0000
  H   H432      1.0  0.2516076569924746  0.07116593761336865  0.7752325343239391  1.0000
  H   H433      1.0  0.2707883540953096  0.03246086717558416  0.8009590428406019  1.0000
  H   H434      1.0  0.33544051538875935  0.03215149204133816  0.8204072919168742  1.0000
  H   H435      1.0  0.36589272038875353  0.06984064129273548  0.8080723704384116  1.0000
  H   H436      1.0  0.350135273159696  0.03697498163500579  0.7742657526434336  1.0000
  N   N16       1.0  0.8542997757393567  0.2177658373060883  0.8628070524081868  1.0000
  C   C445      1.0  0.8491719234924068  0.25437124602144184  0.8438190607640722  1.0000
  C   C446      1.0  0.8944176208264165  0.20991456689479748  0.8679311347844261  1.0000
  C   C447      1.0  0.8377055581090647  0.18715332536462578  0.8409614242833613  1.0000
  C   C448      1.0  0.8359418703822213  0.2194094913693138  0.8985206627348354  1.0000
  H   H437      1.0  0.8191898386053724  0.261384031397311  0.8399116228789963  1.0000
  H   H438      1.0  0.8621997715190447  0.253991781622734  0.8165356043459622  1.0000
  H   H439      1.0  0.8618653366889053  0.27813544274412716  0.8591611035123147  1.0000
  H   H440      1.0  0.8992047463757613  0.1820321138923246  0.88151051662716  1.0000
  H   H441      1.0  0.9091456698844866  0.20878939786441478  0.841522830903072  1.0000
  H   H442      1.0  0.9078852347578878  0.23208980556512435  0.8847152889292537  1.0000
  H   H443      1.0  0.8510212708384509  0.185028340803326  0.8138701866777402  1.0000
  H   H444      1.0  0.8074159796632049  0.19200201409751477  0.8365725887203053  1.0000
  H   H445      1.0  0.8413921011744208  0.15918806105755384  0.8545269518543138  1.0000
  H   H446      1.0  0.8473503061568404  0.24253396884027728  0.9155967459890576  1.0000
  H   H447      1.0  0.8396753196259925  0.1923826145803269  0.9137449214644915  1.0000
  H   H448      1.0  0.8055145870353266  0.22461677547205372  0.8957407069252454  1.0000
  N   N17       1.0  0.38328217672192205  0.6239017401233673  0.06876883454968709  1.0000
  C   C449      1.0  0.35169002068918886  0.5987153856243905  0.06064182976544973  1.0000
  C   C450      1.0  0.37091225166543035  0.6543270130523211  0.09349721462173781  1.0000
  C   C451      1.0  0.39693234749639417  0.6408025950515975  0.03475006334020847  1.0000
  C   C452      1.0  0.4135630776215435  0.6016738085537329  0.08607109078435744  1.0000
  H   H449      1.0  0.3603103678085089  0.5747615489134303  0.04291296037290837  1.0000
  H   H450      1.0  0.3287177618815862  0.6143286228102824  0.046609405272861615  1.0000
  H   H451      1.0  0.3398181026658369  0.5865000422714113  0.08583852539818176  1.0000
  H   H452      1.0  0.3606680279447273  0.6425448524802879  0.11957843304872563  1.0000
  H   H453      1.0  0.39385531056896034  0.6741853239927551  0.09992653084589778  1.0000
  H   H454      1.0  0.34753339842122033  0.6711077820302892  0.0814584124736773  1.0000
  H   H455      1.0  0.42034031765342994  0.6605226765732365  0.03979553487892007  1.0000
  H   H456      1.0  0.3745467137462497  0.6569824100430727  0.020376991225568464  1.0000
  H   H457      1.0  0.40717067455576694  0.6185836202339408  0.01586625190015667  1.0000
  H   H458      1.0  0.42344991975030194  0.5784766120562317  0.06797602315989697  1.0000
  H   H459      1.0  0.40427437152855217  0.5884356524071229  0.11183822016332304  1.0000
  H   H460      1.0  0.4379902380515609  0.6196593460659199  0.09263522643131655  1.0000
  N   N18       1.0  0.096390773104573  0.4733162980839248  0.7657336254994206  1.0000
  C   C453      1.0  0.09422133848227232  0.4861796666047044  0.7276694051574437  1.0000
  C   C454      1.0  0.13146732323151644  0.48661098063661723  0.7822211905645555  1.0000
  C   C455      1.0  0.09544517596199409  0.43150926437091225  0.7670583736685787  1.0000
  C   C456      1.0  0.06446234300404496  0.4888760140750131  0.7860479451620062  1.0000
  H   H461      1.0  0.06882329041786828  0.47533563151415764  0.7139205160711047  1.0000
  H   H462      1.0  0.11842894523254932  0.4757238590327829  0.7117875567746818  1.0000
  H   H463      1.0  0.09386211543438017  0.5176358173549543  0.7257239407747328  1.0000
  H   H464      1.0  0.1331924594115732  0.5180943473738147  0.7818674080569272  1.0000
  H   H465      1.0  0.13427554905928507  0.47700221739912263  0.8108154067528855  1.0000
  H   H466      1.0  0.156073656995126  0.47529544375159427  0.7674379283748624  1.0000
  H   H467      1.0  0.06924201309431388  0.4203311186870618  0.7551085262692162  1.0000
  H   H468      1.0  0.09745194486530862  0.4209708940439335  0.7953883200909668  1.0000
  H   H469      1.0  0.1188997162416443  0.41881712458798326  0.7516884867564625  1.0000
  H   H470      1.0  0.06522787333012037  0.4795206655837323  0.8147998634441296  1.0000
  H   H471      1.0  0.03756225147483483  0.4791723002552613  0.774439839838272  1.0000
  H   H472      1.0  0.06422575996344215  0.5204254825238053  0.7858169389204762  1.0000
  N   N19       1.0  0.8759481909190996  0.7622795790302545  0.840846766115917  1.0000
  C   C457      1.0  0.8818460616047873  0.7207766567862292  0.8402634959018382  1.0000
  C   C458      1.0  0.8526307533350946  0.7737168896870418  0.8095433100978614  1.0000
  C   C459      1.0  0.9122377508688193  0.7814508092661422  0.8388040553217458  1.0000
  C   C460      1.0  0.8571128635164158  0.7732654504019065  0.8747867132858079  1.0000
  H   H473      1.0  0.8550816536496845  0.7053356530180267  0.8425035735719493  1.0000
  H   H474      1.0  0.8996099866938378  0.7111798045154741  0.8633575887643732  1.0000
  H   H475      1.0  0.895639987612  0.7113927908687875  0.8148275468548789  1.0000
  H   H476      1.0  0.8471910772623085  0.8048414669773879  0.8093170898789599  1.0000
  H   H477      1.0  0.8663740098829831  0.7666590860183374  0.7834662299665529  1.0000
  H   H478      1.0  0.8252835348386585  0.7592591050833489  0.8099132765889206  1.0000
  H   H479      1.0  0.9087610974246869  0.8127947239212778  0.8391394627072578  1.0000
  H   H480      1.0  0.9270596462720592  0.7741489635076249  0.8133504432303705  1.0000
  H   H481      1.0  0.930644704180445  0.7733866012464805  0.8619140140901426  1.0000
  H   H482      1.0  0.8296448628689155  0.7593448200116926  0.8772822715979505  1.0000
  H   H483      1.0  0.8521495388212051  0.8043868518922871  0.8761088781713119  1.0000
  H   H484      1.0  0.8737917374633427  0.7647785488124312  0.899015982826891  1.0000
  N   N20       1.0  0.034261736607411164  0.9397267588955655  0.08285649034638443  1.0000
  C   C461      1.0  0.047386312882061736  0.979250080482211  0.08155302821238752  1.0000
  C   C462      1.0  0.06580991530964964  0.9136036566740935  0.076179941503139  1.0000
  C   C463      1.0  0.005429592578797048  0.9342261675492236  0.05470353133260586  1.0000
  C   C464      1.0  0.018542948141470506  0.9318865708404563  0.11898386898297608  1.0000
  H   H485      1.0  0.024383814598365246  0.9997961556040136  0.0866353485631648  1.0000
  H   H486      1.0  0.05936727740783509  0.9861141214413454  0.054638702755458235  1.0000
  H   H487      1.0  0.06932705284039731  0.9844190441856121  0.10229439792903428  1.0000
  H   H488      1.0  0.057127773770367936  0.8834773544409934  0.07756031931386276  1.0000
  H   H489      1.0  0.07809570773187269  0.9183271659480255  0.04896617700274075  1.0000
  H   H490      1.0  0.08838997586529085  0.9174937731420729  0.0965287173131999  1.0000
  H   H491      1.0  0.01648806323558505  0.9399167884050358  0.02711513148956879  1.0000
  H   H492      1.0  0.9812522884403604  0.9536977103231098  0.05858677115520883  1.0000
  H   H493      1.0  0.9947405900203955  0.9047572764854886  0.05474157319459261  1.0000
  H   H494      1.0  0.03982271630594392  0.9354964315797405  0.14070757664216504  1.0000
  H   H495      1.0  0.008342031652198045  0.902304737126895  0.12103264336414066  1.0000
  H   H496      1.0  0.9949199168527036  0.9513171513062016  0.12522486877371253  1.0000
  N   N21       1.0  0.11814878350967484  0.7880208102686762  0.8048313901127501  1.0000
  C   C465      1.0  0.09624663495839947  0.7742052189812242  0.7736662293081563  1.0000
  C   C466      1.0  0.13788036429052086  0.8229703536114492  0.7944346459479649  1.0000
  C   C467      1.0  0.1454102182115553  0.7586330500088347  0.8158601189498265  1.0000
  C   C468      1.0  0.09298314530041552  0.796183811510502  0.8353968174679048  1.0000
  H   H497      1.0  0.08059744593451978  0.7481243464709604  0.780472999037644  1.0000
  H   H498      1.0  0.11443057242119026  0.7674076506011627  0.7501990861343554  1.0000
  H   H499      1.0  0.07562263444684336  0.7958203015388036  0.7643208650854457  1.0000
  H   H500      1.0  0.15692714309107947  0.8179798936121224  0.7711757780049747  1.0000
  H   H501      1.0  0.11800909433497653  0.8459002320580545  0.7863569323529837  1.0000
  H   H502      1.0  0.15506841445197073  0.8339573320602195  0.8172269501589785  1.0000
  H   H503      1.0  0.16563332636935613  0.7525845616862873  0.7938242309830298  1.0000
  H   H504      1.0  0.1316135115114314  0.7314862724355613  0.8227568511446935  1.0000
  H   H505      1.0  0.16144031315776353  0.767632474225908  0.8401907810803833  1.0000
  H   H506      1.0  0.1083189862905658  0.8086674188028187  0.858739066635069  1.0000
  H   H507      1.0  0.0789583850511304  0.7701269120472374  0.8450660014325836  1.0000
  H   H508      1.0  0.07086890785417088  0.8167607573802604  0.827410166182892  1.0000
  N   N22       1.0  0.20650145378331164  0.8933554837988132  0.2687915632689513  1.0000
  C   C469      1.0  0.22934324625538777  0.9075532128814411  0.29922642085075235  1.0000
  C   C470      1.0  0.2098292013044012  0.8516637067338378  0.2668881276478481  1.0000
  C   C471      1.0  0.21961284534768635  0.9100863440594078  0.23447411935675025  1.0000
  C   C472      1.0  0.16717189476788177  0.904169308889037  0.2745298253939462  1.0000
  H   H509      1.0  0.22000630048821526  0.8957424065852839  0.3255912287575311  1.0000
  H   H510      1.0  0.22757708194276952  0.9389974517274986  0.30131247481748463  1.0000
  H   H511      1.0  0.2592126604858511  0.8999261743669384  0.2959216113336519  1.0000
  H   H512      1.0  0.23910117107974144  0.8425725373151958  0.2620676807340237  1.0000
  H   H513      1.0  0.2005278780790264  0.8380868484786813  0.29247280062912173  1.0000
  H   H514      1.0  0.19258427349006607  0.8400869539475337  0.24441665774050655  1.0000
  H   H515      1.0  0.202725349042393  0.9002263414089295  0.21102730884957063  1.0000
  H   H516      1.0  0.24908406681045167  0.9022735051808547  0.22900423215247945  1.0000
  H   H517      1.0  0.2176830107763259  0.9415783338141859  0.2350378823757712  1.0000
  H   H518      1.0  0.1491400903020262  0.8945955139034203  0.25174581652816974  1.0000
  H   H519      1.0  0.16391119045596253  0.9354681245679966  0.27665491735019354  1.0000
  H   H520      1.0  0.15603472698400908  0.8915895887854398  0.2998859532558878  1.0000
  N   N23       1.0  0.30706440619462944  0.23118419620107816  0.6394408294014148  1.0000
  C   C473      1.0  0.29498673543285003  0.27124935161722696  0.6372099126660064  1.0000
  C   C474      1.0  0.2832111797749068  0.20798130642552526  0.6156610178384434  1.0000
  C   C475      1.0  0.30391690111064573  0.21791203999252012  0.6772999141361039  1.0000
  C   C476      1.0  0.3461169875563953  0.2276663456908205  0.6275369036686683  1.0000
  H   H521      1.0  0.3106766390730641  0.28922499262866763  0.6566857484264962  1.0000
  H   H522      1.0  0.26503495522515474  0.27470015926566604  0.6439018215727527  1.0000
  H   H523      1.0  0.2995211567264462  0.28324521587987217  0.6097056934082554  1.0000
  H   H524      1.0  0.2844297286100969  0.21802832746894354  0.5870891966308156  1.0000
  H   H525      1.0  0.29221560723831275  0.17773248631788138  0.6157249667819271  1.0000
  H   H526      1.0  0.25364423624281807  0.20920701042254025  0.624297304217409  1.0000
  H   H527      1.0  0.274924663959172  0.22104113870756717  0.6873874138764797  1.0000
  H   H528      1.0  0.32184778531686237  0.2347745789609236  0.6958417199923792  1.0000
  H   H529      1.0  0.31250915492888265  0.18771559258012874  0.6800908334495493  1.0000
  H   H530      1.0  0.34965355865915787  0.2383328052809884  0.5993285070828438  1.0000
  H   H531      1.0  0.3559455385222426  0.19772096430434374  0.6281189720050384  1.0000
  H   H532      1.0  0.36492898100328164  0.24435024586753265  0.6452476707678867  1.0000
  N   N24       1.0  0.4375511649038886  0.9130563559152033  0.26078184833253515  1.0000
  C   C477      1.0  0.4271634254402247  0.9392321272924411  0.29036433381144  1.0000
  C   C478      1.0  0.4768806672124351  0.9012645456273354  0.2651358249460488  1.0000
  C   C479      1.0  0.43243999739096656  0.9323463306703293  0.22554947964885172  1.0000
  C   C480      1.0  0.41356166073513345  0.8793350539903853  0.26200264804665996  1.0000
  H   H533      1.0  0.43043685813502913  0.9255234103266824  0.3173630029746755  1.0000
  H   H534      1.0  0.3976510400439609  0.9487899188231654  0.2878549339695499  1.0000
  H   H535      1.0  0.4445850667434573  0.9651490493970657  0.29016465715907924  1.0000
  H   H536      1.0  0.4816239230780614  0.886129365583622  0.2912308469475556  1.0000
  H   H537      1.0  0.4859497241660831  0.8821306153338209  0.24285738635385756  1.0000
  H   H538      1.0  0.49581024748790054  0.9260152798517284  0.2647539960920012  1.0000
  H   H539      1.0  0.44059594830052035  0.9137347623121722  0.20255013375269112  1.0000
  H   H540      1.0  0.44979262838498485  0.9580534796911557  0.22383557392858228  1.0000
  H   H541      1.0  0.40309132507790413  0.9417393014303477  0.22139604405628288  1.0000
  H   H542      1.0  0.38370454157015427  0.8873602406967335  0.25918423493605447  1.0000
  H   H543      1.0  0.41660387495022005  0.864048962251977  0.28820647389099635  1.0000
  H   H544      1.0  0.42042702686151695  0.8590454592985858  0.2399595785585394  1.0000
  N   N25       1.0  0.605038241554086  0.3274831071717901  0.8415552197245599  1.0000
  C   C481      1.0  0.6399567674019101  0.30797089465150945  0.8523161356210014  1.0000
  C   C482      1.0  0.5803934190159994  0.3311606689745065  0.8732854409672145  1.0000
  C   C483      1.0  0.5860995617126861  0.3053669566393668  0.8130241034184371  1.0000
  C   C484      1.0  0.6137567513638982  0.36557139397018273  0.8275181249304884  1.0000
  H   H545      1.0  0.6593198763890681  0.30504708118655255  0.8289888096045124  1.0000
  H   H546      1.0  0.6346746875824543  0.2789702002208747  0.8628928703795795  1.0000
  H   H547      1.0  0.6549655564383211  0.323817214105757  0.8738834655398235  1.0000
  H   H548      1.0  0.5740477360872935  0.3030600784768452  0.8853206539990383  1.0000
  H   H549      1.0  0.5932182972884014  0.34896336624501534  0.8947900923514199  1.0000
  H   H550      1.0  0.5534761657613503  0.34496835885872135  0.8657674462540763  1.0000
  H   H551      1.0  0.5603164849552617  0.3199338961146489  0.8032726862681774  1.0000
  H   H552      1.0  0.578107945742621  0.2768021814878137  0.8229362746896156  1.0000
  H   H553      1.0  0.60432599728367  0.3011382463506879  0.7890847562044911  1.0000
  H   H554      1.0  0.6316985170146646  0.36382567494475293  0.8031906981618598  1.0000
  H   H555      1.0  0.6283028148482106  0.3830347570555874  0.8481871491768445  1.0000
  H   H556      1.0  0.5882561334387595  0.38148471194002415  0.8194931526633502  1.0000
  N   N26       1.0  0.7680924800758852  0.5983258409969138  0.21018699633821672  1.0000
  C   C485      1.0  0.7374162595346054  0.600801885653492  0.18344912091329105  1.0000
  C   C486      1.0  0.772137682349454  0.5587955105585253  0.22293084505170907  1.0000
  C   C487      1.0  0.7596650827105851  0.623322714910771  0.24120590895777239  1.0000
  C   C488      1.0  0.8031780760908279  0.6104443575734595  0.19320401673396476  1.0000
  H   H557      1.0  0.7429662491997406  0.5827447172642906  0.1594160845503166  1.0000
  H   H558      1.0  0.7332322231784759  0.6303765769636331  0.17366972214432633  1.0000
  H   H559      1.0  0.7105912089548735  0.591621091422847  0.19547224672212152  1.0000
  H   H560      1.0  0.7786571136533669  0.5392216260731231  0.2002262303467499  1.0000
  H   H561      1.0  0.7950305194072542  0.555903932709612  0.24314897168400365  1.0000
  H   H562      1.0  0.7461386745169432  0.5486541493792431  0.23579236719369964  1.0000
  H   H563      1.0  0.7816963480981097  0.6214804749790546  0.26241178054658265  1.0000
  H   H564      1.0  0.7327758747651889  0.6157589644251901  0.2540434151353797  1.0000
  H   H565      1.0  0.75752515355615  0.6534444540227182  0.23243587330507  1.0000
  H   H566      1.0  0.8115182326407592  0.5911942414275351  0.17082760199941466  1.0000
  H   H567      1.0  0.8263690226472559  0.6108668514737751  0.21322975332973595  1.0000
  H   H568      1.0  0.8007399781614962  0.6395192400664708  0.1818362710739515  1.0000
  N   N27       1.0  0.035802204220817924  0.2770406542338534  0.5937682456649445  1.0000
  C   C489      1.0  0.01785017971333458  0.29116695717214625  0.5602311497707285  1.0000
  C   C490      1.0  0.0631026912352235  0.30508955046733083  0.6066901108547469  1.0000
  C   C491      1.0  0.05494034236329748  0.2406877257201257  0.5863578422185313  1.0000
  C   C492      1.0  0.0072919298869689175  0.27114024885852206  0.6218603842303254  1.0000
  H   H569      1.0  0.9972536783334011  0.2706060558759684  0.5495173813024596  1.0000
  H   H570      1.0  0.03847363025016648  0.2962601321851786  0.5384305852353276  1.0000
  H   H571      1.0  0.002775205936718761  0.31838473163198283  0.5649712287202545  1.0000
  H   H572      1.0  0.07795110864344568  0.29478995869501495  0.6313047291093196  1.0000
  H   H573      1.0  0.08448966260366175  0.31112358793830774  0.5858368634230691  1.0000
  H   H574      1.0  0.049445718498563496  0.3325091695498142  0.6137933021198558  1.0000
  H   H575      1.0  0.06857285895238552  0.22916255803444352  0.6112716587165943  1.0000
  H   H576      1.0  0.0767613208541118  0.24399907491616266  0.5653545939843787  1.0000
  H   H577      1.0  0.03502958692107705  0.21893952269706105  0.5765072194147112  1.0000
  H   H578      1.0  0.0199030969522227  0.26029703342164406  0.6475186575496552  1.0000
  H   H579      1.0  0.9861349728510583  0.250187822494124  0.6129735976539872  1.0000
  H   H580      1.0  0.992287878423574  0.29797157174012995  0.6283070326590289  1.0000
  N   N28       1.0  0.6219538726104714  0.8265741891920808  0.7956113097139876  1.0000
  C   C493      1.0  0.6348191621923155  0.8334479277426926  0.8331169308456375  1.0000
  C   C494      1.0  0.6488004550157049  0.8014322703837085  0.777016941057617  1.0000
  C   C495      1.0  0.6191341730380999  0.863061852515882  0.7760476567160328  1.0000
  C   C496      1.0  0.5850635773864443  0.8083940788779896  0.7962786679693266  1.0000
  H   H581      1.0  0.6149513486298613  0.8518775839519102  0.8481590239230266  1.0000
  H   H582      1.0  0.6623433464338265  0.8476130916446418  0.8335873806335132  1.0000
  H   H583      1.0  0.6381221235298056  0.8065000951360788  0.8485705171735999  1.0000
  H   H584      1.0  0.6528949093658504  0.7742896532980471  0.7919522849648359  1.0000
  H   H585      1.0  0.6391183714538172  0.7942142661414558  0.7492246395848476  1.0000
  H   H586      1.0  0.6765253725810894  0.8149377950189001  0.7745470583107974  1.0000
  H   H587      1.0  0.5995707879867835  0.8829504059156759  0.7897689019472506  1.0000
  H   H588      1.0  0.6086762986671963  0.8590480898072153  0.7479298385040696  1.0000
  H   H589      1.0  0.6466517597505596  0.8771434577338724  0.7742513162385481  1.0000
  H   H590      1.0  0.5744644467854164  0.8029297026284415  0.7683459305092175  1.0000
  H   H591      1.0  0.564095038674678  0.8265751403928454  0.8101865930297796  1.0000
  H   H592      1.0  0.5861996548584061  0.780663489639931  0.8106306294075545  1.0000
  N   N29       1.0  0.6856499474507171  0.704773843227263  0.37961290947383414  1.0000
  C   C497      1.0  0.7091016305113059  0.7200197186019304  0.4090772978488005  1.0000
  C   C498      1.0  0.6547931719202468  0.6828810074000289  0.3952699929298249  1.0000
  C   C499      1.0  0.708486606153132  0.6798411613463882  0.3563311077477529  1.0000
  C   C500      1.0  0.6701972544849785  0.7362835882593394  0.3577234669440017  1.0000
  H   H593      1.0  0.7328428085596616  0.7364460558657685  0.39807826921144945  1.0000
  H   H594      1.0  0.720998558668371  0.696795275469426  0.4261428006212709  1.0000
  H   H595      1.0  0.6929566509516534  0.7392728121450525  0.4270075174001318  1.0000
  H   H596      1.0  0.6367532273471505  0.6707550539509419  0.37364482006675237  1.0000
  H   H597      1.0  0.665415689587341  0.6589628173021086  0.4121951451366579  1.0000
  H   H598      1.0  0.6368306021196012  0.7008609550606726  0.41276857078294105  1.0000
  H   H599      1.0  0.6915910872113513  0.6672047853271944  0.3341182281488387  1.0000
  H   H600      1.0  0.7210620210166044  0.6561009304698866  0.3721800848842117  1.0000
  H   H601      1.0  0.7317112713561615  0.695710430901891  0.34368453653216013  1.0000
  H   H602      1.0  0.6531042274474103  0.7255158995600385  0.3348469451860862  1.0000
  H   H603      1.0  0.6925926541777947  0.753850262916344  0.3459382289099911  1.0000
  H   H604      1.0  0.6521537423703794  0.7553503283617221  0.3740750095533521  1.0000
  N   N30       1.0  0.7631184304534128  0.17667595655252408  0.3388055898184024  1.0000
  C   C501      1.0  0.7512352302758138  0.1643953862938352  0.30233649622715875  1.0000
  C   C502      1.0  0.7588908826010803  0.2181828732442512  0.34207519372998096  1.0000
  C   C503      1.0  0.8025803422782432  0.16620016229983395  0.34447449362239935  1.0000
  C   C504      1.0  0.7397706622168737  0.1580177607466163  0.36627236993698564  1.0000
  H   H605      1.0  0.7212915136652102  0.17085419194252635  0.2975088164611061  1.0000
  H   H606      1.0  0.7551858332602703  0.1333370789466426  0.29872621210019945  1.0000
  H   H607      1.0  0.7673551834638057  0.17892619955831754  0.2808948216161551  1.0000
  H   H608      1.0  0.7295316555227768  0.22730205538399062  0.33734027018235996  1.0000
  H   H609      1.0  0.7670266343855539  0.22818485925857576  0.36953053541836595  1.0000
  H   H610      1.0  0.7767876768519955  0.23321709311781935  0.3222640982533863  1.0000
  H   H611      1.0  0.8128405314388362  0.17595744134237565  0.3713435742075256  1.0000
  H   H612      1.0  0.8206176583608038  0.1790715002209307  0.3234791649966794  1.0000
  H   H613      1.0  0.8068239151836437  0.13499493417582498  0.3433563368253612  1.0000
  H   H614      1.0  0.7482565311017427  0.16618460728743195  0.39420394692383304  1.0000
  H   H615      1.0  0.7420913558792295  0.12662927186433648  0.3645136494828672  1.0000
  H   H616      1.0  0.7098526466284818  0.16582805252589017  0.3627160165227669  1.0000
  N   N31       1.0  0.1587171191931851  0.5591740487891351  0.9027823643665251  1.0000
  C   C505      1.0  0.12776662869056404  0.5572326011633827  0.9289273939396615  1.0000
  C   C506      1.0  0.15346845568702086  0.5307616596844278  0.8739354298596499  1.0000
  C   C507      1.0  0.19423701848981065  0.5514685173790016  0.9218183715601811  1.0000
  C   C508      1.0  0.159365675436492  0.5973190111541017  0.8863317310168207  1.0000
  H   H617      1.0  0.13127294526163266  0.5781432916548975  0.9511968762142252  1.0000
  H   H618      1.0  0.12597681639094543  0.5287873135503759  0.9418245851454109  1.0000
  H   H619      1.0  0.10062111655625228  0.5637644109527314  0.9156253217203583  1.0000
  H   H620      1.0  0.1760386053489156  0.5322067749722031  0.8535503637609062  1.0000
  H   H621      1.0  0.15337804533216368  0.5014985255254906  0.8851443375012377  1.0000
  H   H622      1.0  0.1268569792114694  0.5356870708395096  0.8591588028237045  1.0000
  H   H623      1.0  0.21819001162046692  0.5525015477634749  0.9029390276403588  1.0000
  H   H624      1.0  0.19433061620668057  0.5230293437540491  0.9348243087449822  1.0000
  H   H625      1.0  0.19938867602492372  0.572617457432269  0.9435235339590515  1.0000
  H   H626      1.0  0.1620544440344385  0.6195275651442785  0.9073561582575228  1.0000
  H   H627      1.0  0.13330711675473472  0.6035840430078597  0.8709781765432086  1.0000
  H   H628      1.0  0.18288189075833675  0.600458019519224  0.8671800938510452  1.0000
  N   N32       1.0  0.5479393883921622  0.8209797817062119  0.5673391681941521  1.0000
  C   C509      1.0  0.5761356456403471  0.8462344123498672  0.5833630483564469  1.0000
  C   C510      1.0  0.5662144078426248  0.7860291857225729  0.5541249768012683  1.0000
  C   C511      1.0  0.5292226360470813  0.8405621865784815  0.5368048586210734  1.0000
  C   C512      1.0  0.520218992699731  0.8109810404050597  0.5951141739600707  1.0000
  H   H629      1.0  0.5632724112232348  0.8726613293039461  0.5942403701202608  1.0000
  H   H630      1.0  0.5973065468429497  0.8548243790210441  0.5631475927749905  1.0000
  H   H631      1.0  0.5911749819337432  0.8320886030118881  0.6060971002739155  1.0000
  H   H632      1.0  0.5805143653713959  0.7705596736525335  0.5766336363288049  1.0000
  H   H633      1.0  0.5456227149447272  0.7663179932109758  0.5419220673919145  1.0000
  H   H634      1.0  0.5873668577196112  0.7924163917192548  0.5331387192388497  1.0000
  H   H635      1.0  0.5140818566754036  0.8664406315384152  0.5460232417621834  1.0000
  H   H636      1.0  0.5085365811179235  0.8219580482649159  0.5233567197571161  1.0000
  H   H637      1.0  0.5493680358484164  0.8494774682775452  0.515737679972258  1.0000
  H   H638      1.0  0.49841043223598114  0.7920734133275558  0.5838665588903739  1.0000
  H   H639      1.0  0.5059595166756505  0.8366215361178558  0.6059898837351946  1.0000
  H   H640      1.0  0.5334061643652063  0.795850151309433  0.6184343541133408  1.0000
  N   N33       1.0  0.9288207652177427  0.5531783898335098  0.03177998594105369  1.0000
  C   C513      1.0  0.9293574070412413  0.5730904406570559  0.06696446522594468  1.0000
  C   C514      1.0  0.9451457069450186  0.5777365549536795  0.0037137044712696188  1.0000
  C   C515      1.0  0.8900423234269411  0.5441783166025518  0.021730488435537376  1.0000
  C   C516      1.0  0.9508096186734025  0.5177134694083458  0.034567213137483455  1.0000
  H   H641      1.0  0.9178995431436285  0.5551952811892221  0.08901978360461826  1.0000
  H   H642      1.0  0.9128445754155076  0.5998688512944051  0.065821537691793  1.0000
  H   H643      1.0  0.9581835855743748  0.5807113657352619  0.07505502383852813  1.0000
  H   H644      1.0  0.9740266678123342  0.5860447271316899  0.01085181509131905  1.0000
  H   H645      1.0  0.9464152524786632  0.5629066049392621  0.9772576898644386  1.0000
  H   H646      1.0  0.9284991212806056  0.6041516927987945  0.9996117056421462  1.0000
  H   H647      1.0  0.8888053244184274  0.5280473091849172  0.9958738041960563  1.0000
  H   H648      1.0  0.8729789616683927  0.5703449663071666  0.017804626157099657  1.0000
  H   H649      1.0  0.8764584496246697  0.5265769096042446  0.042788572207899334  1.0000
  H   H650      1.0  0.9512982836606778  0.5021976461484312  0.008283510800985994  1.0000
  H   H651      1.0  0.9393122668300306  0.4983067642896757  0.055380472888006294  1.0000
  H   H652      1.0  0.9801597309964619  0.5234684670583567  0.04221088648402138  1.0000
  N   N34       1.0  0.8539455811072183  0.8646575936103945  0.6363319511976139  1.0000
  C   C517      1.0  0.8149602375901558  0.8567526382596098  0.6263431449790452  1.0000
  C   C518      1.0  0.8641995231878336  0.9027632350686974  0.6233615982394781  1.0000
  C   C519      1.0  0.8783548537324577  0.8361664183158412  0.6192541102706273  1.0000
  C   C520      1.0  0.8583194752189172  0.862712568071897  0.676166244639007  1.0000
  H   H653      1.0  0.7957331824138567  0.8772150606025552  0.6392891408485224  1.0000
  H   H654      1.0  0.8064492466491057  0.8280117167216436  0.6354088832866075  1.0000
  H   H655      1.0  0.8103479839943528  0.8588565678528288  0.5965582415097439  1.0000
  H   H656      1.0  0.8934438259338509  0.9096526050686481  0.6305785130721661  1.0000
  H   H657      1.0  0.8612235791355337  0.9050711902130085  0.5933907757946416  1.0000
  H   H658      1.0  0.8460425481671022  0.9250400990547589  0.6353101390240449  1.0000
  H   H659      1.0  0.9081382811123413  0.8422122633981511  0.62459297863559  1.0000
  H   H660      1.0  0.8744500800681294  0.8355011726206706  0.5893141821635115  1.0000
  H   H661      1.0  0.8724334263395866  0.8073066890829609  0.6297170954789341  1.0000
  H   H662      1.0  0.887527915727906  0.8679868083278159  0.6847852275047293  1.0000
  H   H663      1.0  0.8503125226222233  0.8344606395038942  0.686954635792167  1.0000
  H   H664      1.0  0.840268599079609  0.8838995533563141  0.6900074595982966  1.0000
  N   N35       1.0  0.21407393174241277  0.13378763423577245  0.2151519591051324  1.0000
  C   C521      1.0  0.24661774343787482  0.15869170615917394  0.21095784622650066  1.0000
  C   C522      1.0  0.22658684280218652  0.09379496296502143  0.215566368845246  1.0000
  C   C523      1.0  0.18796359883520058  0.13992204512038797  0.18456285066753828  1.0000
  C   C524      1.0  0.19520292770605596  0.14278908078448982  0.2496049575765222  1.0000
  H   H665      1.0  0.26731218385138406  0.15417232613224763  0.23309831578678503  1.0000
  H   H666      1.0  0.23834197732764958  0.1890919983505901  0.21153614669752144  1.0000
  H   H667      1.0  0.26108287467576696  0.1536825151417469  0.18477430699535743  1.0000
  H   H668      1.0  0.24096592000045308  0.08603086923596903  0.18998667836485789  1.0000
  H   H669      1.0  0.24614751852761121  0.08799473859791984  0.23843997163405334  1.0000
  H   H670      1.0  0.20277898398730884  0.0741510803627976  0.21879124118177026  1.0000
  H   H671      1.0  0.16400238092331418  0.12021946745721634  0.1857730429696575  1.0000
  H   H672      1.0  0.20173786465008675  0.13521820894398906  0.157973906035178  1.0000
  H   H673      1.0  0.17637014380409793  0.1692277594984375  0.1845700383552465  1.0000
  H   H674      1.0  0.17047396922549374  0.12463429272474924  0.25372093306773574  1.0000
  H   H675      1.0  0.18544856896631606  0.1728128189262086  0.2503213994957101  1.0000
  H   H676      1.0  0.21408295130888438  0.1383286971982698  0.2732558737365776  1.0000
  N   N36       1.0  0.3483836699790688  0.4368975241406964  0.47171911844787207  1.0000
  C   C525      1.0  0.37423953205121246  0.412427691907293  0.45115609661254236  1.0000
  C   C526      1.0  0.3388524449093043  0.4189343048046012  0.5066464371121214  1.0000
  C   C527      1.0  0.31418122050111424  0.4426952287023986  0.4500789713194994  1.0000
  C   C528      1.0  0.36622210535145605  0.4737277137248887  0.47886819629144817  1.0000
  H   H677      1.0  0.38064473285382106  0.42486933170270386  0.424167242309548  1.0000
  H   H678      1.0  0.3626213739578029  0.383732689511686  0.4467075036291818  1.0000
  H   H679      1.0  0.4011822178834732  0.4091375633759  0.46548947754780184  1.0000
  H   H680      1.0  0.31722828588807833  0.4355659435003564  0.5213682159162703  1.0000
  H   H681      1.0  0.32796549474747505  0.3898266583954332  0.502850009516088  1.0000
  H   H682      1.0  0.3634371535838072  0.41707358296122776  0.5249691734421623  1.0000
  H   H683      1.0  0.29937904044999886  0.4156195369699191  0.4452731618859385  1.0000
  H   H684      1.0  0.3204327910235816  0.45531356488733765  0.42320668654519655  1.0000
  H   H685      1.0  0.29451940757238343  0.46207511428848913  0.46396225539375147  1.0000
  H   H686      1.0  0.3734185291203805  0.4884887035395351  0.45324011001877496  1.0000
  H   H687      1.0  0.3926171214926831  0.46997940518627845  0.4945084508725421  1.0000
  H   H688      1.0  0.34766821122255653  0.4927511952361429  0.4947520193153148  1.0000
  N   N37       1.0  0.6465273554513806  0.4562725421502921  0.37190123610705617  1.0000
  C   C529      1.0  0.6362173004437597  0.49135058553429894  0.3913854933520862  1.0000
  C   C530      1.0  0.6669804012905782  0.43056323347328274  0.396737837884145  1.0000
  C   C531      1.0  0.6704330196709428  0.4658369684321409  0.34080121147200565  1.0000
  C   C532      1.0  0.6125468129589935  0.4372487280919509  0.35876475565739874  1.0000
  H   H689      1.0  0.6178976994987211  0.4852346341487281  0.41485526350454244  1.0000
  H   H690      1.0  0.6210808040577076  0.5116032770645672  0.3733685447519091  1.0000
  H   H691      1.0  0.6612324322505833  0.5062277948398654  0.40196807762586345  1.0000
  H   H692      1.0  0.6746319835563109  0.40350040933450243  0.38307478919886034  1.0000
  H   H693      1.0  0.69294262240112  0.44373159578804827  0.40709968824964515  1.0000
  H   H694      1.0  0.6497128297822866  0.42284124197430795  0.4205715337194873  1.0000
  H   H695      1.0  0.6788096678267398  0.4399822927059699  0.3255318244716544  1.0000
  H   H696      1.0  0.6962628139661805  0.4803317897086687  0.3497570620637051  1.0000
  H   H697      1.0  0.6558581757443767  0.485201598958952  0.321465571057544  1.0000
  H   H698      1.0  0.6193524658937438  0.4106252502768981  0.34397326932060207  1.0000
  H   H699      1.0  0.5961815752515303  0.4556366798498276  0.33999319756734664  1.0000
  H   H700      1.0  0.5940564979526584  0.42921240168439934  0.3815842986212368  1.0000
  N   N38       1.0  0.24354120931065068  0.6880736979334374  0.3327165723738983  1.0000
  C   C533      1.0  0.22684655413021615  0.6550919889302723  0.3143310383943373  1.0000
  C   C534      1.0  0.23940979543129165  0.7219939102976645  0.30967336494442244  1.0000
  C   C535      1.0  0.2835274000786275  0.6807571245138211  0.33913318919035285  1.0000
  C   C536      1.0  0.22452302924082013  0.6945669111103365  0.3675772046664545  1.0000
  H   H701      1.0  0.19681309988384788  0.6597805909006336  0.308357527122194  1.0000
  H   H702      1.0  0.22920787880384383  0.6291037727036342  0.33126030083322394  1.0000
  H   H703      1.0  0.2407175598273402  0.6488439862017471  0.28811473225658313  1.0000
  H   H704      1.0  0.25277464644568953  0.7471206164042307  0.32222674354428676  1.0000
  H   H705      1.0  0.2527532437264753  0.7173509441958058  0.2830007878841811  1.0000
  H   H706      1.0  0.20971867473345596  0.7290804555766451  0.30480449316054853  1.0000
  H   H707      1.0  0.2973843802068023  0.7055597071825103  0.3517400670080184  1.0000
  H   H708      1.0  0.2983597405637533  0.674318004404515  0.3134448055036363  1.0000
  H   H709      1.0  0.28784680327638384  0.6563774981452448  0.3575479453910394  1.0000
  H   H710      1.0  0.23745739750207698  0.7181709192052975  0.3829637815800849  1.0000
  H   H711      1.0  0.22598975347492953  0.668944745610576  0.3851422201128952  1.0000
  H   H712      1.0  0.19453722224200462  0.7015787664214808  0.3634321597207584  1.0000
  N   N39       1.0  0.6516196188969898  0.9412632733638953  0.31121369876104144  1.0000
  C   C537      1.0  0.6531097318735397  0.9747598202363509  0.33512400626478533  1.0000
  C   C538      1.0  0.6869433789889519  0.9377474448581283  0.29115872153262445  1.0000
  C   C539      1.0  0.6204449566121404  0.9456548692175711  0.285255401524607  1.0000
  C   C540      1.0  0.6460445814092406  0.906852490297494  0.33334287777068866  1.0000
  H   H713      1.0  0.6762710819761611  0.9722554621676204  0.3551932030479454  1.0000
  H   H714      1.0  0.6268183454327784  0.9783350638533379  0.3505674620238204  1.0000
  H   H715      1.0  0.6574754734369195  0.0011950984930269026  0.3192929956963505  1.0000
  H   H716      1.0  0.6921481331720427  0.9631419291508919  0.27404596296084893  1.0000
  H   H717      1.0  0.7110217499306611  0.9343056265623598  0.30993581168560547  1.0000
  H   H718      1.0  0.6868260188392924  0.9127250940795176  0.2728704803705761  1.0000
  H   H719      1.0  0.6189413773311672  0.9210987248811354  0.26648590920282833  1.0000
  H   H720      1.0  0.6235438435181759  0.9715582904196026  0.2683456737457483  1.0000
  H   H721      1.0  0.5932266271303981  0.94773512103793  0.299411355510999  1.0000
  H   H722      1.0  0.6456202299424417  0.8809379514450739  0.31620415044352185  1.0000
  H   H723      1.0  0.6191441166645318  0.9080612162131511  0.34817614775022154  1.0000
  H   H724      1.0  0.6686868636597485  0.9031760348744846  0.35381697132874407  1.0000
  N   N40       1.0  0.3852293493419153  0.7194191446709126  0.8333546403994823  1.0000
  C   C541      1.0  0.4240292538650579  0.7239535406970382  0.8214337589398472  1.0000
  C   C542      1.0  0.3785977050899164  0.6790873856929197  0.8417494067538273  1.0000
  C   C543      1.0  0.3597084690487434  0.7318957353391283  0.8040744342462544  1.0000
  C   C544      1.0  0.3789301630688117  0.7427599420085711  0.8659739543495957  1.0000
  H   H725      1.0  0.4300889918291105  0.7540257150725564  0.8146395928918609  1.0000
  H   H726      1.0  0.42958638881716193  0.7066379393728629  0.7969500316050614  1.0000
  H   H727      1.0  0.44414156747316735  0.7145383856423083  0.8426989361424378  1.0000
  H   H728      1.0  0.3496749951493304  0.6744615915343555  0.8511770916513797  1.0000
  H   H729      1.0  0.3832646213949663  0.660832064029338  0.8175834381385975  1.0000
  H   H730      1.0  0.39751800494369904  0.6687225928397309  0.8636328712691331  1.0000
  H   H731      1.0  0.33011230685640996  0.7288329982472267  0.8120177772514736  1.0000
  H   H732      1.0  0.36399036452088196  0.7149986484757495  0.7789881919235102  1.0000
  H   H733      1.0  0.36396870124913855  0.7622185942358845  0.797025130888101  1.0000
  H   H734      1.0  0.39747175541515073  0.7337386583433161  0.8887007482827773  1.0000
  H   H735      1.0  0.34992392586991394  0.7402211727210289  0.8758354238361673  1.0000
  H   H736      1.0  0.3840237780575356  0.7732843532850812  0.8604516580000178  1.0000
  N   N41       1.0  0.8414372624860883  0.032686492205161066  0.8431528543224491  1.0000
  C   C545      1.0  0.8502249663918956  0.07125269341803131  0.8303208085953425  1.0000
  C   C546      1.0  0.8260955198170821  0.010414145121312002  0.8127679089099775  1.0000
  C   C547      1.0  0.8137249758878603  0.035110092391365644  0.8724772520821108  1.0000
  C   C548      1.0  0.8756288802457931  0.014100507788383121  0.8570903242851318  1.0000
  H   H737      1.0  0.8709576341465679  0.0706199549908928  0.8080202570231221  1.0000
  H   H738      1.0  0.8621882084049345  0.0888299620760642  0.8524422902676682  1.0000
  H   H739      1.0  0.824991332483929  0.08623052267095033  0.8198936585066433  1.0000
  H   H740      1.0  0.8007191278435142  0.02418430536522931  0.8012685131026974  1.0000
  H   H741      1.0  0.8464651294796107  0.00761488999847737  0.7903147165822321  1.0000
  H   H742      1.0  0.8182593536776827  0.9813915105155943  0.8215371536535334  1.0000
  H   H743      1.0  0.7878035996718205  0.04957434839913777  0.8631893325683808  1.0000
  H   H744      1.0  0.8247205687590816  0.05132914279892531  0.895951021911849  1.0000
  H   H745      1.0  0.8058420839216034  0.006572151264981008  0.8825394594846514  1.0000
  H   H746      1.0  0.8700484781083484  0.9848721511116644  0.8668713675860684  1.0000
  H   H747      1.0  0.8876167747534778  0.030074877446950365  0.8803129639036068  1.0000
  H   H748      1.0  0.897445334240496  0.012272430176242466  0.8358761225347627  1.0000
  N   N42       1.0  0.886046211606187  0.8655907606243577  0.3914577534132765  1.0000
  C   C549      1.0  0.9225233851862807  0.8837327848163976  0.39716502949358196  1.0000
  C   C550      1.0  0.882842068942428  0.8326667144333852  0.4159157311003944  1.0000
  C   C551      1.0  0.8827691919965452  0.8529667871196058  0.35341421831446973  1.0000
  C   C552      1.0  0.8559885175920691  0.8930122914572045  0.39955805994474525  1.0000
  H   H749      1.0  0.9260670882177094  0.9087171754612932  0.3791517185265652  1.0000
  H   H750      1.0  0.9458553118561644  0.8637583040492666  0.3916354441703122  1.0000
  H   H751      1.0  0.9259856895422934  0.8935536112199491  0.42561659935212304  1.0000
  H   H752      1.0  0.8854817470158483  0.8412983871779647  0.44480465845913636  1.0000
  H   H753      1.0  0.8555458687020775  0.8185609824413334  0.41268077961130806  1.0000
  H   H754      1.0  0.9051108383298123  0.8113343713188405  0.41066162177100296  1.0000
  H   H755      1.0  0.9048378175476659  0.8319291722476226  0.34649448724168064  1.0000
  H   H756      1.0  0.885362193105872  0.8772719190414092  0.3343023918784956  1.0000
  H   H757      1.0  0.8554080784871851  0.8394405662797906  0.3480705474682118  1.0000
  H   H758      1.0  0.8280140480507714  0.8801903674719256  0.39598288369961143  1.0000
  H   H759      1.0  0.8571699297572948  0.9180465221010259  0.38134808517743585  1.0000
  H   H760      1.0  0.8581961581210916  0.9035152347699918  0.42785773126904797  1.0000
  N   N43       1.0  0.3593894307283576  0.27376223080200474  0.8583235026379794  1.0000
  C   C553      1.0  0.3313393368798945  0.28562349764906014  0.8851911220978359  1.0000
  C   C554      1.0  0.36733994636093714  0.23280547427302334  0.8624016770075265  1.0000
  C   C555      1.0  0.3938870281388223  0.29540025138827664  0.8642340313026632  1.0000
  C   C556      1.0  0.344975307027171  0.2812913944339514  0.8214385657686777  1.0000
  H   H761      1.0  0.30486122632652957  0.27023909565562576  0.8812092599708349  1.0000
  H   H762      1.0  0.32464413465409864  0.3164056300023373  0.8828161341714207  1.0000
  H   H763      1.0  0.3409474104574766  0.279892154402445  0.9133877169033704  1.0000
  H   H764      1.0  0.3880945037131854  0.2228007241051593  0.8421558580023174  1.0000
  H   H765      1.0  0.37855223310663216  0.22605828246335152  0.8898449807480281  1.0000
  H   H766      1.0  0.34178828660225  0.21567352683510013  0.8585740746186886  1.0000
  H   H767      1.0  0.4157327737046924  0.2871239706561632  0.8445185971572277  1.0000
  H   H768      1.0  0.40537299872902854  0.2906143246326883  0.8919092109233724  1.0000
  H   H769      1.0  0.38890422418718507  0.3264096036203208  0.8609646425753442  1.0000
  H   H770      1.0  0.36513390452688027  0.27179864458129116  0.8005667797963436  1.0000
  H   H771      1.0  0.33946166329878114  0.3120680315024657  0.8169873423698969  1.0000
  H   H772      1.0  0.318502863551064  0.26609107609436405  0.8162594507949644  1.0000
  N   N44       1.0  0.44524900513437166  0.18695041596532125  0.3906040535076169  1.0000
  C   C557      1.0  0.4155878698106296  0.17133577002277312  0.3672969200900522  1.0000
  C   C558      1.0  0.4773278521935302  0.19761916353348363  0.36800560544844985  1.0000
  C   C559      1.0  0.45712628142043954  0.15812240609183803  0.41742541162981495  1.0000
  C   C560      1.0  0.4309972720199402  0.22075079710882495  0.4097638596509995  1.0000
  H   H773      1.0  0.3912619478343608  0.16233518559965043  0.38359935098470316  1.0000
  H   H774      1.0  0.42546574029356765  0.145841268757674  0.35233605875074  1.0000
  H   H775      1.0  0.4057127860716408  0.19249522252898488  0.3469718876800353  1.0000
  H   H776      1.0  0.5008283792916457  0.2079135142404005  0.3849574453104818  1.0000
  H   H777      1.0  0.4879046520529551  0.17306544310072347  0.3521027326542868  1.0000
  H   H778      1.0  0.4698406257681944  0.22072982131316077  0.3486274746271036  1.0000
  H   H779      1.0  0.4795436823093421  0.16896700021719502  0.4354913574302961  1.0000
  H   H780      1.0  0.46764946770756055  0.13195900442226538  0.4040081801554273  1.0000
  H   H781      1.0  0.4336002855956719  0.14956836982261068  0.43505409037338183  1.0000
  H   H782      1.0  0.4215723283035002  0.24313989404810465  0.39043917247725063  1.0000
  H   H783      1.0  0.4529313922372205  0.23330981643693116  0.4272077728147994  1.0000
  H   H784      1.0  0.4072301601738924  0.2135987214287569  0.42767543146855486  1.0000
  N   N45       1.0  0.15834988750961018  0.44861562521116666  0.31210851945177814  1.0000
  C   C561      1.0  0.14011465266435555  0.41216859465820693  0.32006464810519814  1.0000
  C   C562      1.0  0.19338088547440033  0.4415417635563252  0.2923399685342631  1.0000
  C   C563      1.0  0.16663409825157818  0.46850532490733443  0.34640467529191166  1.0000
  C   C564      1.0  0.13332118235032023  0.4723424685509296  0.2895144171722418  1.0000
  H   H785      1.0  0.11380804286364987  0.41643248620757173  0.33535747922121467  1.0000
  H   H786      1.0  0.15843354340573798  0.39327515498039217  0.3366128844292591  1.0000
  H   H787      1.0  0.13304864327057322  0.3966815248022022  0.29472316856595343  1.0000
  H   H788      1.0  0.20791169884260824  0.4685421201098007  0.2861025497666535  1.0000
  H   H789      1.0  0.21296846909741618  0.4234885136685116  0.30837310949171715  1.0000
  H   H790      1.0  0.18816953462657238  0.4270069550872796  0.26608112619796  1.0000
  H   H791      1.0  0.1853364623603257  0.4513712212493194  0.36425822919500295  1.0000
  H   H792      1.0  0.14086690981840913  0.47484211630615714  0.36190498708563873  1.0000
  H   H793      1.0  0.18069983122194974  0.4959463090939669  0.34131469848579593  1.0000
  H   H794      1.0  0.10701837623950516  0.4793842717122509  0.3038428529673897  1.0000
  H   H795      1.0  0.1258514178260805  0.45783263658612133  0.2638029683882837  1.0000
  H   H796      1.0  0.14672307109988508  0.4994848004996043  0.2820254161706334  1.0000
  N   N46       1.0  0.3651165711581566  0.9649166993508779  0.4617300109380786  1.0000
  C   C565      1.0  0.3402987967773432  0.9912591790995345  0.44195027536558673  1.0000
  C   C566      1.0  0.3597881635760953  0.9261922663570843  0.44768571037807864  1.0000
  C   C567      1.0  0.3561596427948944  0.9657894455841246  0.5007669247358628  1.0000
  C   C568      1.0  0.40408238341470154  0.9766485434173993  0.45645944535844774  1.0000
  H   H797      1.0  0.34435566227756104  0.020684520334398604  0.45156049274999543  1.0000
  H   H798      1.0  0.31048974008370545  0.9840757917901514  0.4459603922528929  1.0000
  H   H799      1.0  0.3459170146874446  0.9910653217486355  0.4123058332108806  1.0000
  H   H800      1.0  0.3779029443285911  0.9055308886228995  0.46229703077005196  1.0000
  H   H801      1.0  0.3305286628591257  0.9168298039764653  0.4510999488918084  1.0000
  H   H802      1.0  0.36621897424518185  0.9244392252305784  0.4182571168476174  1.0000
  H   H803      1.0  0.3750694584070906  0.9467944534424115  0.5165887382450782  1.0000
  H   H804      1.0  0.32709165503071747  0.9565185118391255  0.5057441870469441  1.0000
  H   H805      1.0  0.3585268951384021  0.9949306363503053  0.5120165751230323  1.0000
  H   H806      1.0  0.4238645842943101  0.9569958223061829  0.47040038303341164  1.0000
  H   H807      1.0  0.4088933181516266  0.005655443270578209  0.4672711360415058  1.0000
  H   H808      1.0  0.41139712754111246  0.9774498070413192  0.4272082902782068  1.0000
  N   N47       1.0  0.5768307564486479  0.5303877025767374  0.8015847866676813  1.0000
  C   C569      1.0  0.6033608337978538  0.5036151562847428  0.8188174682728065  1.0000
  C   C570      1.0  0.5916964938797953  0.5692533123257638  0.8034250900330121  1.0000
  C   C571      1.0  0.5409720859780413  0.5289112774482418  0.8208009059556152  1.0000
  C   C572      1.0  0.5711511487222047  0.519735266369722  0.7632926421813442  1.0000
  H   H809      1.0  0.6305383467956649  0.5032918599768831  0.8045176860354402  1.0000
  H   H810      1.0  0.5926444129548465  0.4740783804782708  0.8182660285758983  1.0000
  H   H811      1.0  0.6086573696419181  0.5110589904458489  0.8476515568064045  1.0000
  H   H812      1.0  0.5962174179803829  0.5784248563458031  0.8319846174764621  1.0000
  H   H813      1.0  0.6187437777359814  0.5714562069686052  0.7891048518253466  1.0000
  H   H814      1.0  0.5722107123726878  0.5900738293983449  0.7907616291932889  1.0000
  H   H815      1.0  0.5199104630125218  0.5480886361598203  0.8081145926720978  1.0000
  H   H816      1.0  0.5443087884023795  0.5379204628585771  0.8494361779714582  1.0000
  H   H817      1.0  0.5294744434460421  0.4996892997345198  0.8210304978191239  1.0000
  H   H818      1.0  0.5514668596445342  0.539459553118973  0.7493562629737571  1.0000
  H   H819      1.0  0.559791425886901  0.4906547663145125  0.7610070110498303  1.0000
  H   H820      1.0  0.5978325639391274  0.5198876421516087  0.7480936933970914  1.0000
  N   N48       1.0  0.11267472728326289  0.29290047302716454  0.8185462488171029  1.0000
  C   C573      1.0  0.073490860398983  0.2822280168734095  0.8244225713479053  1.0000
  C   C574      1.0  0.13168620631756944  0.2628143170074924  0.7976706737727477  1.0000
  C   C575      1.0  0.13159906822202694  0.2976850639686202  0.85386330126238  1.0000
  C   C576      1.0  0.11395290775181999  0.3289738727279521  0.7982580087233386  1.0000
  H   H821      1.0  0.07147955910763182  0.25502443992092244  0.839506951509594  1.0000
  H   H822      1.0  0.05846123578791129  0.27845173273626633  0.7981870022659971  1.0000
  H   H823      1.0  0.05822381979194935  0.30435934144622057  0.8400540038920453  1.0000
  H   H824      1.0  0.11692166181357755  0.25694388940826857  0.7717745570254265  1.0000
  H   H825      1.0  0.1605992057842427  0.2709436587197582  0.7907713665523446  1.0000
  H   H826      1.0  0.1330867107761644  0.235671384762464  0.8130578616687183  1.0000
  H   H827      1.0  0.1611198903796871  0.3061781162397363  0.8503171669371997  1.0000
  H   H828      1.0  0.1316849190590048  0.2709426241515887  0.8698300547460152  1.0000
  H   H829      1.0  0.11785710728903287  0.3200259851033457  0.8704633885656412  1.0000
  H   H830      1.0  0.09957231043970283  0.3266357445825044  0.7716478647384342  1.0000
  H   H831      1.0  0.14314657554530852  0.33766038133653853  0.7929658529390025  1.0000
  H   H832      1.0  0.10006330354096304  0.35221856479200486  0.8135509121329003  1.0000
  N   N49       1.0  0.570086788977331  0.18043960156221106  0.20132636255559477  1.0000
  C   C577      1.0  0.6055586223788924  0.18280088866210337  0.2215522111172515  1.0000
  C   C578      1.0  0.5703680523024877  0.14596967128156085  0.17863787065695713  1.0000
  C   C579      1.0  0.5655733510528306  0.21414448941452885  0.17789975085225276  1.0000
  C   C580      1.0  0.5388993056252329  0.178934892693894  0.2271794916401549  1.0000
  H   H833      1.0  0.6059828184894532  0.2078082481574259  0.23985781704548734  1.0000
  H   H834      1.0  0.6295472058002877  0.18506902184288443  0.20281275164026014  1.0000
  H   H835      1.0  0.6102480956030495  0.15738919268304055  0.23898798558082276  1.0000
  H   H836      1.0  0.5741254958324861  0.12004522735746415  0.19546245051830727  1.0000
  H   H837      1.0  0.543937678127283  0.14297142701573393  0.1630737202117493  1.0000
  H   H838      1.0  0.5934556924584785  0.1464939629801427  0.15864320134580356  1.0000
  H   H839      1.0  0.5386487102942341  0.2136569394711787  0.1629203971561377  1.0000
  H   H840      1.0  0.5879181102543775  0.2155041962957939  0.1572691507771089  1.0000
  H   H841      1.0  0.5667516393634932  0.24079628061460595  0.1939059935009693  1.0000
  H   H842      1.0  0.5116936555573949  0.1766893470988019  0.2128861931881362  1.0000
  H   H843      1.0  0.5380115214666679  0.20461327306342408  0.2446149666462316  1.0000
  H   H844      1.0  0.5415669038798133  0.15407045577976153  0.24554512453298435  1.0000
  N   N50       1.0  0.04429428818186798  0.15313460202449936  0.3390579377104906  1.0000
  C   C581      1.0  0.038535888291101106  0.1159872870917138  0.3566159380403279  1.0000
  C   C582      1.0  0.008869050344987084  0.16643165001554697  0.322812027737437  1.0000
  C   C583      1.0  0.07262271440355539  0.1494574633061796  0.3103553473081645  1.0000
  C   C584      1.0  0.05708726812521836  0.18064530025948786  0.3664792174247825  1.0000
  H   H845      1.0  0.0173191253704037  0.11797704270494358  0.37846180204525537  1.0000
  H   H846      1.0  0.06471032139453992  0.10477923889364817  0.3689014100761043  1.0000
  H   H847      1.0  0.028534845227106143  0.09452808488686859  0.3368787456798473  1.0000
  H   H848      1.0  0.9987018651527069  0.14619120298975136  0.30189544177794153  1.0000
  H   H849      1.0  0.9867083663421058  0.16917217197134196  0.3436162922629283  1.0000
  H   H850      1.0  0.012013277016101664  0.1945696975750824  0.30964317295283  1.0000
  H   H851      1.0  0.07791895595532927  0.17712473936548662  0.29685481377313916  1.0000
  H   H852      1.0  0.06372321419660665  0.129158603176053  0.28902170538294825  1.0000
  H   H853      1.0  0.09955126941675063  0.13897648300631021  0.3214425326168534  1.0000
  H   H854      1.0  0.061565359869950376  0.20904387059672866  0.35437979140968223  1.0000
  H   H855      1.0  0.08378350962895253  0.171392389044724  0.3791841702950131  1.0000
  H   H856      1.0  0.03636224884362327  0.18415742636026866  0.3885257467698552  1.0000
  N   N51       1.0  0.35597121582283825  0.6567795959129755  0.5364888801485624  1.0000
  C   C585      1.0  0.3367703885155539  0.6272563078559072  0.5152694757630437  1.0000
  C   C586      1.0  0.3544642019907596  0.693127312476457  0.5165795955947111  1.0000
  C   C587      1.0  0.3952325381643893  0.6454499411515929  0.5422245118721741  1.0000
  C   C588      1.0  0.337441145122971  0.6613176671738091  0.571887428902786  1.0000
  H   H857      1.0  0.3371246836168429  0.5995045427713952  0.5295765744757479  1.0000
  H   H858      1.0  0.3500531643763053  0.6230445303142599  0.4884297833381412  1.0000
  H   H859      1.0  0.3071480116983336  0.6350717662081926  0.5100193657750086  1.0000
  H   H860      1.0  0.37081002019895903  0.6916915955503149  0.49111762940318576  1.0000
  H   H861      1.0  0.3254170393130748  0.7011278875815091  0.5090697905370104  1.0000
  H   H862      1.0  0.3661275568426504  0.7166161421114986  0.5330705948653116  1.0000
  H   H863      1.0  0.4106393845438839  0.6673285921402929  0.5577985526808982  1.0000
  H   H864      1.0  0.4099462144520872  0.6416121990252014  0.5159869442839442  1.0000
  H   H865      1.0  0.3975463150875225  0.6184097455776892  0.5576068536917376  1.0000
  H   H866      1.0  0.3079059519852323  0.6703548105545126  0.5684579368997863  1.0000
  H   H867      1.0  0.35147094300305043  0.6831454369879563  0.5887764735611718  1.0000
  H   H868      1.0  0.33784681431967656  0.6344151530897172  0.5876300229159099  1.0000
  N   N52       1.0  0.3497554254018528  0.48618951176217373  0.7680075256637972  1.0000
  C   C589      1.0  0.3703337163487157  0.46108291215918584  0.7429739421461924  1.0000
  C   C590      1.0  0.31961650156251625  0.5059947934332287  0.748018498574258  1.0000
  C   C591      1.0  0.37546836249479654  0.5143482790733579  0.7836177048917301  1.0000
  C   C592      1.0  0.3336191879886568  0.46330882706730947  0.7974917620256878  1.0000
  H   H869      1.0  0.3939342487458184  0.44653055663260816  0.7569684112055137  1.0000
  H   H870      1.0  0.3819019135378532  0.4771008719804055  0.719703523054349  1.0000
  H   H871      1.0  0.35208166665052104  0.4385710547955093  0.7317648225129485  1.0000
  H   H872      1.0  0.29872708229493544  0.4856954141256079  0.7373891014990336  1.0000
  H   H873      1.0  0.3045291062639921  0.5263601979843038  0.7657359994516406  1.0000
  H   H874      1.0  0.3305181805709777  0.5222032548737529  0.7245433117120902  1.0000
  H   H875      1.0  0.3880039591433255  0.5323418373114583  0.7621709897494839  1.0000
  H   H876      1.0  0.3986383494321432  0.5002759622305224  0.7987765878409372  1.0000
  H   H877      1.0  0.3608615405461624  0.5335243376397882  0.8028967534394565  1.0000
  H   H878      1.0  0.3153068104982039  0.4406137522360118  0.7866761174967414  1.0000
  H   H879      1.0  0.31647257571901005  0.48096736403925644  0.8160214375213618  1.0000
  H   H880      1.0  0.35561355860076455  0.4491521838234706  0.814058014759342  1.0000
  N   N53       1.0  0.8632438622401543  0.5005571478240036  0.81630046433499  1.0000
  C   C593      1.0  0.8585436015538298  0.477159173136281  0.8491585372919112  1.0000
  C   C594      1.0  0.8851000194585814  0.5345438370029519  0.8254071916705912  1.0000
  C   C595      1.0  0.8263845586215156  0.5124442202163628  0.8022812258959366  1.0000
  C   C596      1.0  0.8828593064371626  0.47808482805239944  0.7884426674591714  1.0000
  H   H881      1.0  0.8417298906129772  0.45148789117245136  0.8435146172318846  1.0000
  H   H882      1.0  0.8440011023210734  0.4932382892039955  0.8709257032953773  1.0000
  H   H883      1.0  0.8857737677286501  0.46754535477593834  0.8604460850239976  1.0000
  H   H884      1.0  0.8897918560463066  0.552619572829906  0.8011751111318338  1.0000
  H   H885      1.0  0.8706159270056383  0.5522338497321446  0.8460359891215675  1.0000
  H   H886      1.0  0.9127042033220135  0.5267768645806578  0.8370485461322986  1.0000
  H   H887      1.0  0.8108896772067824  0.5295735911376117  0.8226092326261528  1.0000
  H   H888      1.0  0.8088319520219036  0.48760168948972693  0.7957881333761567  1.0000
  H   H889      1.0  0.8287374113392979  0.5296421569296264  0.7771509899301432  1.0000
  H   H890      1.0  0.8866293172226314  0.4946623106859809  0.7630896272729563  1.0000
  H   H891      1.0  0.8669547291925565  0.4522154837834597  0.7811435806034254  1.0000
  H   H892      1.0  0.9108012187767303  0.468652733815697  0.7981782806581698  1.0000
  N   N54       1.0  0.6060117912747452  0.016710682311638525  0.7611837409062454  1.0000
  C   C597      1.0  0.6344945367138491  0.04129206185973233  0.7448621201609361  1.0000
  C   C598      1.0  0.6222902864147091  0.9964480561275275  0.7926031311065224  1.0000
  C   C599      1.0  0.593125759077078  0.9889432815297885  0.7340112628922266  1.0000
  C   C600      1.0  0.5741933813231064  0.040123674718498314  0.7733699941379022  1.0000
  H   H893      1.0  0.6455076110322865  0.0620125774652347  0.7648801088816207  1.0000
  H   H894      1.0  0.6230441021684953  0.05764789308635687  0.7215086718280332  1.0000
  H   H895      1.0  0.6585661067248654  0.02441341612320902  0.7347189336023587  1.0000
  H   H896      1.0  0.6325863380919281  0.016590917615981304  0.8135190577735121  1.0000
  H   H897      1.0  0.6014529818419085  0.9780344606589836  0.8059121805662911  1.0000
  H   H898      1.0  0.64606027304188  0.9781229619646148  0.784371400158463  1.0000
  H   H899      1.0  0.5714086599541081  0.9700547431250267  0.745295354689179  1.0000
  H   H900      1.0  0.6163290641451994  0.9705271209074787  0.7244401998605917  1.0000
  H   H901      1.0  0.5809996587941018  0.0031806054613348067  0.7097217095151627  1.0000
  H   H902      1.0  0.5613704698474085  0.05636095316192691  0.7506134545444141  1.0000
  H   H903      1.0  0.5827884545107621  0.0610419489986298  0.7943235012241978  1.0000
  H   H904      1.0  0.5520193642600288  0.022341829123429857  0.7854494882136536  1.0000
  N   N55       1.0  0.9504775960639249  0.38223898342728063  0.2839687927808091  1.0000
  C   C601      1.0  0.9601570450024486  0.35000362729250933  0.3078755033552783  1.0000
  C   C602      1.0  0.9102073084080011  0.3904747229329172  0.28644927478476945  1.0000
  C   C603      1.0  0.959895107061349  0.3725424833416062  0.2461663876740639  1.0000
  C   C604      1.0  0.9716828802439975  0.4158913860884717  0.2953912940215755  1.0000
  H   H905      1.0  0.9903286844285832  0.34292009548243524  0.3065013555513169  1.0000
  H   H906      1.0  0.944214907249  0.3242080240278396  0.30045468365631267  1.0000
  H   H907      1.0  0.9535988736766596  0.3565128358164517  0.33663482146808726  1.0000
  H   H908      1.0  0.8933980635201637  0.365815807358922  0.27759168990223804  1.0000
  H   H909      1.0  0.9018490207531991  0.3969640310517368  0.3147904895465612  1.0000
  H   H910      1.0  0.9019965833387039  0.4151176110953308  0.26927839106314344  1.0000
  H   H911      1.0  0.9531146533647206  0.39636823140309657  0.22739254549592122  1.0000
  H   H912      1.0  0.9444223276398767  0.3472050851244583  0.23671701295704253  1.0000
  H   H913      1.0  0.9901637055610828  0.366434845182104  0.24320045757952732  1.0000
  H   H914      1.0  0.0022026406786164188  0.41077089949824164  0.29337268505609315  1.0000
  H   H915      1.0  0.9654745449165884  0.42375806930154947  0.32391851354074735  1.0000
  H   H916      1.0  0.9650467907442491  0.44082178718828796  0.27796002933148367  1.0000
  N   N56       1.0  0.43229171838678826  0.41923567282480784  0.28372676701326416  1.0000
  C   C605      1.0  0.45889275504839355  0.3872541785017062  0.2808086240041719  1.0000
  C   C606      1.0  0.4528239881013746  0.45530144642339837  0.283547872910793  1.0000
  C   C607      1.0  0.41121736508772166  0.4158985548746917  0.31779366920688124  1.0000
  C   C608      1.0  0.40614159032186664  0.41852146314417826  0.2527305427524854  1.0000
  H   H917      1.0  0.47617760604024384  0.38952947485034484  0.25600337609320545  1.0000
  H   H918      1.0  0.4443518712963825  0.3595764605767525  0.28002693442190646  1.0000
  H   H919      1.0  0.4784692466499257  0.38635892755176376  0.30431829563261603  1.0000
  H   H920      1.0  0.47421578154921773  0.45593227932134445  0.30543535045635173  1.0000
  H   H921      1.0  0.4677819761471295  0.4594549050313914  0.2575581161197597  1.0000
  H   H922      1.0  0.43394367451369714  0.4801020682776391  0.28750653663081427  1.0000
  H   H923      1.0  0.43004337381357544  0.41504088972040276  0.3418133423133274  1.0000
  H   H924      1.0  0.39431802259368637  0.3897389706089984  0.3181566748186512  1.0000
  H   H925      1.0  0.3916819393277144  0.44017819116791884  0.32134506761473924  1.0000
  H   H926      1.0  0.4211134755743296  0.4208263818545073  0.22652218433264168  1.0000
  H   H927      1.0  0.3858156713907188  0.44244233477377976  0.2541623728104415  1.0000
  H   H928      1.0  0.39000213752572166  0.3917235420395251  0.2522240537481916  1.0000
  N   N57       1.0  0.24257175757655502  0.2552517716591017  0.4105184075687755  1.0000
  C   C609      1.0  0.22926935646557203  0.22670996736553936  0.4366417392129618  1.0000
  C   C610      1.0  0.27887321797285036  0.26987658165907924  0.42286731872293476  1.0000
  C   C611      1.0  0.21527037230112012  0.2866886826281372  0.4081177188107607  1.0000
  C   C612      1.0  0.24683778383496452  0.23769783640335798  0.37442286723249535  1.0000
  H   H929      1.0  0.24916346140900464  0.20254324366845752  0.4390919170484389  1.0000
  H   H930      1.0  0.2021174197802928  0.21466571786759947  0.4279651862617894  1.0000
  H   H931      1.0  0.22572583122706352  0.2389292169879115  0.4641697912081959  1.0000
  H   H932      1.0  0.28960702020664025  0.29157780110405584  0.4038069077359555  1.0000
  H   H933      1.0  0.27680488263523706  0.2831456006956954  0.45010715564316367  1.0000
  H   H934      1.0  0.3000809937627856  0.24678098902641155  0.42476903420256423  1.0000
  H   H935      1.0  0.18756146252573594  0.27634803008182973  0.3991268683432247  1.0000
  H   H936      1.0  0.2241661166853939  0.3085502314171924  0.38827983805345595  1.0000
  H   H937      1.0  0.21158972183427222  0.3009728460306085  0.4347104315760049  1.0000
  H   H938      1.0  0.2572354547982466  0.25832790168982533  0.3541397286354485  1.0000
  H   H939      1.0  0.2199001807953587  0.2265919967470615  0.36407648632729844  1.0000
  H   H940      1.0  0.2667913859039595  0.21343951280507614  0.37525148797872715  1.0000
  N   N58       1.0  0.5181452254933617  0.29643497530430346  0.601580642042585  1.0000
  C   C613      1.0  0.48247565863184877  0.2907233255183104  0.5823879555636351  1.0000
  C   C614      1.0  0.5277763606975173  0.2619934980355032  0.6225174299477685  1.0000
  C   C615      1.0  0.5146953178829763  0.32911629042947277  0.6263269030878494  1.0000
  C   C616      1.0  0.5477192296612118  0.30392466224309383  0.5749661510436316  1.0000
  H   H941      1.0  0.47542718080140234  0.31525885975583884  0.564646137803207  1.0000
  H   H942      1.0  0.4590467432063893  0.28694907538156245  0.6016356538260221  1.0000
  H   H943      1.0  0.48358445771568165  0.26517679290959384  0.5648449008098014  1.0000
  H   H944      1.0  0.5543117070047804  0.26549728845042  0.6377924520891514  1.0000
  H   H945      1.0  0.5060503138166326  0.25543342730119545  0.6428448012434073  1.0000
  H   H946      1.0  0.5308314279643809  0.23687196492528131  0.6045592846871175  1.0000
  H   H947      1.0  0.541141672833104  0.3342534259555243  0.6412764718099159  1.0000
  H   H948      1.0  0.4927396450766102  0.3243656031025843  0.6468854445072577  1.0000
  H   H949      1.0  0.5073689301834262  0.3555366869270218  0.6113815877245752  1.0000
  H   H950      1.0  0.5753784426560505  0.30640207685825244  0.588368493832524  1.0000
  H   H951      1.0  0.5423634840551562  0.33096701725212985  0.5602611488843379  1.0000
  H   H952      1.0  0.5495852769738363  0.2808665137652794  0.5544268219864368  1.0000
  N   N59       1.0  0.64542841718841  0.03189804196849156  0.9986645738906078  1.0000
  C   C617      1.0  0.6292358070080032  0.9977723688991629  0.015312595443877974  1.0000
  C   C618      1.0  0.6849892178290732  0.024437467246662514  0.9907008934831321  1.0000
  C   C619      1.0  0.6420591659023598  0.06406621947755675  0.024090710116742242  1.0000
  C   C620      1.0  0.6255875981871062  0.04122323292831309  0.9645668627445265  1.0000
  H   H953      1.0  0.600363167043477  0.0032145076344043395  0.02435812222479128  1.0000
  H   H954      1.0  0.6453076561849358  0.9885331250956536  0.03961134943796796  1.0000
  H   H955      1.0  0.6281905650051721  0.9737616735708696  0.9958300479857369  1.0000
  H   H956      1.0  0.6978634652002725  0.04934913832085153  0.9777876785314963  1.0000
  H   H957      1.0  0.7012540468825615  0.018261338188009235  0.01578051305497863  1.0000
  H   H958      1.0  0.6884134534552828  0.00030677068152629156  0.9715881202524561  1.0000
  H   H959      1.0  0.6545542535755693  0.0902316644367438  0.012772850944481995  1.0000
  H   H960      1.0  0.6565489452009445  0.05800083518261224  0.05019615493465168  1.0000
  H   H961      1.0  0.6124161810909468  0.0706042623433063  0.03032927890875814  1.0000
  H   H962      1.0  0.6383845100272407  0.06572424893276674  0.950472826197141  1.0000
  H   H963      1.0  0.5960133919894292  0.04870951527463219  0.9695907951792817  1.0000
  H   H964      1.0  0.6259945207951682  0.017003359031600107  0.9452785836915311  1.0000
  N   N60       1.0  0.7068135848319379  0.8318147374733913  0.09830230141430299  1.0000
  C   C621      1.0  0.6696743596270665  0.8200354192129286  0.11078932531378884  1.0000
  C   C622      1.0  0.7086451688264831  0.8736192114508549  0.09787544391427323  1.0000
  C   C623      1.0  0.7133173074215495  0.817108273323923  0.06138437818229669  1.0000
  C   C624      1.0  0.7355684398608128  0.8165064791161956  0.12321150260030131  1.0000
  H   H965      1.0  0.6638048080193906  0.8310518220146174  0.1384268875527516  1.0000
  H   H966      1.0  0.6674112638994051  0.7886280110790751  0.1118599807457955  1.0000
  H   H967      1.0  0.647230659098297  0.8307627091390047  0.09253137291879245  1.0000
  H   H968      1.0  0.7364010249687419  0.8835499458515619  0.08891524052864723  1.0000
  H   H969      1.0  0.6872677931629582  0.886082863687183  0.07940948842724915  1.0000
  H   H970      1.0  0.7036673819681242  0.8856218431095  0.12533018391793038  1.0000
  H   H971      1.0  0.7124064181148245  0.7856832900305748  0.06085272718177412  1.0000
  H   H972      1.0  0.7410184923565297  0.8255285124186464  0.050950124016239724  1.0000
  H   H973      1.0  0.691804777712369  0.8274815482627434  0.04190205411113968  1.0000
  H   H974      1.0  0.7640184648254822  0.8244774765660488  0.11454027748130237  1.0000
  H   H975      1.0  0.7346885133146183  0.7850474363732286  0.12457012649042766  1.0000
  H   H976      1.0  0.7316714644874778  0.8272722326377441  0.15126870916027071  1.0000
  N   N61       1.0  0.7901790680247186  0.10099398121914294  0.1768064801793945  1.0000
  C   C625      1.0  0.788650548841051  0.09715184728671478  0.1369406654154086  1.0000
  C   C626      1.0  0.8124791210605519  0.13450827116165165  0.1864578600343858  1.0000
  C   C627      1.0  0.8074458051245766  0.06669446627496223  0.19286739532859065  1.0000
  C   C628      1.0  0.7521028108104957  0.10573187464844724  0.19105267185516484  1.0000
  H   H977      1.0  0.7765631178734642  0.1229611794332204  0.12388617529475154  1.0000
  H   H978      1.0  0.7711761808995974  0.0727730452908475  0.1285123121363092  1.0000
  H   H979      1.0  0.8168037168231052  0.09275384057439374  0.12525741103940424  1.0000
  H   H980      1.0  0.8145479708318399  0.13811897045882773  0.21635535710181952  1.0000
  H   H981      1.0  0.8413085889139645  0.13228112279417092  0.17585168387973615  1.0000
  H   H982      1.0  0.7999246055256656  0.1610716137254777  0.17532190615263832  1.0000
  H   H983      1.0  0.8092425383952786  0.06885505510284973  0.2229336795514194  1.0000
  H   H984      1.0  0.8361165977025631  0.06192280000032402  0.182572210167381  1.0000
  H   H985      1.0  0.7908579373256621  0.0409405906709679  0.1867815701939297  1.0000
  H   H986      1.0  0.7522765928624906  0.1093451013582847  0.22100247991856659  1.0000
  H   H987      1.0  0.7346479883376663  0.08057060520657579  0.1850597513605643  1.0000
  H   H988      1.0  0.7380643143582017  0.13095506919809052  0.1790198296855554  1.0000
  N   N62       1.0  0.22411365976288855  0.9154070463218189  0.9370278861406243  1.0000
  C   C629      1.0  0.22272009044477192  0.9562829327844647  0.9455247531018689  1.0000
  C   C630      1.0  0.22291994576681073  0.892995486774764  0.9708573132857986  1.0000
  C   C631      1.0  0.2590104569897491  0.9066997969346747  0.9176564511969131  1.0000
  C   C632      1.0  0.1918492231989597  0.9056462236163862  0.9139762937151891  1.0000
  H   H989      1.0  0.22337556422602578  0.9736529444618006  0.9203468543299074  1.0000
  H   H990      1.0  0.24654486352135319  0.9648178990648786  0.9628891476700582  1.0000
  H   H991      1.0  0.19676196935430212  0.9639911960237713  0.9600683919882743  1.0000
  H   H992      1.0  0.196996516277248  0.8987386454734907  0.9862618213462334  1.0000
  H   H993      1.0  0.2237165204144227  0.8620040610522711  0.9650873759778363  1.0000
  H   H994      1.0  0.2467724338237609  0.899556565792498  0.9890045594252171  1.0000
  H   H995      1.0  0.2616433741212971  0.8758052909065084  0.9119627522552457  1.0000
  H   H996      1.0  0.2838248820964513  0.9149337106328237  0.9338241675510466  1.0000
  H   H997      1.0  0.26031921225484567  0.9221552984725346  0.8913323597786575  1.0000
  H   H998      1.0  0.19163637138742762  0.8749223264576099  0.9073639914669311  1.0000
  H   H999      1.0  0.19205482005672558  0.9216380024161459  0.887943977683144  1.0000
  H   H1000     1.0  0.16514032118202682  0.9123265653881325  0.9277767773430008  1.0000
  N   N63       1.0  0.20164420098140887  0.34528587328795074  0.08959904960653002  1.0000
  C   C633      1.0  0.16826123881400815  0.3303126781606869  0.10770220034810946  1.0000
  C   C634      1.0  0.19729073071190087  0.386605480317034  0.0843484991525829  1.0000
  C   C635      1.0  0.20619280578040508  0.32668499876890456  0.054023768867743044  1.0000
  C   C636      1.0  0.23479983586747108  0.3375270686611922  0.11236079397177065  1.0000
  H   H1001     1.0  0.16385688555949315  0.34404123615612453  0.13452894448071603  1.0000
  H   H1002     1.0  0.17073000241110342  0.29921577286520007  0.11234204153797066  1.0000
  H   H1003     1.0  0.14272444571776635  0.3353887469080167  0.09120242699696117  1.0000
  H   H1004     1.0  0.22206147359707082  0.39893102395368624  0.07095089685742678  1.0000
  H   H1005     1.0  0.1724791085103696  0.3934803143364417  0.0673398443653624  1.0000
  H   H1006     1.0  0.19367913873577433  0.4014741920625579  0.11071062749804574  1.0000
  H   H1007     1.0  0.20972939338460395  0.2955372255498665  0.05705675382823184  1.0000
  H   H1008     1.0  0.23107484195323152  0.3373000103776683  0.03950510801420193  1.0000
  H   H1009     1.0  0.1815199187281271  0.3314861734548603  0.036230208061845515  1.0000
  H   H1010     1.0  0.2606202354011586  0.34803396235042394  0.09944747598020609  1.0000
  H   H1011     1.0  0.23866578827685406  0.30662443610241885  0.11722732815505009  1.0000
  H   H1012     1.0  0.2324582279097154  0.35141253563773783  0.13932279034759895  1.0000
  N   N64       1.0  0.06889049791435697  0.00444243668986144  0.7787284726479824  1.0000
  C   C637      1.0  0.05303827598458044  0.0024404935284876306  0.7418025926276542  1.0000
  C   C638      1.0  0.03922058746824297  0.9982988118276102  0.8054472563033732  1.0000
  C   C639      1.0  0.08536732268903613  0.04215533538726279  0.7845170761920384  1.0000
  C   C640      1.0  0.09788904417546607  0.9749006692177891  0.7834714907534482  1.0000
  H   H1013     1.0  0.029901603043916758  0.02317525902323525  0.7379830068864158  1.0000
  H   H1014     1.0  0.04217746989062565  0.9736268113677343  0.735851266617466  1.0000
  H   H1015     1.0  0.07441764616817403  0.00869784460430889  0.7209909536125895  1.0000
  H   H1016     1.0  0.050592166183720755  0.0004923967028935827  0.8333439635279272  1.0000
  H   H1017     1.0  0.01661632139475744  0.01985789318192044  0.8028277620125087  1.0000
  H   H1018     1.0  0.026766821914270267  0.9696624843459792  0.8025178381541304  1.0000
  H   H1019     1.0  0.0974695477261367  0.04449319504485505  0.8122084422395281  1.0000
  H   H1020     1.0  0.06416783655795033  0.065121683626163  0.7816800306147884  1.0000
  H   H1021     1.0  0.10800397267991158  0.047777698019142445  0.7648383595317204  1.0000
  H   H1022     1.0  0.12122931447931928  0.9791318413431404  0.7643970945438316  1.0000
  H   H1023     1.0  0.08665735167348854  0.9460484883031751  0.778344651536892  1.0000
  H   H1024     1.0  0.1096522334786929  0.974961478261844  0.8114304429611156  1.0000
