data_image0
_chemical_formula_structural       FeS2FeS2FeSFeS3FeS2FeS2FeSFeS3FeS2FeS2FeSFeS3FeS2FeS2FeSFeS3FeS2FeS2FeSFeS3FeS2FeS2FeSFeS3FeS2FeS2FeSFeS3FeS2FeS2FeSFeS3FeS2FeS2FeSFeS3FeS2FeS2FeSFeS3FeS2FeS2FeSFeS3FeS2FeS2FeSFeS3FeS2FeS2FeSFeS3FeS2FeS2FeSFeS3FeS2FeS2FeSFeS3FeS2FeS2FeSFeS3FeS2FeS2FeSFeS3FeS2FeS2FeSFeS3C6H4C6H4C6H4C6H4C6H4C6H4C6H4C6H4C6H4C6H4C6H4C6H4C6H4C6H4C6H4C6H4C6H4C6H4C6H4C6H4C6H4C6H4C6H4C6H4C6H4C6H4C6H4C6H4C6H4C6H4C6H4C6H4C6H4C6H4C6H4C6H4NC4H12NC4H12NC4H12NC4H12NC4H12NC4H12NC4H12NC4H12NC4H12NC4H12NC4H12NC4H12NC4H12NC4H12NC4H12NC4H12NC4H12NC4H12NC4H12NC4H12NC4H12NC4H12NC4H12NC4H12NC4H12NC4H12NC4H12NC4H12NC4H12NC4H12NC4H12NC4H12NC4H12NC4H12NC4H12NC4H12
_chemical_formula_sum              "Fe72 S144 C360 H576 N36"
_cell_length_a       37.35144603525341
_cell_length_b       37.470615400772196
_cell_length_c       35.49853287753413
_cell_angle_alpha    89.27548895460235
_cell_angle_beta     90.26695951352035
_cell_angle_gamma    119.16230938845382

_space_group_name_H-M_alt    "P 1"
_space_group_IT_number       1

loop_
  _space_group_symop_operation_xyz
  'x, y, z'

loop_
  _atom_site_type_symbol
  _atom_site_label
  _atom_site_symmetry_multiplicity
  _atom_site_fract_x
  _atom_site_fract_y
  _atom_site_fract_z
  _atom_site_occupancy
  Fe  Fe1       1.0  0.7488162740128669  0.7858299604644492  0.7282469802452124  1.0000
  S   S1        1.0  0.6904475557238239  0.725880726419864  0.7303705313836559  1.0000
  S   S2        1.0  0.752480912001999  0.8476018809266888  0.7336838266657004  1.0000
  Fe  Fe2       1.0  0.8020243825687705  0.7451023553282902  0.7188934996370144  1.0000
  S   S3        1.0  0.7478812080804396  0.6819152058007782  0.7207920271688789  1.0000
  S   S4        1.0  0.8679551563039725  0.7592525242357097  0.7127632964265493  1.0000
  Fe  Fe3       1.0  0.7178220822221404  0.7080685653946139  0.6829263285374216  1.0000
  S   S5        1.0  0.6802352579325924  0.6708920951643402  0.6335829156735848  1.0000
  Fe  Fe4       1.0  0.725696849928576  0.7054261687930224  0.7680390474768878  1.0000
  S   S6        1.0  0.6943403598020558  0.6673849170936244  0.8197975522271118  1.0000
  S   S7        1.0  0.773894697642094  0.7698541788725235  0.6775003056526838  1.0000
  S   S8        1.0  0.7822840573277987  0.7669497796960811  0.7693530172722735  1.0000
  Fe  Fe5       1.0  0.7009080172867815  0.7362320955598048  0.4294583654294993  1.0000
  S   S9        1.0  0.6359636081521698  0.7227219718478979  0.4226073580556868  1.0000
  S   S10       1.0  0.7352224716731229  0.7709161446759557  0.48073330141727133  1.0000
  Fe  Fe6       1.0  0.7030260261626352  0.7034141954730991  0.35215270815629385  1.0000
  S   S11       1.0  0.6379267867181445  0.6869583589314607  0.33941374343305347  1.0000
  S   S12       1.0  0.7412245216132689  0.6919979467146408  0.31006121956197186  1.0000
  Fe  Fe7       1.0  0.6552034105724535  0.7480954054728001  0.36411454234107543  1.0000
  S   S13       1.0  0.6373985512189871  0.7937153448018169  0.34127840385173897  1.0000
  Fe  Fe8       1.0  0.625317107813954  0.6629935850819495  0.39904832811281  1.0000
  S   S14       1.0  0.5669741696164018  0.6040975730045858  0.41209874464524204  1.0000
  S   S15       1.0  0.7212789409437761  0.7662892611648481  0.37278422606177714  1.0000
  S   S16       1.0  0.6894122128776384  0.6746646250464746  0.41007630550756585  1.0000
  Fe  Fe9       1.0  0.7806128436673679  0.6586365361380512  0.08438390091599703  1.0000
  S   S17       1.0  0.790488953183736  0.7223979477174634  0.07796580237909555  1.0000
  S   S18       1.0  0.8299322613215937  0.6452456172609378  0.10611566721752368  1.0000
  Fe  Fe10      1.0  0.6947583465880726  0.62081315112022  0.04944453257011364  1.0000
  S   S19       1.0  0.6979352355653466  0.6818029389955844  0.04095123678486707  1.0000
  S   S20       1.0  0.6416507489663263  0.5597624165972174  0.03275366859279254  1.0000
  Fe  Fe11      1.0  0.7620908511105143  0.702306463933406  0.021088886126937184  1.0000
  S   S21       1.0  0.793121395974618  0.7406931358449168  0.9698955330767951  1.0000
  Fe  Fe12      1.0  0.7258501257350737  0.6954553017853972  0.09890822349733312  1.0000
  S   S22       1.0  0.7084065452685843  0.727924332267821  0.1421121560919144  1.0000
  S   S23       1.0  0.757229681298239  0.6405491136753607  0.02551567532340865  1.0000
  S   S24       1.0  0.7175126889036305  0.6326214885593252  0.10924018217400279  1.0000
  Fe  Fe13      1.0  0.01693482031673721  0.4222441670814697  0.04780653810416712  1.0000
  S   S25       1.0  0.07801694077622523  0.4241995101750955  0.04635753245659149  1.0000
  S   S26       1.0  0.005173569099257813  0.4753015660622642  0.03753179426228812  1.0000
  Fe  Fe14      1.0  0.9703712735334832  0.3315872688188201  0.06908130501169961  1.0000
  S   S27       1.0  0.02746518969500311  0.3260892043340979  0.0692092406155397  1.0000
  S   S28       1.0  0.9060903510132435  0.28186056601400644  0.08329819717253557  1.0000
  Fe  Fe15      1.0  0.05666149166163992  0.3860597237849055  0.09938649966447954  1.0000
  S   S29       1.0  0.09869738650487281  0.39367412780877886  0.14862855014267112  1.0000
  Fe  Fe16      1.0  0.04367018172602877  0.36439982379988206  0.016254960084112875  1.0000
  S   S30       1.0  0.07216648947419158  0.34828064481774756  0.9680389218674411  1.0000
  S   S31       1.0  0.9980057540094055  0.3886797894844594  0.1033336918099991  1.0000
  S   S32       1.0  0.9840510824416456  0.36519257970839797  0.013618586253479415  1.0000
  Fe  Fe17      1.0  0.04977609326083243  0.3430127904781006  0.7569659657770322  1.0000
  S   S33       1.0  0.047475037264204545  0.2823460934345654  0.7637919881254607  1.0000
  S   S34       1.0  0.024383036955853754  0.36809689516778377  0.8007229073528936  1.0000
  Fe  Fe18      1.0  0.09288029743430992  0.3597967174072892  0.6812807392882767  1.0000
  S   S35       1.0  0.09427405730569904  0.30064223524778494  0.6825498483700426  1.0000
  S   S36       1.0  0.12378692282104402  0.40389621114072605  0.6330119962647677  1.0000
  Fe  Fe19      1.0  0.02910808194564174  0.2734815174086125  0.7027361159514149  1.0000
  S   S37       1.0  0.980149326580959  0.21142195146644704  0.6823707673220953  1.0000
  Fe  Fe20      1.0  0.11275890820673154  0.31545584550620964  0.7431448502025507  1.0000
  S   S38       1.0  0.161490435800193  0.3040016139737475  0.7705012944356099  1.0000
  S   S39       1.0  0.0264606703514636  0.3319458901113575  0.6972678841938872  1.0000
  S   S40       1.0  0.1161810634486469  0.3768594330932086  0.7404541521811951  1.0000
  Fe  Fe21      1.0  0.08288218510872661  0.44395850692380634  0.3524531702669018  1.0000
  S   S41       1.0  0.14642214803695655  0.4957601086929924  0.3608234148960914  1.0000
  S   S42       1.0  0.048107153879545235  0.44407748805226055  0.300542209903263  1.0000
  Fe  Fe22      1.0  0.08010596769524732  0.40808637968032346  0.4304166933636188  1.0000
  S   S43       1.0  0.14372225258136986  0.45714500791224766  0.44463495194286673  1.0000
  S   S44       1.0  0.039327076831776824  0.3608489723665344  0.47333973728023065  1.0000
  Fe  Fe23      1.0  0.12463429357304709  0.49992915418775796  0.4185197901162095  1.0000
  S   S45       1.0  0.1416500630401318  0.5613194791813632  0.4434422852639335  1.0000
  Fe  Fe24      1.0  0.15921851675379603  0.4476963170659139  0.3857351419387984  1.0000
  S   S46       1.0  0.2201438578051323  0.45086075838548445  0.37379690834087087  1.0000
  S   S47       1.0  0.059927188686188744  0.45180924588923  0.40827383698882125  1.0000
  S   S48       1.0  0.0966998578510449  0.3950334768652968  0.3732539252154163  1.0000
  Fe  Fe25      1.0  0.1008523731043558  0.7731129923247918  0.19284934501315398  1.0000
  S   S49       1.0  0.08847113405466518  0.8256336342941217  0.1963460735419394  1.0000
  S   S50       1.0  0.13569211792669664  0.7705795335534661  0.14254360073181857  1.0000
  Fe  Fe26      1.0  0.0651772066896732  0.7405040844504718  0.27022616229746316  1.0000
  S   S51       1.0  0.0490033447918623  0.7901443468197218  0.279575768929099  1.0000
  S   S52       1.0  0.05332387604323996  0.6928731275779726  0.3151352343039882  1.0000
  Fe  Fe27      1.0  0.027389090567658148  0.779093364150072  0.2195570505085412  1.0000
  S   S53       1.0  0.9708375563095407  0.7829873414737157  0.20330242555513842  1.0000
  Fe  Fe28      1.0  0.11145949374742493  0.8315218950702435  0.25563381533191165  1.0000
  S   S54       1.0  0.15593508933929592  0.8937184428083504  0.2780518903932821  1.0000
  S   S55       1.0  0.03805764463277583  0.7255355338062631  0.2120279935270087  1.0000
  S   S56       1.0  0.1291685652561799  0.7827266719322215  0.2501143610393251  1.0000
  Fe  Fe29      1.0  0.13801492373362875  0.755568320827552  0.8915990525143024  1.0000
  S   S57       1.0  0.07871995729262778  0.7571868916491089  0.8926593420261193  1.0000
  S   S58       1.0  0.20035168225830083  0.8101343683242441  0.8809006080536417  1.0000
  Fe  Fe30      1.0  0.09697241397843451  0.6641154045589917  0.9093364091221791  1.0000
  S   S59       1.0  0.03424454464054216  0.6580004249920608  0.9113071795671702  1.0000
  S   S60       1.0  0.11243055098469151  0.6134016362743119  0.9189166939696785  1.0000
  Fe  Fe31      1.0  0.05436201909276114  0.6990173817255649  0.8602006752913165  1.0000
  S   S61       1.0  0.011075042950202443  0.6865027012207188  0.8117061936096174  1.0000
  Fe  Fe32      1.0  0.06412684150076764  0.7164654767879728  0.9437396425226581  1.0000
  S   S62       1.0  0.02998415069364374  0.7215786033257057  0.9939754367601078  1.0000
  S   S63       1.0  0.11474846770669211  0.7002076557145432  0.8551788948503958  1.0000
  S   S64       1.0  0.12567666821011206  0.7195560822959428  0.9457229480786578  1.0000
  Fe  Fe33      1.0  0.9737109866322706  0.6857118164505454  0.5750942217547902  1.0000
  S   S65       1.0  0.028353054550904755  0.7486764365945763  0.5758940182764705  1.0000
  S   S66       1.0  0.9068947061327989  0.6662243558793958  0.5852458534155454  1.0000
  Fe  Fe34      1.0  0.02423847479485408  0.6453202595384928  0.5536360995976031  1.0000
  S   S67       1.0  0.08375722551736708  0.7043689459733719  0.5536596641065824  1.0000
  S   S68       1.0  0.010819191225776015  0.5811914826664285  0.5403936640614075  1.0000
  Fe  Fe35      1.0  0.059770759942135765  0.7186409588958462  0.6060770652869765  1.0000
  S   S69       1.0  0.10153747316208639  0.7502728901524967  0.655123478142166  1.0000
  Fe  Fe36      1.0  0.048164690731963944  0.7298694042550126  0.5235203388071045  1.0000
  S   S70       1.0  0.07704184973536354  0.7740327384528978  0.47512458428501936  1.0000
  S   S71       1.0  0.003644905978025914  0.6568199842925211  0.6092325257514297  1.0000
  S   S72       1.0  0.990300128163019  0.6698907142166374  0.5194761898851836  1.0000
  Fe  Fe37      1.0  0.2831353765930124  0.9959229297908241  0.7476942017202675  1.0000
  S   S73       1.0  0.3340379525212245  0.980725635285317  0.7458514480569539  1.0000
  S   S74       1.0  0.21944846715989197  0.950416978293415  0.7680928507353745  1.0000
  Fe  Fe38      1.0  0.3368950169986793  0.08088408613516565  0.7118437517838384  1.0000
  S   S75       1.0  0.3918313462842105  0.07158450035369866  0.7076059886085804  1.0000
  S   S76       1.0  0.3340983953714091  0.13714000473188628  0.6919476742136604  1.0000
  Fe  Fe39      1.0  0.34614952494109336  0.008760076818681295  0.6881265443958972  1.0000
  S   S77       1.0  0.3509943707413151  0.9738438528772473  0.6393240183965522  1.0000
  Fe  Fe40      1.0  0.37388403094882017  0.044759654320682296  0.7661434848861504  1.0000
  S   S78       1.0  0.41924200720532306  0.053971603390040375  0.8126934075257017  1.0000
  S   S79       1.0  0.2924565752073679  0.019677183990617575  0.688220891386403  1.0000
  S   S80       1.0  0.32171341951880617  0.05820544249219631  0.7718298992392786  1.0000
  Fe  Fe41      1.0  0.35725261434119193  0.9653899109111918  0.38477245919541964  1.0000
  S   S81       1.0  0.35388424682338065  0.02355375085939171  0.38461548733316275  1.0000
  S   S82       1.0  0.3026448488442394  0.9031257594757358  0.3751203390579408  1.0000
  Fe  Fe42      1.0  0.44852719687246567  0.008556463047184826  0.403926817328445  1.0000
  S   S83       1.0  0.45265888301658214  0.07026798211913765  0.40450399439642054  1.0000
  S   S84       1.0  0.5003026099992176  0.9951385442775904  0.4161369927703789  1.0000
  Fe  Fe43      1.0  0.39312537427215766  0.03885444348138711  0.4363126666503605  1.0000
  S   S85       1.0  0.3834559785464363  0.07087342762882343  0.48557933215391097  1.0000
  Fe  Fe44      1.0  0.4131594881983843  0.04921743352346808  0.35272884293719603  1.0000
  S   S86       1.0  0.4258417202402474  0.09225685548650508  0.30348987257945637  1.0000
  S   S87       1.0  0.3917392300830037  0.9783424446799248  0.4394186932023323  1.0000
  S   S88       1.0  0.4140407394232822  0.9899320068441186  0.3491924542892551  1.0000
  Fe  Fe45      1.0  0.4001815333833722  0.08904714658374861  0.01929517871247565  1.0000
  S   S89       1.0  0.4633726444768705  0.14270863638322753  0.021150694793661575  1.0000
  S   S90       1.0  0.3609184931866144  0.08489934119561743  0.9696621786195024  1.0000
  Fe  Fe46      1.0  0.4079116246449332  0.05865510260851648  0.09692576508899438  1.0000
  S   S91       1.0  0.4722918236652159  0.10993746951582406  0.1043678991642138  1.0000
  S   S92       1.0  0.37626040169246305  0.011022467734454588  0.14260338200348086  1.0000
  Fe  Fe47      1.0  0.4475831111771688  0.1495001979843869  0.08062795777488573  1.0000
  S   S93       1.0  0.4634531837926759  0.21248909467090582  0.10126451878982827  1.0000
  Fe  Fe48      1.0  0.4812532982643946  0.0975968336928241  0.04432400840393538  1.0000
  S   S94       1.0  0.54068319913442  0.10020280888356306  0.02677999927825716  1.0000
  S   S95       1.0  0.3826743608641151  0.09898737994600523  0.07692498115782813  1.0000
  S   S96       1.0  0.4185996729695833  0.042990717262264555  0.03852242034002727  1.0000
  Fe  Fe49      1.0  0.8138775403833312  0.07765657587937386  0.19387873227889635  1.0000
  S   S97       1.0  0.7592098354295493  0.08742811769548116  0.1948364296328387  1.0000
  S   S98       1.0  0.8775171345402342  0.1234433962757183  0.17365516385685792  1.0000
  Fe  Fe50      1.0  0.7656416018018273  0.9908872845350841  0.2261406030000506  1.0000
  S   S99       1.0  0.7069324689544595  0.9934138588661682  0.22915150399935075  1.0000
  S   S100      1.0  0.7732155876864497  0.9362663133096907  0.2416867656285628  1.0000
  Fe  Fe51      1.0  0.724850496140007  0.02387131704747736  0.17223566684409242  1.0000
  S   S101      1.0  0.6766732753778686  0.007637250995697009  0.12727431626943234  1.0000
  Fe  Fe52      1.0  0.7465774419389462  0.05639485526987431  0.2515386661048295  1.0000
  S   S102      1.0  0.7256573930266671  0.08037113520573227  0.299547203452081  1.0000
  S   S103      1.0  0.7803416187725407  0.015888858250621807  0.1670375334996803  1.0000
  S   S104      1.0  0.8042827304064856  0.05194200998800258  0.2527932808127005  1.0000
  Fe  Fe53      1.0  0.7828734487302892  0.13154062068464606  0.560865110040654  1.0000
  S   S105      1.0  0.7827813325146294  0.071718830581453  0.561237255607168  1.0000
  S   S106      1.0  0.8382830547290242  0.1932181793649259  0.5721933078881394  1.0000
  Fe  Fe54      1.0  0.6911175998826515  0.09116244411074761  0.5424059508229466  1.0000
  S   S107      1.0  0.6838534844870978  0.02804682777982381  0.5422629171319687  1.0000
  S   S108      1.0  0.6393384958408413  0.10518543178022827  0.5316538456967798  1.0000
  Fe  Fe55      1.0  0.7238955083991238  0.04816834366469003  0.5935135057826788  1.0000
  S   S109      1.0  0.7145880729680724  0.006213856934114137  0.6430029502143852  1.0000
  Fe  Fe56      1.0  0.7429528935355879  0.05717305435979854  0.5097813576639845  1.0000
  S   S110      1.0  0.7511750899871313  0.023143686405237455  0.4613164519160708  1.0000
  S   S111      1.0  0.7265142392161091  0.10913937106462243  0.5967956343538133  1.0000
  S   S112      1.0  0.7479263042623364  0.11938798459685145  0.5065070770116168  1.0000
  Fe  Fe57      1.0  0.6452768635308288  0.9276429810330227  0.8698298951742781  1.0000
  S   S113      1.0  0.7014126702640712  0.9883757262579005  0.8592376788937154  1.0000
  S   S114      1.0  0.6374745789532784  0.865811068847855  0.8537493014797987  1.0000
  Fe  Fe58      1.0  0.6000554285286183  0.9666307350883552  0.9097275108609542  1.0000
  S   S115      1.0  0.6525653035278141  0.029946754993601  0.9019090309511973  1.0000
  S   S116      1.0  0.5402954860174343  0.9556248313470915  0.9357933353206047  1.0000
  Fe  Fe59      1.0  0.6565059200269321  0.00986587795046856  0.8436907612063598  1.0000
  S   S117      1.0  0.6590987968646969  0.05033992858005654  0.7951920871335659  1.0000
  Fe  Fe60      1.0  0.6916190457556667  0.002156580707334932  0.918578330723951  1.0000
  S   S118      1.0  0.7432959760949499  0.03285096635732909  0.9599949765120509  1.0000
  S   S119      1.0  0.6009342876527021  0.9482366450797471  0.8499182619245927  1.0000
  S   S120      1.0  0.6387484063536155  0.9397726175037421  0.9306339442128417  1.0000
  Fe  Fe61      1.0  0.36050222977295504  0.3788888223369199  0.18883147447359394  1.0000
  S   S121      1.0  0.303127654495019  0.31833490781972773  0.1895327488229899  1.0000
  S   S122      1.0  0.37209497081749676  0.4221757279187289  0.1402877015717572  1.0000
  Fe  Fe62      1.0  0.38448056613961945  0.3677592664702001  0.26843758699134707  1.0000
  S   S123      1.0  0.32867379337127206  0.3060365054230683  0.2750356076730108  1.0000
  S   S124      1.0  0.4304663248926964  0.4006340443992478  0.314802552888329  1.0000
  Fe  Fe63      1.0  0.342962124577119  0.29542595086673606  0.21605438188321338  1.0000
  S   S125      1.0  0.3348343064205787  0.23326504866941697  0.20162596253756326  1.0000
  Fe  Fe64      1.0  0.2947446516995963  0.3351017920247738  0.24801089150136282  1.0000
  S   S126      1.0  0.23212819346787422  0.3226636902517027  0.26757142300135867  1.0000
  S   S127      1.0  0.4015310198635123  0.35529435049778807  0.21120407880197486  1.0000
  S   S128      1.0  0.3494077481244825  0.39758574175859396  0.24531816916880334  1.0000
  Fe  Fe65      1.0  0.4521990585175707  0.48598058646042236  0.9062486034703574  1.0000
  S   S129      1.0  0.45842271991150807  0.4295299476976719  0.9084410114421233  1.0000
  S   S130      1.0  0.5023113173558182  0.5484293155931348  0.9236108570257312  1.0000
  Fe  Fe66      1.0  0.3655881759268453  0.4399310357720973  0.8732283167023406  1.0000
  S   S131      1.0  0.3652279173327472  0.37987247681472835  0.8737345657856825  1.0000
  S   S132      1.0  0.3141936179817583  0.44936791263892345  0.8503502177108831  1.0000
  Fe  Fe67      1.0  0.3941324518560075  0.39874205816247515  0.9310397259715896  1.0000
  S   S133      1.0  0.3793080981645915  0.35409239402783604  0.9798655796377702  1.0000
  Fe  Fe68      1.0  0.4292582986099725  0.4167456547630071  0.8513187422946834  1.0000
  S   S134      1.0  0.45413352724154715  0.3940813219603087  0.8054675143142428  1.0000
  S   S135      1.0  0.389476807343769  0.4563431732072122  0.93229481316247  1.0000
  S   S136      1.0  0.42808977798304665  0.475751671036997  0.8471089399893061  1.0000
  Fe  Fe69      1.0  0.4246653302559584  0.3505953123297451  0.5213368429197152  1.0000
  S   S137      1.0  0.48434643729286775  0.35005945211336487  0.5206252191489636  1.0000
  S   S138      1.0  0.3790430952789918  0.3161819196189406  0.47577839194433835  1.0000
  Fe  Fe70      1.0  0.4453222785162905  0.3979674598958657  0.5944295455780001  1.0000
  S   S139      1.0  0.5064674051436467  0.4008693116711445  0.5991430847287124  1.0000
  S   S140      1.0  0.42738629233649966  0.4309409690809989  0.6363684956884625  1.0000
  Fe  Fe71      1.0  0.5118071601757512  0.4158216558847299  0.5373043173501217  1.0000
  S   S141      1.0  0.5718533793438075  0.46729184118266964  0.5154721951325986  1.0000
  Fe  Fe72      1.0  0.4723060643397467  0.33490951091395316  0.5823572992505454  1.0000
  S   S142      1.0  0.4831561385976356  0.28527905428357825  0.6077386446397848  1.0000
  S   S143      1.0  0.45269855634217754  0.4174670828758334  0.5337013653287552  1.0000
  S   S144      1.0  0.4104209119693182  0.33091253244231816  0.5818792827749075  1.0000
  C   C1        1.0  0.44796190052410695  0.40594933363867414  0.7586392897324686  1.0000
  C   C2        1.0  0.4580486363284047  0.3878705364760108  0.729209579368929  1.0000
  C   C3        1.0  0.45223600744156567  0.3957727906022724  0.6915716834382167  1.0000
  C   C4        1.0  0.43673866006166745  0.42221554844984277  0.6831844855585633  1.0000
  C   C5        1.0  0.4271821191988695  0.44078708921084825  0.7125556676034569  1.0000
  C   C6        1.0  0.43250409086747593  0.4324449981847716  0.7502343880805504  1.0000
  H   H1        1.0  0.4697872576463415  0.36713716719374323  0.7355317867654529  1.0000
  H   H2        1.0  0.45905489929074006  0.38071202082582384  0.6691999377874657  1.0000
  H   H3        1.0  0.4150467090126365  0.4611630588744708  0.7061894509697562  1.0000
  H   H4        1.0  0.42442346878347154  0.4463666810848749  0.7726548796610003  1.0000
  C   C7        1.0  0.37125610783045654  0.4012163113283159  0.09611059564925574  1.0000
  C   C8        1.0  0.3737578331681053  0.36531909094852005  0.09295620238566112  1.0000
  C   C9        1.0  0.37552276088244996  0.3505936208071644  0.057154210969122536  1.0000
  C   C10       1.0  0.3747251445002058  0.3716517733820097  0.024469185704322032  1.0000
  C   C11       1.0  0.3711024472095212  0.4068792255972852  0.027864960218504667  1.0000
  C   C12       1.0  0.3696508527170388  0.4217803613713388  0.06353082231682736  1.0000
  H   H5        1.0  0.3748807176613116  0.3491741870024358  0.118043103762566  1.0000
  H   H6        1.0  0.37793726276238276  0.32310645521743353  0.05486361507398845  1.0000
  H   H7        1.0  0.3693921970003685  0.42273841991247146  0.0030786473508813954  1.0000
  H   H8        1.0  0.3673627950855645  0.44936845386696855  0.0658255622412984  1.0000
  C   C13       1.0  0.39543916747583674  0.3392238320114349  0.43116587972855663  1.0000
  C   C14       1.0  0.37733812996664623  0.31650846895887486  0.3987954830794705  1.0000
  C   C15       1.0  0.38885754096417097  0.3348956281510451  0.3629989058969083  1.0000
  C   C16       1.0  0.4176699005947175  0.3763639853909744  0.35936773268151617  1.0000
  C   C17       1.0  0.43593187194209676  0.39903925481780433  0.39181762707748835  1.0000
  C   C18       1.0  0.4251015228738191  0.3804275340220187  0.4276101234525619  1.0000
  H   H9        1.0  0.35457028919579303  0.2845546873065517  0.40137002611449635  1.0000
  H   H10       1.0  0.3756041339346222  0.3168077882418634  0.3382905930674952  1.0000
  H   H11       1.0  0.4579233333026201  0.43119450789790664  0.38951352239199794  1.0000
  H   H12       1.0  0.439176472620624  0.39821051013163034  0.4524500286517286  1.0000
  C   C19       1.0  0.6970136425429119  0.017301967257885128  0.6847068310374548  1.0000
  C   C20       1.0  0.6816972244129116  0.04471985788396893  0.6847684373368044  1.0000
  C   C21       1.0  0.6697132333308125  0.05454396186389352  0.7187891304554351  1.0000
  C   C22       1.0  0.6723710882955589  0.036437051700024536  0.7526868211538947  1.0000
  C   C23       1.0  0.6867746254927954  0.008313657288585796  0.7524707159179185  1.0000
  C   C24       1.0  0.699472209749939  0.9991248506437187  0.7186098619603553  1.0000
  H   H13       1.0  0.6788839843225503  0.05823771007976569  0.6586662374197654  1.0000
  H   H14       1.0  0.6582267440467378  0.07605809555115293  0.7188247845367565  1.0000
  H   H15       1.0  0.6888597913293004  0.9941793970385415  0.7784867829528975  1.0000
  H   H16       1.0  0.7119299294694332  0.9785040940077301  0.718944766540212  1.0000
  C   C25       1.0  0.733935460489747  0.06486819895735219  0.34418409397761923  1.0000
  C   C26       1.0  0.7460615249815223  0.03507607734473961  0.3479967271975415  1.0000
  C   C27       1.0  0.7515683006097054  0.022566473155820832  0.38404369735776517  1.0000
  C   C28       1.0  0.7443405260819599  0.03929747620641599  0.4163507985808849  1.0000
  C   C29       1.0  0.7316393969758661  0.0685920474639172  0.41238909195857126  1.0000
  C   C30       1.0  0.7270258111702181  0.0817577350054674  0.3764526077743278  1.0000
  H   H17       1.0  0.7513234760665974  0.021766061686167015  0.32321784790443175  1.0000
  H   H18       1.0  0.7617957436369402  0.00023400827846153976  0.38681691214985364  1.0000
  H   H19       1.0  0.7253767308080346  0.081218598009787  0.4369578440030924  1.0000
  H   H20       1.0  0.7182257952006448  0.10520838192593662  0.3737973651922815  1.0000
  C   C31       1.0  0.6956635515718357  0.01448163815294401  0.08096797250518607  1.0000
  C   C32       1.0  0.7376670281243357  0.03128135846136759  0.07389769525214913  1.0000
  C   C33       1.0  0.7520649433561066  0.03617679548045594  0.036682202372386306  1.0000
  C   C34       1.0  0.7246575193821597  0.025178519879998085  0.00642693717363028  1.0000
  C   C35       1.0  0.6827342831781839  0.008847916705493786  0.013489891003530834  1.0000
  C   C36       1.0  0.6682622996561466  0.0031071591266824683  0.050679068880775446  1.0000
  H   H21       1.0  0.7590654493363954  0.04040523588291722  0.0970324501957956  1.0000
  H   H22       1.0  0.784401425816216  0.048181830604927756  0.03131903888835303  1.0000
  H   H23       1.0  0.6613886077262413  0.0006568687221164549  0.9903308572563101  1.0000
  H   H24       1.0  0.6357722914964552  0.989587373954184  0.05588616580368054  1.0000
  C   C37       1.0  0.539697328572895  0.061242096283478105  0.9988164864782638  1.0000
  C   C38       1.0  0.5028221552106383  0.027133907087694586  0.9884703078971597  1.0000
  C   C39       1.0  0.5033042976768095  0.9948698028878574  0.9690650451618543  1.0000
  C   C40       1.0  0.5406025649886214  0.9966231122088283  0.9597731396017907  1.0000
  C   C41       1.0  0.5774120431611466  0.030899632726319126  0.9698271031323095  1.0000
  C   C42       1.0  0.5769453081751422  0.06325465836884266  0.9889045531852039  1.0000
  H   H25       1.0  0.47395372318589946  0.025246285495068133  0.9958785302880602  1.0000
  H   H26       1.0  0.4746929060858125  0.9683689270825373  0.9614214062445453  1.0000
  H   H27       1.0  0.6062860382368207  0.03219076457797487  0.9636977094841762  1.0000
  H   H28       1.0  0.6056124730906133  0.08953583801371581  0.9968097877360186  1.0000
  C   C43       1.0  0.4269739653376562  0.21806455340602082  0.1282538461930354  1.0000
  C   C44       1.0  0.43446375567716256  0.25736416327127815  0.1377535006170355  1.0000
  C   C45       1.0  0.405877798148482  0.26263929804644376  0.15928838519941607  1.0000
  C   C46       1.0  0.36962451706307137  0.2285582688562412  0.1714401035502451  1.0000
  C   C47       1.0  0.36186856586371846  0.1893664973542972  0.16137904385493798  1.0000
  C   C48       1.0  0.3904988070307856  0.18409453820384328  0.1400480153911214  1.0000
  H   H29       1.0  0.4626030033143941  0.2838073511844393  0.1286503594397716  1.0000
  H   H30       1.0  0.41217293557058166  0.29298478877043155  0.16687456011165916  1.0000
  H   H31       1.0  0.33388923450986707  0.16286053851222057  0.1707128674360316  1.0000
  H   H32       1.0  0.3845382899778933  0.15367951042627034  0.13333723202062528  1.0000
  C   C49       1.0  0.41141347179755794  0.06875717037010576  0.25919762135359076  1.0000
  C   C50       1.0  0.3880300646524816  0.02624588691068297  0.25591437246211973  1.0000
  C   C51       1.0  0.3770134380385748  0.00846493342793031  0.22008259084617474  1.0000
  C   C52       1.0  0.38891492222555374  0.03319243796679339  0.18752472607368728  1.0000
  C   C53       1.0  0.4113195704045606  0.07564773637690281  0.19099847372643938  1.0000
  C   C54       1.0  0.4230501577396647  0.09330685583559739  0.22661357203947743  1.0000
  H   H33       1.0  0.3784347481488518  0.0070675965931852325  0.2809026752680372  1.0000
  H   H34       1.0  0.3596457342860764  0.9756068750922676  0.21765475304583082  1.0000
  H   H35       1.0  0.419634933182994  0.0950433760908451  0.1662408466970023  1.0000
  H   H36       1.0  0.4413362560695167  0.12610141234088612  0.2287227683645496  1.0000
  C   C55       1.0  0.5383741652573867  0.025944446758958017  0.44851422283111786  1.0000
  C   C56       1.0  0.563449025907551  0.011595966297673677  0.4645102320081411  1.0000
  C   C57       1.0  0.5953156578384813  0.03618346298540609  0.4891438573433521  1.0000
  C   C58       1.0  0.601919824126984  0.07507750186924228  0.4984017415467038  1.0000
  C   C59       1.0  0.5768428830137498  0.0894549995503171  0.4823672120315881  1.0000
  C   C60       1.0  0.5452670206523199  0.06503959531041281  0.45733247212056305  1.0000
  H   H37       1.0  0.5582779046258023  0.9813519268022389  0.45779245891403647  1.0000
  H   H38       1.0  0.614252817910533  0.024703410770067876  0.5014732850461793  1.0000
  H   H39       1.0  0.5820471637079409  0.11968744127588034  0.48918236030298  1.0000
  H   H40       1.0  0.5265820047808321  0.0766505812195899  0.44462605089701457  1.0000
  C   C61       1.0  0.37677967925852246  0.17848689768038248  0.6701297258041216  1.0000
  C   C62       1.0  0.37521552980112144  0.21446847737254277  0.6621749220017207  1.0000
  C   C63       1.0  0.4080081788906167  0.24764350888652753  0.643785337378239  1.0000
  C   C64       1.0  0.44257229804459775  0.24502069889982295  0.6329123618299463  1.0000
  C   C65       1.0  0.4443702114322014  0.20918578151178102  0.6411644138182603  1.0000
  C   C66       1.0  0.41155575963942265  0.1759690276072709  0.6596729244680567  1.0000
  H   H41       1.0  0.34855483552958244  0.2167219235449577  0.6704500895015668  1.0000
  H   H42       1.0  0.4066781353131219  0.27536911091363914  0.6385474753469664  1.0000
  H   H43       1.0  0.4711220620693532  0.20701877734657723  0.6330480561269954  1.0000
  H   H44       1.0  0.41309907669477747  0.14842103865975928  0.6656362415915265  1.0000
  C   C67       1.0  0.35539988306507775  0.9998326556101671  0.5967150081894118  1.0000
  C   C68       1.0  0.3503584750636726  0.9795497585795797  0.5626479312904272  1.0000
  C   C69       1.0  0.35698441394854485  0.0008049409891335291  0.5283466984936195  1.0000
  C   C70       1.0  0.3696819395091363  0.04261269405288437  0.5279791398021504  1.0000
  C   C71       1.0  0.3734682160854558  0.0626150069343605  0.5620583496088942  1.0000
  C   C72       1.0  0.36613516259161155  0.04119999005879582  0.596410352053759  1.0000
  H   H45       1.0  0.34171771536775153  0.9474691429438744  0.5627908355501908  1.0000
  H   H46       1.0  0.3525267697537359  0.9848368241678314  0.5022710724322204  1.0000
  H   H47       1.0  0.38298533616905417  0.09487292746461162  0.5620485438748786  1.0000
  H   H48       1.0  0.3698639800343263  0.057005114605500395  0.6226585138359426  1.0000
  C   C73       1.0  0.407162945973165  0.06737794222459094  0.8563331574007675  1.0000
  C   C74       1.0  0.4219933885750674  0.05912020426657917  0.8898392281091995  1.0000
  C   C75       1.0  0.40943134167241885  0.06620726054507743  0.9249392588230035  1.0000
  C   C76       1.0  0.3817334435325884  0.0812415816945233  0.9265365860890487  1.0000
  C   C77       1.0  0.3682277489017751  0.09095598101475477  0.8931213733424079  1.0000
  C   C78       1.0  0.3812893914707487  0.08447779636746791  0.8581708278395495  1.0000
  H   H49       1.0  0.44227878221831013  0.046200436450313236  0.8887178281922095  1.0000
  H   H50       1.0  0.42019926455899625  0.05885542757745664  0.9506725813858543  1.0000
  H   H51       1.0  0.3473775761583947  0.10325943630852087  0.8941634789169808  1.0000
  H   H52       1.0  0.37141047404462496  0.09291654371075483  0.8326783327910608  1.0000
  C   C79       1.0  0.0366594482236098  0.7045721958120484  0.7684963282094864  1.0000
  C   C80       1.0  0.014045830350589483  0.6936731724908016  0.7350515692017529  1.0000
  C   C81       1.0  0.033723612952073045  0.7085947404626847  0.7003122170543624  1.0000
  C   C82       1.0  0.07631086234950146  0.7332896455725808  0.6987099585258347  1.0000
  C   C83       1.0  0.09895858105022332  0.7443860093682133  0.7322062503491001  1.0000
  C   C84       1.0  0.0791069715526353  0.730434357563625  0.7670951399683198  1.0000
  H   H53       1.0  0.9812394712731141  0.6735613504592879  0.7359466794508853  1.0000
  H   H54       1.0  0.015837648817233818  0.7009568250645976  0.6748453028144067  1.0000
  H   H55       1.0  0.13188733911944625  0.7632235010684291  0.7312536054964737  1.0000
  H   H56       1.0  0.09673433876274205  0.7395918437292793  0.7928078236472981  1.0000
  C   C85       1.0  0.21404560464693306  0.9097764586565052  0.7973844524707838  1.0000
  C   C86       1.0  0.174802687090824  0.8796320372620373  0.8087389023328879  1.0000
  C   C87       1.0  0.16995885838915076  0.8477286599266967  0.8331669433201457  1.0000
  C   C88       1.0  0.20443406446818033  0.846053034685463  0.8464495199835669  1.0000
  C   C89       1.0  0.24351642620426928  0.8754808736164676  0.8341566300853009  1.0000
  C   C90       1.0  0.2483040276612203  0.9072062839220087  0.8097185244745569  1.0000
  H   H57       1.0  0.148124103911316  0.8812966302559694  0.7991038490300021  1.0000
  H   H58       1.0  0.13969553711841567  0.8250943379020494  0.8424509194025105  1.0000
  H   H59       1.0  0.27025264913149016  0.8741588533444389  0.8442210519750599  1.0000
  H   H60       1.0  0.27863345694992386  0.93013380249984  0.8012144429048904  1.0000
  C   C91       1.0  0.10671562798375232  0.7612277550006729  0.1012228806487862  1.0000
  C   C92       1.0  0.06419400196675042  0.7451563387732733  0.10301787804176772  1.0000
  C   C93       1.0  0.04083249698474001  0.7339138368180292  0.06987578921298458  1.0000
  C   C94       1.0  0.06001440925677842  0.7394572728369526  0.03481379985909989  1.0000
  C   C95       1.0  0.1026883994188055  0.7571372267505797  0.032984569707976405  1.0000
  C   C96       1.0  0.125977139122837  0.7676139741694642  0.06614811204502588  1.0000
  H   H61       1.0  0.049127016927307476  0.740315030529375  0.12998333202736848  1.0000
  H   H62       1.0  0.007841808427659244  0.7200081067770424  0.07163184796563332  1.0000
  H   H63       1.0  0.1178437506538696  0.7627219625512378  0.006058948559903742  1.0000
  H   H64       1.0  0.15890777892797678  0.780400240657429  0.06461127550774856  1.0000
  C   C97       1.0  0.06192612528924579  0.7151461136702996  0.3599357791352103  1.0000
  C   C98       1.0  0.08121374542639326  0.7576444633252611  0.3632970846823258  1.0000
  C   C99       1.0  0.08571006758069544  0.7753783413420668  0.3987411524391059  1.0000
  C   C100      1.0  0.07181906753172806  0.7507916668278338  0.43120297822965237  1.0000
  C   C101      1.0  0.05391769938501123  0.7082863686394728  0.4281056993430374  1.0000
  C   C102      1.0  0.04877477139799358  0.6904578419714469  0.3924628010246  1.0000
  H   H65       1.0  0.0926014580996104  0.7769931513700346  0.3385667648620047  1.0000
  H   H66       1.0  0.0994166944683128  0.8081874468711929  0.4008028621103476  1.0000
  H   H67       1.0  0.04377608702636926  0.6891345683588058  0.4530716907863746  1.0000
  H   H68       1.0  0.034001831479046674  0.6575825651621195  0.3901003715536865  1.0000
  C   C103      1.0  0.1971477743928701  0.8959718708110581  0.30398504395369014  1.0000
  C   C104      1.0  0.23192274187248604  0.9339195579557501  0.3102360097867835  1.0000
  C   C105      1.0  0.26537618487527176  0.9363087422288671  0.330535648217375  1.0000
  C   C106      1.0  0.2639132192662011  0.9007736951791717  0.34513688440579365  1.0000
  C   C107      1.0  0.2293417746510774  0.8628068258968695  0.3384224085857482  1.0000
  C   C108      1.0  0.1959288362629584  0.8604198659716955  0.3181507326783736  1.0000
  H   H69       1.0  0.23302986768704687  0.9615363771936981  0.29929621161142095  1.0000
  H   H70       1.0  0.29195669509722877  0.9656971433239063  0.3353052162534167  1.0000
  H   H71       1.0  0.22800477883623443  0.8351683132085931  0.349573214295084  1.0000
  H   H72       1.0  0.16891768650132316  0.8311238032644696  0.3142456618357412  1.0000
  C   C109      1.0  0.10408070177198774  0.5667304923844072  0.4684753988032675  1.0000
  C   C110      1.0  0.06581378470483368  0.5330611557070785  0.47654196770414475  1.0000
  C   C111      1.0  0.03723977979728077  0.5378889300065361  0.49836231351215576  1.0000
  C   C112      1.0  0.04651732550457477  0.5765123905967224  0.511681853708778  1.0000
  C   C113      1.0  0.08436138342522614  0.61037060366695  0.5027647775222411  1.0000
  C   C114      1.0  0.11315559196508349  0.6054295235270272  0.4813781017125935  1.0000
  H   H73       1.0  0.05846206533126752  0.5031135814879473  0.4667500827371809  1.0000
  H   H74       1.0  0.007972952529778699  0.5115750053709714  0.505137507628076  1.0000
  H   H75       1.0  0.09177109723295618  0.6402777184301433  0.512832124419177  1.0000
  H   H76       1.0  0.14268712111760704  0.6316554309982481  0.47513364592609286  1.0000
  C   C115      1.0  0.22190022666877887  0.41658106023520514  0.34142410236440013  1.0000
  C   C116      1.0  0.2597728693873912  0.4254691423097845  0.32576290269580627  1.0000
  C   C117      1.0  0.26300400145134073  0.3972365941955137  0.302397587146793  1.0000
  C   C118      1.0  0.22848652964092864  0.35969074649094  0.2948865937852785  1.0000
  C   C119      1.0  0.1903629803214771  0.3511798107574615  0.30974070941942333  1.0000
  C   C120      1.0  0.18703192997339674  0.3795906659866916  0.33291741644804773  1.0000
  H   H77       1.0  0.2867897426023366  0.45419376063910877  0.33203116722407544  1.0000
  H   H78       1.0  0.292374851779614  0.4043738944714922  0.2908527595422068  1.0000
  H   H79       1.0  0.16344134853767142  0.32223111988230124  0.3038959016587077  1.0000
  H   H80       1.0  0.15774602792449996  0.37234405541805216  0.34503305325062095  1.0000
  C   C121      1.0  0.2731937455861901  0.40881677416841494  0.8269285815169729  1.0000
  C   C122      1.0  0.24897884533112818  0.4173489418867647  0.8020732517931536  1.0000
  C   C123      1.0  0.2146969072361676  0.38547231307703184  0.7845175394029773  1.0000
  C   C124      1.0  0.20425492456855518  0.34481091934855457  0.7919092307962061  1.0000
  C   C125      1.0  0.22861060432795005  0.33628922982820186  0.8166891445320005  1.0000
  C   C126      1.0  0.2629788809232659  0.36817833272556644  0.834161957998444  1.0000
  H   H81       1.0  0.2567143663749547  0.4487465971185452  0.7963763709315458  1.0000
  H   H82       1.0  0.19656350184731092  0.392430637542719  0.7650811218287009  1.0000
  H   H83       1.0  0.22048128168514614  0.30485428046009555  0.8227666860629901  1.0000
  H   H84       1.0  0.28091608061348805  0.36124455760218077  0.8538828310688287  1.0000
  C   C127      1.0  0.09951974908415094  0.38638786614330095  0.5894125451094585  1.0000
  C   C128      1.0  0.05687685185964608  0.36826122901993547  0.5863154578109662  1.0000
  C   C129      1.0  0.03841376045794862  0.3598792956356604  0.5505968012753163  1.0000
  C   C130      1.0  0.06244535699462929  0.36888889727672336  0.5179605225454842  1.0000
  C   C131      1.0  0.10486799984538633  0.38526654839163027  0.5212358148535619  1.0000
  C   C132      1.0  0.12340221899683994  0.3944207814352074  0.5568530228581534  1.0000
  H   H85       1.0  0.03832731750725604  0.3624122072357945  0.6113560498420476  1.0000
  H   H86       1.0  0.0057371411125750615  0.34809156569740385  0.5483263516695297  1.0000
  H   H87       1.0  0.12348581854715018  0.39101456879714724  0.49633195619461606  1.0000
  H   H88       1.0  0.1563732487082156  0.4080441881098718  0.5591742176370512  1.0000
  C   C133      1.0  0.9410251733433346  0.2070168014486551  0.6517425170602549  1.0000
  C   C134      1.0  0.9371246138667698  0.24099177861635807  0.6410544346358351  1.0000
  C   C135      1.0  0.9051456360666534  0.23623767738168674  0.6169889552163168  1.0000
  C   C136      1.0  0.8770385408472539  0.19759250629150582  0.6032928779637734  1.0000
  C   C137      1.0  0.881140581426418  0.16364318855414278  0.61366977463545  1.0000
  C   C138      1.0  0.9129174294893531  0.16834096318205788  0.6379837365709431  1.0000
  H   H89       1.0  0.958607046806465  0.2708926035147556  0.6514628895764811  1.0000
  H   H90       1.0  0.9022047753478053  0.2626582031383459  0.6089670018078649  1.0000
  H   H91       1.0  0.8601547814102726  0.13385283855405103  0.6026449255246386  1.0000
  H   H92       1.0  0.9159907267002044  0.14198464792945872  0.6459736674581863  1.0000
  C   C139      1.0  0.03491638040675715  0.35964795426173113  0.847379944642833  1.0000
  C   C140      1.0  0.05884039751118464  0.3410867842760282  0.8548236561929051  1.0000
  C   C141      1.0  0.06831000820382327  0.33600205261163396  0.8920997606982549  1.0000
  C   C142      1.0  0.055341540748073514  0.3508433428367399  0.9221304899417903  1.0000
  C   C143      1.0  0.030943565587544963  0.3689842074994456  0.9147902203267236  1.0000
  C   C144      1.0  0.020270601766916974  0.3728121148186306  0.8774864342955478  1.0000
  H   H93       1.0  0.07013176498953366  0.33063612336648945  0.8318815664534273  1.0000
  H   H94       1.0  0.08582204788895265  0.32053567260549837  0.8975011737481116  1.0000
  H   H95       1.0  0.02049419056011348  0.3802404157390388  0.9377454075981785  1.0000
  H   H96       1.0  0.000818018512953822  0.386147885469375  0.8718885146767518  1.0000
  C   C145      1.0  0.06501112673749487  0.43293569365739654  0.2584586047493874  1.0000
  C   C146      1.0  0.09282786286018485  0.41802649196431446  0.25878375569481804  1.0000
  C   C147      1.0  0.10378078897179766  0.4068598448379571  0.22486058773573575  1.0000
  C   C148      1.0  0.08730375327482531  0.41092520737420674  0.19051270473831183  1.0000
  C   C149      1.0  0.06054813242751744  0.42707319594682214  0.19022002804391142  1.0000
  C   C150      1.0  0.049193968998318946  0.43775294522014235  0.22410306809186495  1.0000
  H   H97       1.0  0.10528940223043226  0.41435144978301586  0.285212722403122  1.0000
  H   H98       1.0  0.12435380655638628  0.39430470041283044  0.22547254779230927  1.0000
  H   H99       1.0  0.048715570546060905  0.43159119048034916  0.1638984841436252  1.0000
  H   H100      1.0  0.028041333863157554  0.44972984847021075  0.22368038096662285  1.0000
  C   C151      1.0  0.8988190114894797  0.2382251541131342  0.1086114544201927  1.0000
  C   C152      1.0  0.8608069911061794  0.213212663928889  0.12589156537331936  1.0000
  C   C153      1.0  0.8539267040148932  0.17794993006351426  0.14606486749816203  1.0000
  C   C154      1.0  0.8850422131567123  0.16752982407791264  0.14901661472471575  1.0000
  C   C155      1.0  0.9230967656839268  0.1926626086227721  0.13184895608122396  1.0000
  C   C156      1.0  0.929917502676781  0.22779488706451242  0.11148499861923454  1.0000
  H   H101      1.0  0.8366476765153209  0.2212150346476926  0.12387509808934409  1.0000
  H   H102      1.0  0.8246291211829899  0.15894896353214386  0.15937567219415802  1.0000
  H   H103      1.0  0.9471993412283443  0.1845798375302324  0.1339404359015685  1.0000
  H   H104      1.0  0.9591137168395099  0.24654276842904657  0.09781270273040406  1.0000
  C   C157      1.0  0.03434079829995795  0.5116790421999255  0.0028514165874801343  1.0000
  C   C158      1.0  0.07309280924688233  0.5181229855622925  0.9923226992506936  1.0000
  C   C159      1.0  0.0970131367411224  0.5496291668274395  0.9666459942154388  1.0000
  C   C160      1.0  0.0820787976774622  0.5744652196623368  0.9511555449397046  1.0000
  C   C161      1.0  0.04298101424256284  0.5673594453861519  0.9610217867228027  1.0000
  C   C162      1.0  0.01928993506480281  0.5362138653308899  0.9869931774579918  1.0000
  H   H105      1.0  0.08501552435174387  0.4995160245156888  0.004656926346489473  1.0000
  H   H106      1.0  0.12731675709218096  0.5550484418119642  0.9591225062946858  1.0000
  H   H107      1.0  0.03093685080706976  0.5858239533645156  0.9486773058388782  1.0000
  H   H108      1.0  0.9891639422099594  0.531089360730467  0.9948689750109764  1.0000
  C   C163      1.0  0.8696619208070995  0.6840455329544675  0.13227148080881113  1.0000
  C   C164      1.0  0.867915556896819  0.7190728557144226  0.14233048760620454  1.0000
  C   C165      1.0  0.9002064226676291  0.7501234187884045  0.16243760974343308  1.0000
  C   C166      1.0  0.9341004395018085  0.7460219890216332  0.17343593247996394  1.0000
  C   C167      1.0  0.9361423508773389  0.7111422102299285  0.16314870478262783  1.0000
  C   C168      1.0  0.9039574353467429  0.6802162942364565  0.14256551403951137  1.0000
  H   H109      1.0  0.8413811289862388  0.7220294824587162  0.1353091757446431  1.0000
  H   H110      1.0  0.8984989684450286  0.7771212188524829  0.17007423942192673  1.0000
  H   H111      1.0  0.9620511245562822  0.7075975056209686  0.17162234293739925  1.0000
  H   H112      1.0  0.905453679918826  0.6531084360107903  0.13491254417472548  1.0000
  C   C169      1.0  0.6067286443732051  0.558280653207789  0.9985524798876064  1.0000
  C   C170      1.0  0.60485416155367  0.5933767105736587  0.9878060035493903  1.0000
  C   C171      1.0  0.5731443685514772  0.590161931690543  0.9641283880945513  1.0000
  C   C172      1.0  0.5432133445307697  0.5519003100495866  0.9511505377672224  1.0000
  C   C173      1.0  0.5462172717143049  0.5171506264993618  0.9605852883553615  1.0000
  C   C174      1.0  0.5778735650640859  0.5203339128463962  0.9841551444117711  1.0000
  H   H113      1.0  0.62694400179348  0.6227732017783609  0.9986905701310502  1.0000
  H   H114      1.0  0.5712195762009106  0.6172746637404769  0.9566702749648369  1.0000
  H   H115      1.0  0.5237254378717666  0.48762756376496297  0.950494983851222  1.0000
  H   H116      1.0  0.5794173944650908  0.49311733258643786  0.9920598202770924  1.0000
  C   C175      1.0  0.6741098633769206  0.8321822262526618  0.31197236942294115  1.0000
  C   C176      1.0  0.6704316001067469  0.8668509154273291  0.3032543215908096  1.0000
  C   C177      1.0  0.7010942999859012  0.8993864044355774  0.28236308744856453  1.0000
  C   C178      1.0  0.7353482979582645  0.8971703547349018  0.26973636782195615  1.0000
  C   C179      1.0  0.7387103090754145  0.8622406655880435  0.2780071526996516  1.0000
  C   C180      1.0  0.7080636724822809  0.8297187663694009  0.2988578093809372  1.0000
  H   H117      1.0  0.644085218271098  0.8688052178998811  0.31314439648397313  1.0000
  H   H118      1.0  0.6982032931373995  0.9261318969614529  0.27612757539753097  1.0000
  H   H119      1.0  0.7650863858193759  0.8602585333088884  0.26825871097297677  1.0000
  H   H120      1.0  0.7107951148450489  0.802807752910931  0.3047617160391582  1.0000
  C   C181      1.0  0.7324037104756649  0.7024587566286945  0.2634431686040448  1.0000
  C   C182      1.0  0.7095220605270574  0.722248069209523  0.2561545200244604  1.0000
  C   C183      1.0  0.7021185401923173  0.7298091617355974  0.21886745621366802  1.0000
  C   C184      1.0  0.718008900317265  0.7181297436920083  0.18866417038766845  1.0000
  C   C185      1.0  0.7413739191104673  0.6988414573922057  0.19594012831987434  1.0000
  C   C186      1.0  0.7483304168191487  0.6908038314366014  0.23323268166749983  1.0000
  H   H121      1.0  0.6974148879203798  0.7316955813341709  0.2792145821628236  1.0000
  H   H122      1.0  0.6835471911351263  0.7441869994682898  0.21351955259361471  1.0000
  H   H123      1.0  0.7540274939480102  0.6900040615501265  0.1728446102896948  1.0000
  H   H124      1.0  0.7655305027643148  0.6749880794957297  0.2385074385250667  1.0000
  C   C187      1.0  0.5689242130397332  0.5670496783629738  0.44181650567716446  1.0000
  C   C188      1.0  0.5324830677120185  0.530985497429826  0.45013064216777526  1.0000
  C   C189      1.0  0.5331555229400226  0.49992124732323806  0.4721140978375239  1.0000
  C   C190      1.0  0.5702216786952907  0.504973372571341  0.4864959597377448  1.0000
  C   C191      1.0  0.606660465505427  0.5411155516205706  0.47838828235472197  1.0000
  C   C192      1.0  0.6060402443181949  0.572079560369996  0.4560837075203791  1.0000
  H   H125      1.0  0.5035853924813957  0.5269581320309107  0.43944899887955047  1.0000
  H   H126      1.0  0.5050139121302326  0.4720093956725824  0.4776238820105965  1.0000
  H   H127      1.0  0.6354632880061587  0.5452143438223249  0.4894195076853961  1.0000
  H   H128      1.0  0.6342703362516906  0.599735074141881  0.4499511078877506  1.0000
  C   C193      1.0  0.6912303798267351  0.6988451489855567  0.5910853669284337  1.0000
  C   C194      1.0  0.6806817629796845  0.6782089683560998  0.556703426897161  1.0000
  C   C195      1.0  0.6926272028069904  0.7002535062962995  0.522528480466254  1.0000
  C   C196      1.0  0.7154700432656423  0.7429505193598144  0.5227316880841536  1.0000
  C   C197      1.0  0.7248840481823752  0.7635688567735901  0.5570506090047864  1.0000
  C   C198      1.0  0.7123473352694107  0.7415738534727219  0.591130396515158  1.0000
  H   H129      1.0  0.6643115368650371  0.6451633658177565  0.5564266476384142  1.0000
  H   H130      1.0  0.6851134737290208  0.6841425813776718  0.4961037684228084  1.0000
  H   H131      1.0  0.7420968526085855  0.7966097390873035  0.5572984353970001  1.0000
  H   H132      1.0  0.7193303065718989  0.7577165281429014  0.6174284831206245  1.0000
  C   C199      1.0  0.7229171085166147  0.6848733860442762  0.8615273974151492  1.0000
  C   C200      1.0  0.7032980548349775  0.6713231567260406  0.896491744553398  1.0000
  C   C201      1.0  0.7251269506535005  0.6872806444728006  0.9299995950050981  1.0000
  C   C202      1.0  0.7664484243526185  0.7173168747537999  0.9285880763371295  1.0000
  C   C203      1.0  0.7862069390625483  0.7303296842778905  0.8937126186528628  1.0000
  C   C204      1.0  0.764638545000168  0.7136504998698044  0.8602960074071313  1.0000
  H   H133      1.0  0.6710068134550987  0.6491999795516596  0.8977996045353561  1.0000
  H   H134      1.0  0.7096885310943338  0.6769889484869109  0.9568576580997411  1.0000
  H   H135      1.0  0.818256572030768  0.753268082664109  0.8925355014969238  1.0000
  H   H136      1.0  0.7803567725133483  0.7231247036491002  0.8336322707596273  1.0000
  C   C205      1.0  0.8784830732035686  0.7320275728620519  0.6784842656060852  1.0000
  C   C206      1.0  0.8469816935534046  0.6970573007342191  0.6619986978276627  1.0000
  C   C207      1.0  0.8561116425790651  0.6764421840674649  0.6340433990733766  1.0000
  C   C208      1.0  0.8967471648877784  0.6906574406083648  0.6224782650365259  1.0000
  C   C209      1.0  0.9283222430157444  0.7251578978659377  0.6394820548886095  1.0000
  C   C210      1.0  0.9191865220961077  0.7458401585051645  0.6673202126042845  1.0000
  H   H137      1.0  0.8155773739160881  0.6859263474975008  0.6707187649587342  1.0000
  H   H138      1.0  0.8315768059300734  0.6495340860421148  0.6212283749383644  1.0000
  H   H139      1.0  0.9597487015636714  0.7363189458615752  0.6307853189826319  1.0000
  H   H140      1.0  0.9437455153498447  0.7729783454342377  0.6797301748850546  1.0000
  C   C211      1.0  0.7214578166252651  0.8524009496728616  0.7682294153255115  1.0000
  C   C212      1.0  0.6868314172129852  0.818036820951152  0.7824631048588725  1.0000
  C   C213      1.0  0.6609065374906877  0.8227266295774841  0.8080857699237044  1.0000
  C   C214      1.0  0.6696067506838456  0.8617238404171276  0.8199444153683094  1.0000
  C   C215      1.0  0.7043048091354089  0.8961125841742056  0.8057802037065236  1.0000
  C   C216      1.0  0.7302029584558746  0.8914122025776083  0.7800703480050379  1.0000
  H   H141      1.0  0.6795448260720042  0.7878778317530896  0.7732214689857568  1.0000
  H   H142      1.0  0.6339525102937025  0.7960114683070226  0.8187981401679777  1.0000
  H   H143      1.0  0.711409305692537  0.9262743191019918  0.8148783934380294  1.0000
  H   H144      1.0  0.7570952338841345  0.9181381158204848  0.7692940260220849  1.0000
  N   N1        1.0  0.5423739028570004  0.04732907316284818  0.8479573257724496  1.0000
  C   C217      1.0  0.506885717552  0.042030022585229476  0.825212868248172  1.0000
  C   C218      1.0  0.5412536610602119  0.06439133705475997  0.8849901974343481  1.0000
  C   C219      1.0  0.5808707656108212  0.07550225139920697  0.8281764463515123  1.0000
  C   C220      1.0  0.540558221330571  0.00733013265837168  0.8535028371493115  1.0000
  H   H145      1.0  0.5069785110978748  0.07156410336369134  0.8207179272381342  1.0000
  H   H146      1.0  0.4772967486367115  0.020804688235404933  0.839262931216995  1.0000
  H   H147      1.0  0.5066900493551115  0.02937826847892122  0.7969863574916766  1.0000
  H   H148      1.0  0.5678298191923052  0.06919435807425645  0.9027710758304001  1.0000
  H   H149      1.0  0.541929526615727  0.09431713736249603  0.8819409077279249  1.0000
  H   H150      1.0  0.5129240401566525  0.043511511229813005  0.9009398030414447  1.0000
  H   H151      1.0  0.6082554645745075  0.07990521039999221  0.8445371091266664  1.0000
  H   H152      1.0  0.583446289748139  0.1060719377884598  0.823427128663504  1.0000
  H   H153      1.0  0.5829045526202946  0.06336145088434142  0.8002425729630664  1.0000
  H   H154      1.0  0.5669872427447962  0.010360230062399944  0.8704932659954296  1.0000
  H   H155      1.0  0.5414481550333201  0.9934845843442197  0.8262116810413509  1.0000
  H   H156      1.0  0.5121661465682402  0.9852110557596954  0.8687323572743374  1.0000
  N   N2        1.0  0.40200999366974716  0.22471077080302057  0.004684674072960909  1.0000
  C   C221      1.0  0.38650750655154414  0.2527458496911561  0.9930369445365211  1.0000
  C   C222      1.0  0.3964589495985501  0.19652098855792952  0.9736270071057954  1.0000
  C   C223      1.0  0.379103962573231  0.20080232266852188  0.03820143554022673  1.0000
  C   C224      1.0  0.4460653246746345  0.24871048114906  0.013999529255988699  1.0000
  H   H157      1.0  0.35325207073161213  0.23577219974105182  0.9861333357025857  1.0000
  H   H158      1.0  0.4029129697510418  0.27123453219816135  0.9676873673546138  1.0000
  H   H159      1.0  0.390613790984088  0.27470171207644306  0.015707405963357887  1.0000
  H   H160      1.0  0.36353744024287243  0.17736714791559438  0.966132202677942  1.0000
  H   H161      1.0  0.41319220538168006  0.21339195889364695  0.9477679381078279  1.0000
  H   H162      1.0  0.4080471476583434  0.17509588343023963  0.9815167942600997  1.0000
  H   H163      1.0  0.38216044293059076  0.2210727345785407  0.062104406238957105  1.0000
  H   H164      1.0  0.39074831736767024  0.18006419699776793  0.048202053091903306  1.0000
  H   H165      1.0  0.3458535501708912  0.18155563981179876  0.032125606864702234  1.0000
  H   H166      1.0  0.4590703625873356  0.22841325867151102  0.021655560838275963  1.0000
  H   H167      1.0  0.4512553644713809  0.2688517292471256  0.03858869251660691  1.0000
  H   H168      1.0  0.46421606566387086  0.268287744065187  0.9898494115947999  1.0000
  N   N3        1.0  0.7222164775035302  0.805004968993619  0.8968302773531955  1.0000
  C   C225      1.0  0.7095159691410737  0.7713655139955041  0.8696948764429316  1.0000
  C   C226      1.0  0.7496444392297648  0.8443344593863581  0.8778324428004541  1.0000
  C   C227      1.0  0.7442230175857291  0.7984403054002249  0.9285675521827902  1.0000
  C   C228      1.0  0.6855474211802426  0.8058725846015086  0.9112003554268836  1.0000
  H   H169      1.0  0.6917378593912915  0.7745019222632796  0.8459477669852811  1.0000
  H   H170      1.0  0.6898701916454726  0.7410560806538589  0.8833037501112369  1.0000
  H   H171      1.0  0.7364813680936737  0.7707060323338956  0.8572848790524233  1.0000
  H   H172      1.0  0.759663926923094  0.8704806300661592  0.8973851099764361  1.0000
  H   H173      1.0  0.7775744748573296  0.844730477121342  0.8664781408146779  1.0000
  H   H174      1.0  0.73406136303639  0.8502041152255878  0.8537203230718494  1.0000
  H   H175      1.0  0.7539386292601513  0.8229331439624573  0.9498923525132058  1.0000
  H   H176      1.0  0.7722966698213426  0.7980180161600289  0.9187708914206926  1.0000
  H   H177      1.0  0.7247687105889794  0.7686780699933938  0.943232165842078  1.0000
  H   H178      1.0  0.6641342393097495  0.7766559619232216  0.9256817949961743  1.0000
  H   H179      1.0  0.6682102689397544  0.8108440822038434  0.8879977506616547  1.0000
  H   H180      1.0  0.6939528458561761  0.8311119508025329  0.9315274771353896  1.0000
  N   N4        1.0  0.38300569813853474  0.19595806175531275  0.5271273682572174  1.0000
  C   C229      1.0  0.423091871103038  0.2328047064041853  0.5330260201970322  1.0000
  C   C230      1.0  0.35503242586458206  0.20789802895565576  0.5081560261779735  1.0000
  C   C231      1.0  0.36548326967560246  0.17650720946998077  0.5639487224382971  1.0000
  C   C232      1.0  0.38856990540439396  0.1668160229688169  0.5034816780660887  1.0000
  H   H181      1.0  0.4373686191903923  0.24845444324719626  0.5059488845645597  1.0000
  H   H182      1.0  0.44507130378973914  0.22525086580202164  0.5476281337769177  1.0000
  H   H183      1.0  0.41993336130000036  0.2554021183462125  0.5507767509891459  1.0000
  H   H184      1.0  0.3244007990918206  0.18093726806146637  0.5031429068592641  1.0000
  H   H185      1.0  0.3504455460592786  0.23007136857448232  0.5253256220090506  1.0000
  H   H186      1.0  0.3675892445206148  0.22318181449903662  0.48047742323497367  1.0000
  H   H187      1.0  0.33549633842151383  0.14816630475266998  0.5607171497867907  1.0000
  H   H188      1.0  0.3604562348022751  0.1974520360154087  0.5824123174325468  1.0000
  H   H189      1.0  0.38626526739522193  0.16795234866226424  0.5794040400527808  1.0000
  H   H190      1.0  0.40146404942476666  0.18021512145173857  0.47535371947186006  1.0000
  H   H191      1.0  0.35905763848190764  0.13823958707728354  0.49886711422243674  1.0000
  H   H192      1.0  0.4099092071770275  0.157598139851648  0.5168834530254764  1.0000
  N   N5        1.0  0.4997762508192162  0.4947716799719955  0.07395623944984378  1.0000
  C   C233      1.0  0.4771677135239322  0.465506207734586  0.0437114875561636  1.0000
  C   C234      1.0  0.5137734585254552  0.5369076099926297  0.060121509716568204  1.0000
  C   C235      1.0  0.5356440526721536  0.49045743836768513  0.08528353502247947  1.0000
  C   C236      1.0  0.47243191616173985  0.48624336262968354  0.10674783474114076  1.0000
  H   H193      1.0  0.45191107181086737  0.4701773813125576  0.03240607236353172  1.0000
  H   H194      1.0  0.46332144624129645  0.43324789152128146  0.05391241966219459  1.0000
  H   H195      1.0  0.49749736253766663  0.4689683297251869  0.019602560612147546  1.0000
  H   H196      1.0  0.5316500191105819  0.5599032606700568  0.08192575040950893  1.0000
  H   H197      1.0  0.5339218895233773  0.5441481743640378  0.03508204536841573  1.0000
  H   H198      1.0  0.4875103377242802  0.5414039778124659  0.05157451083233914  1.0000
  H   H199      1.0  0.5535170891554743  0.5121523377185869  0.10799474097869693  1.0000
  H   H200      1.0  0.5571866526897484  0.4970908337785833  0.06129978522235342  1.0000
  H   H201      1.0  0.5262185595203678  0.45893099820580524  0.09559890886777933  1.0000
  H   H202      1.0  0.4882993744467474  0.5077030546548542  0.13016670218788462  1.0000
  H   H203      1.0  0.4610202101623009  0.45460220987564426  0.11791605806224507  1.0000
  H   H204      1.0  0.44494497321299026  0.4890667379170494  0.09914852743763108  1.0000
  N   N6        1.0  0.7134372193204921  0.846860221853705  0.15868449658188377  1.0000
  C   C237      1.0  0.6892823066523125  0.8099202243260017  0.1359746781345824  1.0000
  C   C238      1.0  0.7440551951050279  0.8416372061744651  0.1811429638955923  1.0000
  C   C239      1.0  0.6856274737767499  0.852942755302025  0.18405987304470237  1.0000
  C   C240      1.0  0.7348153996507505  0.8829551871332105  0.13354165899403467  1.0000
  H   H205      1.0  0.6728349835814661  0.7822180484982353  0.15427778751959395  1.0000
  H   H206      1.0  0.7092868940250168  0.8040054847199649  0.11678783231744426  1.0000
  H   H207      1.0  0.6660345253153478  0.8126850599392564  0.11836574398582037  1.0000
  H   H208      1.0  0.7644636342389405  0.8698004047023931  0.19696829859732587  1.0000
  H   H209      1.0  0.7291359185649918  0.8162691383887568  0.20208381546534  1.0000
  H   H210      1.0  0.763837827261321  0.8343832065811998  0.16298795504814195  1.0000
  H   H211      1.0  0.6714594262274604  0.8279887645771131  0.20558759276281668  1.0000
  H   H212      1.0  0.6604979916707935  0.8541745920828606  0.16819037859216485  1.0000
  H   H213      1.0  0.7022680659519993  0.8822320816698824  0.19937838475427533  1.0000
  H   H214      1.0  0.7535075193264263  0.9112789832459768  0.15005028478778512  1.0000
  H   H215      1.0  0.7127298266674287  0.8881628387373295  0.11636644965053036  1.0000
  H   H216      1.0  0.7559925540663363  0.8793962036501047  0.11392609965737426  1.0000
  N   N7        1.0  0.558749233446243  0.5411293567690999  0.601702312693653  1.0000
  C   C241      1.0  0.5326686041857717  0.5299220798502218  0.567710805223437  1.0000
  C   C242      1.0  0.5341867700362286  0.5160585354349821  0.6340895419981875  1.0000
  C   C243      1.0  0.5746213933070935  0.5849299476449283  0.609676613258638  1.0000
  C   C244      1.0  0.5935203100470914  0.5335250549083173  0.5952085839427605  1.0000
  H   H217      1.0  0.5215414358220776  0.49745390038180176  0.5601823413900473  1.0000
  H   H218      1.0  0.5498219365901159  0.5490045059745937  0.5428900562010057  1.0000
  H   H219      1.0  0.5052311847564304  0.5337439082046862  0.571951612217105  1.0000
  H   H220      1.0  0.5527973272048875  0.5234993298800074  0.6602789046510192  1.0000
  H   H221      1.0  0.5073659418295228  0.5206259777681269  0.6396216222218964  1.0000
  H   H222      1.0  0.521615186403991  0.48282140574733606  0.6288809753837034  1.0000
  H   H223      1.0  0.5947217086198653  0.5946080308433405  0.6350339522528047  1.0000
  H   H224      1.0  0.5492715298854552  0.5918603857204392  0.6146654613727882  1.0000
  H   H225      1.0  0.5933936175879441  0.6046816198095333  0.585811397470242  1.0000
  H   H226      1.0  0.6149173076265703  0.543306953194809  0.619589442202755  1.0000
  H   H227      1.0  0.611432584624534  0.5503049400498403  0.5697413395888774  1.0000
  H   H228      1.0  0.5827221744866502  0.5004641581791738  0.5905865391499565  1.0000
  N   N8        1.0  0.12360417188904327  0.5085870809016061  0.567079497162264  1.0000
  C   C245      1.0  0.1022103381201993  0.49364513365688406  0.603582363380686  1.0000
  C   C246      1.0  0.13199973354511974  0.550939321223643  0.5599953994540556  1.0000
  C   C247      1.0  0.0974739872461714  0.48203626407076716  0.5366239249520651  1.0000
  C   C248      1.0  0.16270273510909972  0.5076290684536101  0.568007855378144  1.0000
  H   H229      1.0  0.07282024109375906  0.4944554059032564  0.604053019921092  1.0000
  H   H230      1.0  0.12139905086933522  0.5123331642171662  0.6273811913123074  1.0000
  H   H231      1.0  0.09484992545154558  0.4614650736667017  0.609389780952272  1.0000
  H   H232      1.0  0.10309451517560198  0.5526732542921914  0.5581864540371182  1.0000
  H   H233      1.0  0.15100466226598086  0.5717903804539057  0.5827557130942371  1.0000
  H   H234      1.0  0.14879190379868668  0.5632499713766772  0.5329160749044966  1.0000
  H   H235      1.0  0.06737923631388809  0.4813415145498011  0.5355382259352993  1.0000
  H   H236      1.0  0.09101812240834795  0.4500537355755155  0.5408052623638528  1.0000
  H   H237      1.0  0.11240596382296597  0.4926264156282472  0.5085522721678699  1.0000
  H   H238      1.0  0.17881697314929923  0.5170319951203111  0.5403344215754744  1.0000
  H   H239      1.0  0.15757577781147747  0.4764022189250715  0.5747910594538309  1.0000
  H   H240      1.0  0.18375137894500027  0.5283107906901187  0.5898849140215668  1.0000
  N   N9        1.0  0.3098453130639406  0.3336217169884684  0.7382427586291813  1.0000
  C   C249      1.0  0.33624347430096263  0.33034992175535627  0.7091322601056997  1.0000
  C   C250      1.0  0.31305710426379824  0.3745170797318474  0.7359347374906132  1.0000
  C   C251      1.0  0.32341828179579507  0.32771254304650155  0.7758929640168797  1.0000
  C   C252      1.0  0.2667869269758091  0.3019496350735801  0.7319635933897509  1.0000
  H   H241      1.0  0.3282727006531094  0.33637552196065773  0.6803584904282005  1.0000
  H   H242      1.0  0.3337419282237564  0.2994951479751101  0.709331759958474  1.0000
  H   H243      1.0  0.3690081218637484  0.3527660989930695  0.7139378425185744  1.0000
  H   H244      1.0  0.29277421542280907  0.3776841207010031  0.7569183277739232  1.0000
  H   H245      1.0  0.34487607366345235  0.39913350706117934  0.7415167008280957  1.0000
  H   H246      1.0  0.3041065597940544  0.38052923331852007  0.7075983995027393  1.0000
  H   H247      1.0  0.3217887620419029  0.2973244728716924  0.7785661357526206  1.0000
  H   H248      1.0  0.3041572189065762  0.3297985409515743  0.7986138696330769  1.0000
  H   H249      1.0  0.355806988776698  0.35131046315683007  0.7815440712835003  1.0000
  H   H250      1.0  0.25566701086856986  0.3055936557301142  0.703785720511808  1.0000
  H   H251      1.0  0.2458193546343488  0.3035945147270715  0.7532003796067117  1.0000
  H   H252      1.0  0.2630588595324075  0.2706387969168297  0.7337485429010859  1.0000
  N   N10       1.0  0.9645041304158662  0.2356778363918223  0.5135626444133404  1.0000
  C   C253      1.0  0.9493857561108632  0.26351012905035576  0.5258359907831321  1.0000
  C   C254      1.0  0.9452891316877082  0.19795632396298996  0.5368235294909943  1.0000
  C   C255      1.0  0.009528311207041229  0.25588807802577673  0.5181030604909732  1.0000
  C   C256      1.0  0.9537478524299839  0.22540177418237622  0.47355354031930413  1.0000
  H   H253      1.0  0.9621395467989642  0.29167589150995216  0.507920400901021  1.0000
  H   H254      1.0  0.9582689593853384  0.27313141326286383  0.5554874806897541  1.0000
  H   H255      1.0  0.9152927331323676  0.24861846796702025  0.5243239044635306  1.0000
  H   H256      1.0  0.9536475852718895  0.20480637241436242  0.5670462777858046  1.0000
  H   H257      1.0  0.9111952429186801  0.1823962779418264  0.5348702940838302  1.0000
  H   H258      1.0  0.9552400775078461  0.17578115575874217  0.5279380237936852  1.0000
  H   H259      1.0  0.021813469897131732  0.2351982045924986  0.5105469735773421  1.0000
  H   H260      1.0  0.018820844592072117  0.26585131471149076  0.5476946789753732  1.0000
  H   H261      1.0  0.025165742015862858  0.2835574089618682  0.49977497728782416  1.0000
  H   H262      1.0  0.9678243880257141  0.2534095825136794  0.45533668440556363  1.0000
  H   H263      1.0  0.9199239443283032  0.21016844998304576  0.4692984476058603  1.0000
  H   H264      1.0  0.9646507005105401  0.2044428474964266  0.46320572766159696  1.0000
  N   N11       1.0  0.8858534214003139  0.5489846232901151  0.542694229465544  1.0000
  C   C257      1.0  0.9136978953556767  0.5675374999143843  0.5749489097672711  1.0000
  C   C258      1.0  0.9086981777017509  0.5435212498991145  0.511415139542158  1.0000
  C   C259      1.0  0.8697209699603776  0.5762250391157318  0.5302207891217838  1.0000
  C   C260      1.0  0.8515301809363869  0.5088796519272522  0.554309643853684  1.0000
  H   H265      1.0  0.8980372889813975  0.5731539436694755  0.5989410812357183  1.0000
  H   H266      1.0  0.9399602972750685  0.5974616039017288  0.5667227820560566  1.0000
  H   H267      1.0  0.9268090462164047  0.5481208142895143  0.5852166919360409  1.0000
  H   H268      1.0  0.9220638757255177  0.5238123448571302  0.5201245799951678  1.0000
  H   H269      1.0  0.8887526211438825  0.5293779118097092  0.4865416182531991  1.0000
  H   H270      1.0  0.934903899407044  0.5733266160492644  0.5020779203194949  1.0000
  H   H271      1.0  0.8485369416049326  0.5633595639386739  0.5058927945617729  1.0000
  H   H272      1.0  0.8950075721494919  0.6068750875065018  0.521540074999459  1.0000
  H   H273      1.0  0.8528256705654728  0.5814997270936786  0.5533505193904782  1.0000
  H   H274      1.0  0.8297902664901279  0.49397673037481354  0.5306652408254255  1.0000
  H   H275      1.0  0.8338856897857755  0.5120488817154117  0.5780258307998974  1.0000
  H   H276      1.0  0.8628290972786664  0.48771575182058113  0.5639121479816729  1.0000
  N   N12       1.0  0.8305089985825166  0.7449455612167343  0.5575182786706037  1.0000
  C   C261      1.0  0.8443312472793868  0.7194046319102316  0.5375674794995134  1.0000
  C   C262      1.0  0.8203013763245814  0.7682803813553488  0.5296946342165207  1.0000
  C   C263      1.0  0.8635785887176507  0.7736498235162671  0.5824672771798527  1.0000
  C   C264      1.0  0.7937491870661371  0.7184560813327086  0.5802898556843067  1.0000
  H   H277      1.0  0.8200351657266935  0.697376722321598  0.5185442752148859  1.0000
  H   H278      1.0  0.8523312088047629  0.7013547171904289  0.5576900839363604  1.0000
  H   H279      1.0  0.8721533772320189  0.7384038775054915  0.5202383372326852  1.0000
  H   H280      1.0  0.7954382842893679  0.7475687448975599  0.5103423359385568  1.0000
  H   H281      1.0  0.8093906090774541  0.7876473712902288  0.5437080234448087  1.0000
  H   H282      1.0  0.8472327341176616  0.7887488936511382  0.511983181122829  1.0000
  H   H283      1.0  0.8915813978569191  0.7946348299032883  0.566205313868356  1.0000
  H   H284      1.0  0.872638575199696  0.7570823707428413  0.6032386499951219  1.0000
  H   H285      1.0  0.8538072927817857  0.7926635235201342  0.5987656067998663  1.0000
  H   H286      1.0  0.7996130090929616  0.699045732333258  0.600518378163052  1.0000
  H   H287      1.0  0.7674816345736821  0.6977152856615001  0.5622662256619244  1.0000
  H   H288      1.0  0.783654377276043  0.7368031528081878  0.597117102959182  1.0000
  N   N13       1.0  0.7256099312156356  0.8924887705936979  0.4164078796687101  1.0000
  C   C265      1.0  0.753581838485713  0.903410799580903  0.38374718171446043  1.0000
  C   C266      1.0  0.711858524044685  0.8496566912515545  0.4279468125208289  1.0000
  C   C267      1.0  0.6896027670736248  0.8968891545565808  0.4058532925263756  1.0000
  C   C268      1.0  0.747384754783884  0.9200292867777653  0.44797944306412374  1.0000
  H   H289      1.0  0.763912728685684  0.9352138048573287  0.3736355326822728  1.0000
  H   H290      1.0  0.7383209189645078  0.8828994128665347  0.35965127492721427  1.0000
  H   H291      1.0  0.7813275795442653  0.9008798622334535  0.39074566518656856  1.0000
  H   H292      1.0  0.6908780583495586  0.8402862479026147  0.45266523399478836  1.0000
  H   H293      1.0  0.6949299928593953  0.8281180739025037  0.40479311009531577  1.0000
  H   H294      1.0  0.7381565741664952  0.8448650354691465  0.43569964979785714  1.0000
  H   H295      1.0  0.6988486135956198  0.928659527953721  0.39631806251105667  1.0000
  H   H296      1.0  0.6681548529229046  0.8895232800558137  0.42999941700793837  1.0000
  H   H297      1.0  0.6720093340981946  0.8759116528656649  0.3825881346332029  1.0000
  H   H298      1.0  0.7269490750189573  0.9134774968366111  0.4728189845287485  1.0000
  H   H299      1.0  0.7587776413340507  0.9526339703273305  0.4399022142563599  1.0000
  H   H300      1.0  0.7743121372063987  0.9170109961712343  0.4571726258047367  1.0000
  N   N14       1.0  0.4876374568594255  0.041236821153334935  0.5665643483899993  1.0000
  C   C269      1.0  0.5248471397220267  0.0785891272567408  0.578617054555156  1.0000
  C   C270      1.0  0.4989391009329928  0.010356632440992497  0.5546697480173224  1.0000
  C   C271      1.0  0.46839718348212755  0.051270706440402096  0.5346434188374551  1.0000
  C   C272      1.0  0.45832294871886103  0.024643878140355513  0.598316792668754  1.0000
  H   H301      1.0  0.517485115174116  0.10266732061916913  0.5875214861750286  1.0000
  H   H302      1.0  0.5478777074150037  0.0917184382740206  0.5554732000538848  1.0000
  H   H303      1.0  0.5401858591167201  0.07216703258334556  0.6026608555259555  1.0000
  H   H304      1.0  0.5209987353778454  0.021866798608282778  0.5307932966077016  1.0000
  H   H305      1.0  0.5137113091735165  0.0021316130271127314  0.5779675627882747  1.0000
  H   H306      1.0  0.4716466551457421  0.9818397792770616  0.545129104352756  1.0000
  H   H307      1.0  0.4899340085993812  0.06487878193387128  0.5105315656229382  1.0000
  H   H308      1.0  0.4582846171524245  0.07357416645330786  0.5428112307888272  1.0000
  H   H309      1.0  0.440966989326383  0.02356668428140174  0.5240533892311809  1.0000
  H   H310      1.0  0.4302353267364749  0.9959730415455033  0.590437101066208  1.0000
  H   H311      1.0  0.44824913339719363  0.046680152780983024  0.6075348469224504  1.0000
  H   H312      1.0  0.4719281917528965  0.017384677215664498  0.6232117003954891  1.0000
  N   N15       1.0  0.5457508532339084  0.5113338378508285  0.33085506157311706  1.0000
  C   C273      1.0  0.5850024938989008  0.549759787800462  0.3348885467791202  1.0000
  C   C274      1.0  0.5404156289442801  0.4979795043803423  0.29124469319674334  1.0000
  C   C275      1.0  0.5114153078015157  0.5181404122843943  0.34176285670750794  1.0000
  C   C276      1.0  0.5460183883923406  0.47934440729883016  0.355498594314695  1.0000
  H   H313      1.0  0.5849561070046069  0.5754256393664893  0.3187429033358365  1.0000
  H   H314      1.0  0.6114277575885927  0.5464859484369968  0.32489062340164393  1.0000
  H   H315      1.0  0.5910936897222429  0.5593190374266849  0.36482713276568923  1.0000
  H   H316      1.0  0.5107624126871795  0.46928267900155235  0.2872460219827585  1.0000
  H   H317      1.0  0.5404491712171242  0.5216118593279444  0.27190002203465635  1.0000
  H   H318      1.0  0.5653926279150562  0.4919092492888879  0.2821281872995448  1.0000
  H   H319      1.0  0.4813387496752731  0.4896755652424945  0.33917739854785633  1.0000
  H   H320      1.0  0.5103066677170487  0.5421919338931694  0.3238786834737031  1.0000
  H   H321      1.0  0.5145139055580934  0.5284972810019493  0.37137892227339137  1.0000
  H   H322      1.0  0.5481199896445167  0.48761767121956956  0.38580643573183027  1.0000
  H   H323      1.0  0.5725002421395686  0.47456910125902074  0.34911959112785007  1.0000
  H   H324      1.0  0.5176039211880484  0.4494593297089934  0.3518643100015396  1.0000
  N   N16       1.0  0.22162940459395059  0.38285930364871795  0.17247601817398037  1.0000
  C   C277      1.0  0.2145153274825302  0.3419297629459368  0.16166960825930934  1.0000
  C   C278      1.0  0.2629301035796191  0.4061674611664966  0.18923102597228464  1.0000
  C   C279      1.0  0.19029764330963  0.3784443095369197  0.20023464705959346  1.0000
  C   C280      1.0  0.21869001331155488  0.40485692022466535  0.1387643120340674  1.0000
  H   H325      1.0  0.18368388603575403  0.32345995199694105  0.14884392426402368  1.0000
  H   H326      1.0  0.21624935303659054  0.3244585567941575  0.18661937533335848  1.0000
  H   H327      1.0  0.23789456365480385  0.3440848664323827  0.1410424858377519  1.0000
  H   H328      1.0  0.2694787493801667  0.43722329618626826  0.19782386887183134  1.0000
  H   H329      1.0  0.2659957685119369  0.3904191056499914  0.21480870925221046  1.0000
  H   H330      1.0  0.28737688909325554  0.40980619545790414  0.16912996667513353  1.0000
  H   H331      1.0  0.15887568300552793  0.36230815274636335  0.18799117066252483  1.0000
  H   H332      1.0  0.1956335388609655  0.4087238061823837  0.21013718628762032  1.0000
  H   H333      1.0  0.19044086450154382  0.36060763001820717  0.22546766568788762  1.0000
  H   H334      1.0  0.22375001607379127  0.435794737449631  0.14607153186691668  1.0000
  H   H335      1.0  0.18772543165169717  0.38818908465025165  0.125613018411608  1.0000
  H   H336      1.0  0.24183856983221805  0.40873070608980855  0.11712362869814204  1.0000
  N   N17       1.0  0.5893963266160278  0.5526064773794869  0.8423174514869952  1.0000
  C   C281      1.0  0.6204950778856635  0.555909271721602  0.870068600241448  1.0000
  C   C282      1.0  0.6046975742349047  0.5534537642948917  0.80380764356019  1.0000
  C   C283      1.0  0.5816224590101952  0.5874275896053422  0.8467660131598388  1.0000
  C   C284      1.0  0.5508936197859257  0.5137873111772377  0.8485522175458409  1.0000
  H   H337      1.0  0.6502637474316127  0.5843387655549198  0.865352276166485  1.0000
  H   H338      1.0  0.6263875353753358  0.529598412336391  0.8682993822112585  1.0000
  H   H339      1.0  0.6105392898122433  0.5567029045126098  0.8994460195740912  1.0000
  H   H340      1.0  0.6110339639474376  0.5276847608206502  0.7994740210098459  1.0000
  H   H341      1.0  0.5820021565841201  0.5511387527859247  0.7821984304029332  1.0000
  H   H342      1.0  0.6337421838721164  0.5824234503426303  0.7981738260568815  1.0000
  H   H343      1.0  0.5572086387685531  0.5852471305953876  0.8273212195226392  1.0000
  H   H344      1.0  0.6097348972153176  0.6171152961553341  0.8410850455312331  1.0000
  H   H345      1.0  0.5715520968176124  0.5887270251159666  0.8758892103693733  1.0000
  H   H346      1.0  0.5264575129904776  0.5105561248634555  0.8285511943604315  1.0000
  H   H347      1.0  0.5388022065309376  0.5119307989090844  0.8774734213618702  1.0000
  H   H348      1.0  0.555368526372527  0.48674422854933375  0.8449217306436531  1.0000
  N   N18       1.0  0.27602816627223803  0.9657877185254361  0.9155832658113032  1.0000
  C   C285      1.0  0.3005829644783222  0.9740261040289777  0.8808156522288529  1.0000
  C   C286      1.0  0.26397836687135967  0.9976886106431715  0.9199669160540495  1.0000
  C   C287      1.0  0.3007549142026181  0.9661899683340103  0.9483915993296633  1.0000
  C   C288      1.0  0.23883484005579375  0.9253177411162313  0.9130958357209953  1.0000
  H   H349      1.0  0.3085554170534592  0.9495329655156912  0.8754688667255232  1.0000
  H   H350      1.0  0.3298364279713718  0.003253459737416753  0.8825864640847225  1.0000
  H   H351      1.0  0.28386349895585977  0.9764543025823125  0.8557142103415688  1.0000
  H   H352      1.0  0.24576080598727446  0.992780990995667  0.9461082176695154  1.0000
  H   H353      1.0  0.2913316185231032  0.02861131748121859  0.9217675735354458  1.0000
  H   H354      1.0  0.2452934778614996  0.9982222621295205  0.8956387933878928  1.0000
  H   H355      1.0  0.2832114920374143  0.9600552677946714  0.9751505948249533  1.0000
  H   H356      1.0  0.3289154100296044  0.9964279808692057  0.9512527994243419  1.0000
  H   H357      1.0  0.31070595961277936  0.9427397590266197  0.9457664006781886  1.0000
  H   H358      1.0  0.21897579100025716  0.9184466659785753  0.9383930955714802  1.0000
  H   H359      1.0  0.24672344352386932  0.9003158482671456  0.9108002590094118  1.0000
  H   H360      1.0  0.22010840634769252  0.9235076488075282  0.8879232671396663  1.0000
  N   N19       1.0  0.6037276073374953  0.0413584271127172  0.34004702117296814  1.0000
  C   C289      1.0  0.6131046650290628  0.013422619520860879  0.3184533125163649  1.0000
  C   C290      1.0  0.6304508714027083  0.08391388642018124  0.3271039857134466  1.0000
  C   C291      1.0  0.6109918670244624  0.03773332697703591  0.38050709635724755  1.0000
  C   C292      1.0  0.5603266504277247  0.030327173101050597  0.33429331635303133  1.0000
  H   H361      1.0  0.5928705629307844  0.9809866520774924  0.32702877649376366  1.0000
  H   H362      1.0  0.6453314948004826  0.02025348577482666  0.32307967426422546  1.0000
  H   H363      1.0  0.609351259374035  0.016236773505894808  0.2876378127146699  1.0000
  H   H364      1.0  0.6239198975363927  0.10572615727010694  0.34264996080731636  1.0000
  H   H365      1.0  0.6633635027633278  0.09339602678001756  0.3315201810931351  1.0000
  H   H366      1.0  0.626484485252405  0.08765813792059125  0.2964887466151288  1.0000
  H   H367      1.0  0.6429851805217024  0.04436829858762947  0.38590809966748746  1.0000
  H   H368      1.0  0.5902071041678539  0.006347003165689591  0.39146717711563866  1.0000
  H   H369      1.0  0.6056892111904603  0.05944042820527036  0.3975880417777817  1.0000
  H   H370      1.0  0.5519300240770562  0.05009587611032895  0.3511071213348853  1.0000
  H   H371      1.0  0.5392455619324209  0.9982216615783549  0.3434379453463426  1.0000
  H   H372      1.0  0.5537385141360806  0.033362386852654025  0.3041968791932272  1.0000
  N   N20       1.0  0.20243561988217923  0.8808236096749549  0.4505002398526738  1.0000
  C   C293      1.0  0.19801893793151681  0.8438914284585753  0.43170975801163597  1.0000
  C   C294      1.0  0.21199571855952737  0.913533824396562  0.4221726326945595  1.0000
  C   C295      1.0  0.23611475351410766  0.8949391470225373  0.4782701279402016  1.0000
  C   C296      1.0  0.1636858420523878  0.8709166089186704  0.46986084384508325  1.0000
  H   H373      1.0  0.18827804758822925  0.8178009165697695  0.4519013761110309  1.0000
  H   H374      1.0  0.22741975794993768  0.8496110481226731  0.41865798931965303  1.0000
  H   H375      1.0  0.17458363229659965  0.8337006919597145  0.4089636982567509  1.0000
  H   H376      1.0  0.189042530369214  0.9029685798891631  0.39893340750215683  1.0000
  H   H377      1.0  0.2127377188965428  0.940839730187344  0.4349311181982546  1.0000
  H   H378      1.0  0.24258554521543207  0.9239662035598885  0.40921783198972467  1.0000
  H   H379      1.0  0.24061556776320736  0.922965910000891  0.4928343777796449  1.0000
  H   H380      1.0  0.2657553244994531  0.9024549813639318  0.46436269756336734  1.0000
  H   H381      1.0  0.22990500738231037  0.8710145489348171  0.5000879751645932  1.0000
  H   H382      1.0  0.16568312378551237  0.8979112026384641  0.48444506571139856  1.0000
  H   H383      1.0  0.15535723681350705  0.8461617657349506  0.4913316441146646  1.0000
  H   H384      1.0  0.1376516962760206  0.8599248937785774  0.4496393388818078  1.0000
  N   N21       1.0  0.21531053873126926  0.865159069259871  0.6855057361240917  1.0000
  C   C297      1.0  0.20875554857211043  0.8266474106867133  0.6684596127075875  1.0000
  C   C298      1.0  0.22925699167320535  0.8976693557842581  0.6562680743278573  1.0000
  C   C299      1.0  0.24690637921150388  0.8775349731040557  0.7151584780310895  1.0000
  C   C300      1.0  0.1764086757035036  0.8588967248219207  0.7021731044691313  1.0000
  H   H385      1.0  0.19708988741099884  0.8012308420392913  0.6896126605090835  1.0000
  H   H386      1.0  0.2375992293641164  0.8299023552049047  0.6562771538826295  1.0000
  H   H387      1.0  0.18557153380666738  0.8167887136083283  0.6454777108951032  1.0000
  H   H388      1.0  0.20628033665429768  0.8894134785758956  0.6333139530760911  1.0000
  H   H389      1.0  0.23433864337912394  0.9270916465368468  0.6683585612167637  1.0000
  H   H390      1.0  0.25889727634910076  0.9036562161130748  0.643446359476861  1.0000
  H   H391      1.0  0.25296780037439087  0.9068586034688357  0.7279511743382733  1.0000
  H   H392      1.0  0.2766130718858826  0.882257256834224  0.7036601613016702  1.0000
  H   H393      1.0  0.2372267720848013  0.8542986609742396  0.738290262587498  1.0000
  H   H394      1.0  0.17945170491272114  0.8879385337937052  0.7131536897959501  1.0000
  H   H395      1.0  0.16657986550687323  0.8368123952593498  0.7262339222260862  1.0000
  H   H396      1.0  0.1510701693752025  0.8466517341274407  0.6811637513865897  1.0000
  N   N22       1.0  0.8740289072932012  0.7225443292173447  0.2810623346571549  1.0000
  C   C301      1.0  0.8808301467573345  0.6932553651573675  0.2588371469046602  1.0000
  C   C302      1.0  0.8657965354972091  0.7491165535541421  0.25542673980295433  1.0000
  C   C303      1.0  0.9110469908837704  0.7480712092362227  0.3036118791325091  1.0000
  C   C304      1.0  0.8384960182662688  0.6997754637216196  0.3063600847734614  1.0000
  H   H397      1.0  0.8847221805720574  0.6711955374987996  0.27730927300019936  1.0000
  H   H398      1.0  0.9090427336351308  0.7092420621217456  0.241426015833723  1.0000
  H   H399      1.0  0.8548405584233731  0.6754763271485681  0.23930841173492967  1.0000
  H   H400      1.0  0.8577327728104454  0.7696655396995674  0.27128320917860493  1.0000
  H   H401      1.0  0.8931159533742331  0.7688675203912463  0.23784104122249788  1.0000
  H   H402      1.0  0.839882777886517  0.7309267897983545  0.23599884192637716  1.0000
  H   H403      1.0  0.9070030653984223  0.7705145093198298  0.32076411881618727  1.0000
  H   H404      1.0  0.9383684369809145  0.7657832069058447  0.2851331511428158  1.0000
  H   H405      1.0  0.9185547625470045  0.7291188745934956  0.32304125217204993  1.0000
  H   H406      1.0  0.8314023979588827  0.720777945205691  0.3226837247179052  1.0000
  H   H407      1.0  0.8439059642172093  0.680227749879208  0.32685062605875975  1.0000
  H   H408      1.0  0.8103642799535831  0.6794959765292174  0.29016541039743166  1.0000
  N   N23       1.0  0.9640270588614327  0.30482101475449813  0.20689131733155378  1.0000
  C   C305      1.0  0.9288717067836074  0.26307422020141324  0.2109539459607991  1.0000
  C   C306      1.0  0.9917225586159565  0.3138163661292266  0.23952373683395148  1.0000
  C   C307      1.0  0.9489237609375529  0.3346744971861608  0.2050635864868787  1.0000
  C   C308      1.0  0.9866216290680632  0.30782633787369423  0.17187895268187056  1.0000
  H   H409      1.0  0.906648973705767  0.2560045696220839  0.18754898333000314  1.0000
  H   H410      1.0  0.9119043615338682  0.25921122809329916  0.23772048359868722  1.0000
  H   H411      1.0  0.9388137831454897  0.23944636664790028  0.21064309961657993  1.0000
  H   H412      1.0  0.0038333762797766457  0.29196903294660853  0.2415653368061112  1.0000
  H   H413      1.0  0.0185110752974893  0.34510037089249884  0.23729887839781585  1.0000
  H   H414      1.0  0.9758565854206356  0.31216474184416326  0.2664859124315662  1.0000
  H   H415      1.0  0.9746782344093259  0.36645257886525745  0.20172029438901198  1.0000
  H   H416      1.0  0.9318923344512771  0.3335553784828571  0.23108748935692458  1.0000
  H   H417      1.0  0.9279860340456014  0.32873702016459927  0.18060133423976385  1.0000
  H   H418      1.0  0.014237534050954848  0.3383770714750011  0.16872557145348113  1.0000
  H   H419      1.0  0.9672990970268496  0.30340333202926617  0.14659634456262077  1.0000
  H   H420      1.0  0.9970069081183659  0.2845910092309502  0.17123617193739454  1.0000
  N   N24       1.0  0.07238140845432595  0.6295829321583754  0.0659655660916485  1.0000
  C   C309      1.0  0.09034603406043384  0.6609547435709164  0.09547782651389806  1.0000
  C   C310      1.0  0.05525351454780858  0.6441943707930234  0.03566520277634714  1.0000
  C   C311      1.0  0.03940037423120191  0.5912266161965695  0.0824989811231625  1.0000
  C   C312      1.0  0.10461552732729085  0.6220402178240251  0.05019026655601956  1.0000
  H   H421      1.0  0.10287080686125916  0.6507859342348574  0.11923918022360687  1.0000
  H   H422      1.0  0.06722090097462541  0.6683334791169228  0.10738580202560608  1.0000
  H   H423      1.0  0.11594278803785873  0.6899768894188579  0.08410540502388632  1.0000
  H   H424      1.0  0.031508867252096895  0.6512034084676818  0.04660941496788121  1.0000
  H   H425      1.0  0.07945241211557974  0.6725541826689657  0.021929188059205768  1.0000
  H   H426      1.0  0.04068451746219259  0.6210696538604317  0.013252841491033894  1.0000
  H   H427      1.0  0.014512206838172448  0.5958050113729023  0.0945929340336364  1.0000
  H   H428      1.0  0.05124477918711001  0.5791585226708824  0.10532064167156263  1.0000
  H   H429      1.0  0.025216271793504275  0.5667815867232818  0.06102860886137708  1.0000
  H   H430      1.0  0.1294404512213594  0.6500470462304493  0.036467904581162856  1.0000
  H   H431      1.0  0.0919383678718595  0.5979055312879357  0.028480558407609664  1.0000
  H   H432      1.0  0.11879612357284319  0.611693214602889  0.07234407625749967  1.0000
  N   N25       1.0  0.08891257180890744  0.5848480499498034  0.34591355461656  1.0000
  C   C313      1.0  0.06317904994669132  0.5624873952356411  0.3787339369940498  1.0000
  C   C314      1.0  0.08029578431036088  0.5560820243652138  0.31463045268097817  1.0000
  C   C315      1.0  0.13265984158478528  0.6033732936609567  0.356402612304317  1.0000
  C   C316      1.0  0.07957495810131054  0.6174025098619041  0.33404295473457823  1.0000
  H   H433      1.0  0.029973819808482682  0.5474580729666816  0.37172033798034754  1.0000
  H   H434      1.0  0.06851589246125611  0.5833586348938129  0.40273817177807897  1.0000
  H   H435      1.0  0.07010482052656064  0.5382601685610438  0.38887742928805036  1.0000
  H   H436      1.0  0.08702069639708943  0.5311189302416979  0.32279813068828006  1.0000
  H   H437      1.0  0.047498390620391406  0.5412105894621051  0.306062846887075  1.0000
  H   H438      1.0  0.09922479605762602  0.5717731525475576  0.28936168066549195  1.0000
  H   H439      1.0  0.15304110077421584  0.6218823386001264  0.3328326996383501  1.0000
  H   H440      1.0  0.14114702046784755  0.5795558618139403  0.36412867196592075  1.0000
  H   H441      1.0  0.13984608386959252  0.6236375912966982  0.38123853870307867  1.0000
  H   H442      1.0  0.09798362009899786  0.6347829199402071  0.30904405246179734  1.0000
  H   H443      1.0  0.08633907337290214  0.6399865731969642  0.3568362934988765  1.0000
  H   H444      1.0  0.04668172975820939  0.6048255137974602  0.32646837358099023  1.0000
  N   N26       1.0  0.8043395592446307  0.13902268323607173  0.7057666448116535  1.0000
  C   C317      1.0  0.7760326968020943  0.15609058220879687  0.7054623394463386  1.0000
  C   C318      1.0  0.7945873616022333  0.11051995967388321  0.7381127621935419  1.0000
  C   C319      1.0  0.8470652339421749  0.17260216915931495  0.7089464169001668  1.0000
  C   C320      1.0  0.7995617218843587  0.11682095238522962  0.6703740875088043  1.0000
  H   H445      1.0  0.7785236514091001  0.17288802502489478  0.731837763655422  1.0000
  H   H446      1.0  0.7435656277652013  0.13152357285374786  0.7028060827869661  1.0000
  H   H447      1.0  0.7825810339359952  0.17769464026732457  0.6812908840318632  1.0000
  H   H448      1.0  0.8151267914958943  0.0967646833494799  0.7389231369150068  1.0000
  H   H449      1.0  0.797849117851446  0.12617534691871446  0.7653723884122302  1.0000
  H   H450      1.0  0.7624928755463436  0.08495476247849118  0.7366127498848907  1.0000
  H   H451      1.0  0.8693759051835823  0.16090376157042569  0.7089934906217881  1.0000
  H   H452      1.0  0.851932627920838  0.19008268145255452  0.7353445514096554  1.0000
  H   H453      1.0  0.8554022368380175  0.194638038168327  0.6849240833442433  1.0000
  H   H454      1.0  0.768112019126522  0.09060803710527708  0.6675435396373482  1.0000
  H   H455      1.0  0.8212261957990847  0.10445217184576362  0.6689049252098996  1.0000
  H   H456      1.0  0.805008462330118  0.13700613922887606  0.6453419912700336  1.0000
  N   N27       1.0  0.6696064764362111  0.8796739301496613  0.6718020228878264  1.0000
  C   C321      1.0  0.6550372838351494  0.8413459200372342  0.6938442372752104  1.0000
  C   C322      1.0  0.6433586984565584  0.8980363686082158  0.6801266497438216  1.0000
  C   C323      1.0  0.6676438308857192  0.8709152798193046  0.6311424971707845  1.0000
  C   C324      1.0  0.7124819778871797  0.9084707877758942  0.6821449347655453  1.0000
  H   H457      1.0  0.6233979450124968  0.818173941236314  0.6857197914694574  1.0000
  H   H458      1.0  0.654571858684231  0.8469030163242748  0.724527027645389  1.0000
  H   H459      1.0  0.6753288431295178  0.8276056940533228  0.6898424013958852  1.0000
  H   H460      1.0  0.6528132729520411  0.9265369328908846  0.6633571054371379  1.0000
  H   H461      1.0  0.6106391130792267  0.87676160858391  0.6735030589845471  1.0000
  H   H462      1.0  0.6451329458058083  0.906193981848139  0.7104254347984844  1.0000
  H   H463      1.0  0.6357300158285462  0.8494648753931859  0.6221437363176481  1.0000
  H   H464      1.0  0.6870646637782211  0.8569044970228301  0.6240620178377119  1.0000
  H   H465      1.0  0.678747042975669  0.89946527118325  0.6138988237182815  1.0000
  H   H466      1.0  0.7247821670145141  0.9375388841343693  0.6656447588756418  1.0000
  H   H467      1.0  0.7330260791477705  0.8952283206460213  0.6771406352422364  1.0000
  H   H468      1.0  0.7150556634979991  0.9163693484589481  0.712424755637999  1.0000
  N   N28       1.0  0.9165119735511739  0.7246240971084572  0.0218311688268642  1.0000
  C   C325      1.0  0.943879176148308  0.7546311864553928  0.04971342666042089  1.0000
  C   C326      1.0  0.8751777411584152  0.7205730122867319  0.024388247126388762  1.0000
  C   C327      1.0  0.9139127386363127  0.6845768429069466  0.029675600974918837  1.0000
  C   C328      1.0  0.9331473280767911  0.7386820020217557  0.9835183435067485  1.0000
  H   H469      1.0  0.9756085891934367  0.7592052689611549  0.04783992273252746  1.0000
  H   H470      1.0  0.9328147629830388  0.7443844081723893  0.07904634604710115  1.0000
  H   H471      1.0  0.945719928098545  0.7849350953497288  0.045351929271090885  1.0000
  H   H472      1.0  0.853310647696512  0.6973850848187644  0.0044734538305371  1.0000
  H   H473      1.0  0.8621801245675331  0.7108877742922011  0.05316891968709836  1.0000
  H   H474      1.0  0.8756349931351577  0.7499323356231403  0.017829431029112275  1.0000
  H   H475      1.0  0.9020450473210994  0.6732790946381481  0.058572548255748424  1.0000
  H   H476      1.0  0.944508324711904  0.6864270536683876  0.027347667412519927  1.0000
  H   H477      1.0  0.892852827375243  0.6609206309902699  0.009703769484891822  1.0000
  H   H478      1.0  0.913226225400233  0.7166046835735257  0.9618741097447793  1.0000
  H   H479      1.0  0.9643360499717365  0.7419839692477288  0.9806229332442218  1.0000
  H   H480      1.0  0.9355903324628452  0.7688511431663784  0.9766702529045034  1.0000
  N   N29       1.0  0.5618892271777159  0.016584570443075597  0.10236207265946318  1.0000
  C   C329      1.0  0.5320677710555246  0.02971109042721265  0.11373508111536901  1.0000
  C   C330      1.0  0.6002914908537285  0.05264599367401335  0.08971416178695102  1.0000
  C   C331      1.0  0.544509179819454  0.9870956854085705  0.07126422778791319  1.0000
  C   C332      1.0  0.5707244607597592  0.996870752473403  0.13469264013403226  1.0000
  H   H481      1.0  0.5442470306298852  0.05229586397090147  0.13690231333302583  1.0000
  H   H482      1.0  0.5026349418091957  0.003397395926266311  0.12346923849937896  1.0000
  H   H483      1.0  0.5247013901752211  0.04456561874835341  0.08979581627584499  1.0000
  H   H484      1.0  0.623360643112701  0.04392203207164336  0.08034244382635847  1.0000
  H   H485      1.0  0.5946421417603966  0.06877796579752138  0.06584546777949885  1.0000
  H   H486      1.0  0.6145876775484189  0.07517550597212286  0.11270082060627762  1.0000
  H   H487      1.0  0.5158468275405451  0.9592301115112241  0.07996105715834534  1.0000
  H   H488      1.0  0.566471502272301  0.9772473397840131  0.0611835624903696  1.0000
  H   H489      1.0  0.5368237277463438  0.0006433223602044791  0.04668248823019994  1.0000
  H   H490      1.0  0.592251337694065  0.9856492989456525  0.1265514998952968  1.0000
  H   H491      1.0  0.5423445401903554  0.9701692981612717  0.14568243680492543  1.0000
  H   H492      1.0  0.5853347116778225  0.01860444422589591  0.15822394816669227  1.0000
  N   N30       1.0  0.9591852983272192  0.7653229753066287  0.7862063414630087  1.0000
  C   C333      1.0  0.9729602218967269  0.802588095507941  0.7626905318972975  1.0000
  C   C334      1.0  0.9241049247649307  0.7592980615677937  0.8097925059905229  1.0000
  C   C335      1.0  0.9933125520526828  0.7698158313168588  0.8105925593270991  1.0000
  C   C336      1.0  0.9463351033629451  0.7295269391356417  0.7616810774328256  1.0000
  H   H493      1.0  0.9991769583966038  0.8078104939266157  0.7442778842281517  1.0000
  H   H494      1.0  0.9829219198003966  0.8302066563464734  0.7802648121960704  1.0000
  H   H495      1.0  0.9478977632838008  0.8003125363830813  0.7440742615046685  1.0000
  H   H496      1.0  0.9124417049207646  0.7309157392141264  0.8272721448064057  1.0000
  H   H497      1.0  0.9327242917339734  0.7854187291920974  0.8290603301792745  1.0000
  H   H498      1.0  0.8980765558003134  0.756416396123403  0.7920835340092355  1.0000
  H   H499      1.0  0.9835115091439441  0.7429828926497946  0.829894041278753  1.0000
  H   H500      1.0  0.005173473766523662  0.7975152014099528  0.8283420403416027  1.0000
  H   H501      1.0  0.019390805643311637  0.7720526752106903  0.7936249185961988  1.0000
  H   H502      1.0  0.9181620975703993  0.7227537954306084  0.7455365968537532  1.0000
  H   H503      1.0  0.9397942849634716  0.701568125121596  0.7783241690160735  1.0000
  H   H504      1.0  0.9705766769536134  0.7347337121561973  0.7408304179265806  1.0000
  N   N31       1.0  0.06066318422415318  0.49857764734120846  0.8569034202614071  1.0000
  C   C337      1.0  0.10523953048743051  0.5228604378132854  0.8637852638064154  1.0000
  C   C338      1.0  0.053312354532189854  0.4698329525152637  0.8258985487928999  1.0000
  C   C339      1.0  0.044362611612518865  0.5262647455493169  0.8465136622670624  1.0000
  C   C340      1.0  0.039861175321168396  0.47534943113843475  0.8914376592610868  1.0000
  H   H505      1.0  0.11862005357219862  0.5029434261078061  0.8714797658361723  1.0000
  H   H506      1.0  0.11201276999040677  0.5446201821283665  0.8872006287471047  1.0000
  H   H507      1.0  0.12179989083440357  0.5412648910071359  0.8384816698575889  1.0000
  H   H508      1.0  0.019978101379873214  0.449788281739116  0.8205136400542334  1.0000
  H   H509      1.0  0.06764886914738155  0.48616213853622314  0.7990916065405098  1.0000
  H   H510      1.0  0.06630695701772615  0.4493103874028964  0.832511214503335  1.0000
  H   H511      1.0  0.010750032612008908  0.508970276459516  0.8412810486493174  1.0000
  H   H512      1.0  0.05939695432433467  0.5444260949161537  0.8206339156977324  1.0000
  H   H513      1.0  0.04976425576188559  0.5485393134299886  0.8693222228721345  1.0000
  H   H514      1.0  0.006512568003393504  0.4548873473312087  0.8866656580007338  1.0000
  H   H515      1.0  0.04261321366275017  0.49602804570431275  0.9147492346317235  1.0000
  H   H516      1.0  0.053154038645731205  0.4560817130767418  0.9015726535468117  1.0000
  N   N32       1.0  0.8345473292374517  0.1626845776776353  0.01628064378396815  1.0000
  C   C341      1.0  0.8163172673608907  0.1878378590214245  0.028720755656703185  1.0000
  C   C342      1.0  0.8763288247681796  0.18969380521399645  0.0015798410622645909  1.0000
  C   C343      1.0  0.808742287631383  0.13478261067014344  0.9863750890793582  1.0000
  C   C344      1.0  0.8367529426805805  0.13843640916659786  0.04849831060049687  1.0000
  H   H517      1.0  0.7851583994830256  0.16857000781438014  0.04087347818682561  1.0000
  H   H518      1.0  0.8136174074610105  0.20602631869867422  0.004950014203254414  1.0000
  H   H519      1.0  0.8354363488659878  0.209928472858113  0.05064455886956376  1.0000
  H   H520      1.0  0.8911803074788447  0.17176637720346624  0.9922445187447569  1.0000
  H   H521      1.0  0.8759056969148723  0.20838533191253678  0.9771353179104895  1.0000
  H   H522      1.0  0.8963770790636137  0.21142989359281475  0.023501557039381844  1.0000
  H   H523      1.0  0.7767880468710119  0.11461738790460317  0.9964193298856531  1.0000
  H   H524      1.0  0.8207226754510408  0.11435283028320783  0.97687860435312  1.0000
  H   H525      1.0  0.8069625697204886  0.15181272656358671  0.9611952369588583  1.0000
  H   H526      1.0  0.8482556060673186  0.11742205649922856  0.03973029552088772  1.0000
  H   H527      1.0  0.8062078812845399  0.11956712741812513  0.06194649765560137  1.0000
  H   H528      1.0  0.8579239275877407  0.15839941207263553  0.07055712943287504  1.0000
  N   N33       1.0  0.24523422916382176  0.8967468778844783  0.19087424610835418  1.0000
  C   C345      1.0  0.2768809938713047  0.9315948260354672  0.16894640558001406  1.0000
  C   C346      1.0  0.23385304234697818  0.8581413223122232  0.17115006524640602  1.0000
  C   C347      1.0  0.20849930904156894  0.9016267406240833  0.19487594948591577  1.0000
  C   C348      1.0  0.26154106250017833  0.8955267222396337  0.2286205175972512  1.0000
  H   H529      1.0  0.26580646800560476  0.9336233664450607  0.14027388076256453  1.0000
  H   H530      1.0  0.3051590850045477  0.92903773406615  0.1654123725270859  1.0000
  H   H531      1.0  0.2862355197942212  0.9612506802154859  0.18306900896152253  1.0000
  H   H532      1.0  0.21032282396834392  0.8312107446924045  0.18725582850297925  1.0000
  H   H533      1.0  0.22041267695226646  0.857519495399671  0.14291843983576338  1.0000
  H   H534      1.0  0.2608300732576854  0.85354996829991  0.16704337171041375  1.0000
  H   H535      1.0  0.1836350324387114  0.8751255356658058  0.21024022530903924  1.0000
  H   H536      1.0  0.19586223977983164  0.9037521474331826  0.1670121958513749  1.0000
  H   H537      1.0  0.21529135159566995  0.9295330002907266  0.21102521590968537  1.0000
  H   H538      1.0  0.27067854796304847  0.92433478249272  0.24416924445974628  1.0000
  H   H539      1.0  0.28908477240859837  0.891491896849161  0.22679480038270577  1.0000
  H   H540      1.0  0.23823436837360162  0.8699534095164912  0.2461616682971324  1.0000
  N   N34       1.0  0.408373746457826  0.19221505321091212  0.2759970610611396  1.0000
  C   C349      1.0  0.3937958111003624  0.17881353961144283  0.3149654378592355  1.0000
  C   C350      1.0  0.45140696801693325  0.2011567616595159  0.2726079325887488  1.0000
  C   C351      1.0  0.4058870262476945  0.22951570957464623  0.2667243821826052  1.0000
  C   C352      1.0  0.38239500002274895  0.1593586959535088  0.2496719229874126  1.0000
  H   H541      1.0  0.36121319079551345  0.17126521503731526  0.3182345237959311  1.0000
  H   H542      1.0  0.41242424041598563  0.20291400368677634  0.33562952666678847  1.0000
  H   H543      1.0  0.39576478802500165  0.15090646327957757  0.3229038585322081  1.0000
  H   H544      1.0  0.47192966045106943  0.2260819976180171  0.2917844159516126  1.0000
  H   H545      1.0  0.4545561320413209  0.17386224123052266  0.2799209673217611  1.0000
  H   H546      1.0  0.4631098246330593  0.21061130719552995  0.24331369088253746  1.0000
  H   H547      1.0  0.4164658787510082  0.24022703022967157  0.23740419095444773  1.0000
  H   H548      1.0  0.42505508788794  0.2550268846157397  0.2859483562909758  1.0000
  H   H549      1.0  0.3738136503093388  0.22395521718558645  0.2688244184035545  1.0000
  H   H550      1.0  0.38022904603489827  0.1296622937252863  0.2581560874221065  1.0000
  H   H551      1.0  0.39496231136414456  0.16647330143551786  0.22053112690586274  1.0000
  H   H552      1.0  0.35060597625579676  0.15473788979328823  0.24850030777828278  1.0000
  N   N35       1.0  0.2969905170397543  0.3722187925472524  0.4102511446969711  1.0000
  C   C353      1.0  0.30935306747217317  0.35354076234879916  0.4410190935447571  1.0000
  C   C354      1.0  0.2967503696835285  0.40914027476401166  0.4241841095761194  1.0000
  C   C355      1.0  0.2554564040784931  0.3425179728685336  0.397119127063719  1.0000
  C   C356      1.0  0.3263827034040304  0.3836170556084155  0.37867550731399746  1.0000
  H   H553      1.0  0.3095358911973237  0.32540630890762756  0.43154976472300566  1.0000
  H   H554      1.0  0.28820016368495693  0.34486083848214183  0.4655617113256956  1.0000
  H   H555      1.0  0.34081929411385764  0.3748305638641774  0.4513477943141531  1.0000
  H   H556      1.0  0.3276854769078783  0.4324039198049442  0.4340105469437675  1.0000
  H   H557      1.0  0.28706424940337383  0.4237787720774546  0.40179146791114745  1.0000
  H   H558      1.0  0.27496959870131443  0.40170127559221264  0.44809567642751147  1.0000
  H   H559      1.0  0.2546155107460221  0.3146479525429085  0.3855019288353394  1.0000
  H   H560      1.0  0.24486217668093666  0.3558713117535652  0.37443526637186936  1.0000
  H   H561      1.0  0.2325546160546354  0.33278740772449306  0.42032605948545404  1.0000
  H   H562      1.0  0.31908249920107856  0.39930094003343175  0.3555803296764399  1.0000
  H   H563      1.0  0.32600838851212954  0.356268437723599  0.3663562500330525  1.0000
  H   H564      1.0  0.3583510661632155  0.4046307441702323  0.38789306871816054  1.0000
  N   N36       1.0  0.19501432641606786  0.39664231950298856  0.9196678216040781  1.0000
  C   C357      1.0  0.18352013104560813  0.39012875928913165  0.8794365614731251  1.0000
  C   C358      1.0  0.24004820254405365  0.4154906355688399  0.9231590026169624  1.0000
  C   C359      1.0  0.17536777424301017  0.35697479070444427  0.9400468292631118  1.0000
  C   C360      1.0  0.18117532504876893  0.4239868139029705  0.9359486327760101  1.0000
  H   H565      1.0  0.15013476365398915  0.3781501523120111  0.8753322611203082  1.0000
  H   H566      1.0  0.19111693656819645  0.36764705936987946  0.866817383282132  1.0000
  H   H567      1.0  0.19974955582630666  0.41903915002610065  0.862760613324036  1.0000
  H   H568      1.0  0.25002567585652574  0.42086784494556506  0.9530876750484404  1.0000
  H   H569      1.0  0.25152771002931756  0.39576297076256794  0.9108127543220553  1.0000
  H   H570      1.0  0.2560016524962825  0.44544997500838074  0.907965913429714  1.0000
  H   H571      1.0  0.14137728387752652  0.3421002444066368  0.938425272890895  1.0000
  H   H572      1.0  0.18349630800760888  0.3607287923060029  0.9704706187280965  1.0000
  H   H573      1.0  0.1846842677993106  0.3353715354546609  0.9281241754353157  1.0000
  H   H574      1.0  0.1473381380219801  0.4107899752699737  0.9332493188403175  1.0000
  H   H575      1.0  0.1958299840242843  0.4543498583208973  0.9214954674778193  1.0000
  H   H576      1.0  0.18851956450500634  0.4289344565476786  0.9664958419288932  1.0000
