data_image0
_chemical_formula_structural       FeS2FeS2FeSFeS3FeS2FeS2FeSFeS3FeS2FeS2FeSFeS3FeS2FeS2FeSFeS3FeS2FeS2FeSFeS3FeS2FeS2FeSFeS3FeS2FeS2FeSFeS3FeS2FeS2FeSFeS3FeS2FeS2FeSFeS3FeS2FeS2FeSFeS3FeS2FeS2FeSFeS3FeS2FeS2FeSFeS3FeS2FeS2FeSFeS3FeS2FeS2FeSFeS3FeS2FeS2FeSFeS3FeS2FeS2FeSFeS3FeS2FeS2FeSFeS3FeS2FeS2FeSFeS3C6H4C6H4C6H4C6H4C6H4C6H4C6H4C6H4C6H4C6H4C6H4C6H4C6H4C6H4C6H4C6H4C6H4C6H4C6H4C6H4C6H4C6H4C6H4C6H4C6H4C6H4C6H4C6H4C6H4C6H4C6H4C6H4C6H4C6H4C6H4C6H4NC4H12NC4H12NC4H12NC4H12NC4H12NC4H12NC4H12NC4H12NC4H12NC4H12NC4H12NC4H12NC4H12NC4H12NC4H12NC4H12NC4H12NC4H12NC4H12NC4H12NC4H12NC4H12NC4H12NC4H12NC4H12NC4H12NC4H12NC4H12NC4H12NC4H12NC4H12NC4H12NC4H12NC4H12NC4H12NC4H12
_chemical_formula_sum              "Fe72 S144 C360 H576 N36"
_cell_length_a       41.398428041961715
_cell_length_b       40.28048935694976
_cell_length_c       55.10805879556078
_cell_angle_alpha    88.46966608955849
_cell_angle_beta     91.97373048051422
_cell_angle_gamma    118.59682306733592

_space_group_name_H-M_alt    "P 1"
_space_group_IT_number       1

loop_
  _space_group_symop_operation_xyz
  'x, y, z'

loop_
  _atom_site_type_symbol
  _atom_site_label
  _atom_site_symmetry_multiplicity
  _atom_site_fract_x
  _atom_site_fract_y
  _atom_site_fract_z
  _atom_site_occupancy
  Fe  Fe1       1.0  0.91686771809969  0.06561072696313139  0.12326739773851997  1.0000
  S   S1        1.0  0.9449989346010387  0.09294919152527437  0.08867588899090648  1.0000
  S   S2        1.0  0.9074211973783609  0.01037182258487479  0.13988987133523756  1.0000
  Fe  Fe2       1.0  0.908146109313174  0.1324745746087965  0.1388070872166189  1.0000
  S   S3        1.0  0.9362143352210018  0.16682827561779281  0.1055510282034077  1.0000
  S   S4        1.0  0.88356550998927  0.14007543022254554  0.17316448146422175  1.0000
  Fe  Fe3       1.0  0.9028397914400562  0.11273326781476832  0.08509978410634667  1.0000
  S   S5        1.0  0.8805972519590294  0.11692530303125746  0.04795566116006322  1.0000
  Fe  Fe4       1.0  0.9767817270588962  0.14482560730765015  0.11103219082621  1.0000
  S   S6        1.0  0.036679362279493866  0.17918582064919386  0.10134051040221828  1.0000
  S   S7        1.0  0.8713303782284082  0.08021174403218556  0.11760507199526517  1.0000
  S   S8        1.0  0.9522886970645403  0.11579909292169945  0.14609388433516288  1.0000
  Fe  Fe5       1.0  0.20160016660574723  0.16740799989043736  0.1447291862570662  1.0000
  S   S9        1.0  0.19183996599500147  0.1576864619017625  0.10480545005975354  1.0000
  S   S10       1.0  0.15565871560228886  0.16146500235770814  0.16800123387351165  1.0000
  Fe  Fe6       1.0  0.27973219821943146  0.17842067635325293  0.1436621292041228  1.0000
  S   S11       1.0  0.2764952622698238  0.16993226641259912  0.10335042350064681  1.0000
  S   S12       1.0  0.3260788010551483  0.17830542906783145  0.16645228530957973  1.0000
  Fe  Fe7       1.0  0.24889974142651847  0.2062342810865837  0.1019575406118095  1.0000
  S   S13       1.0  0.2588886402534783  0.2524641505416629  0.07481646668342723  1.0000
  Fe  Fe8       1.0  0.21975426412582102  0.12229109928845448  0.1099610893437534  1.0000
  S   S14       1.0  0.19779629739585908  0.06614207185958008  0.09175550065134871  1.0000
  S   S15       1.0  0.25681459047457944  0.21902074441991787  0.14185726386564124  1.0000
  S   S16       1.0  0.22499006257458393  0.1278108292328638  0.15029432069654355  1.0000
  Fe  Fe9       1.0  0.965549248762655  0.8798087117578669  0.08756575568704926  1.0000
  S   S17       1.0  0.9672691289364848  0.8658182140457228  0.12709893731517957  1.0000
  S   S18       1.0  0.9373204712979064  0.9094617110198574  0.06850260230523968  1.0000
  Fe  Fe10      1.0  0.016050919435103828  0.8480056532351604  0.07376630665415664  1.0000
  S   S19       1.0  0.022057748044300197  0.8308528015606549  0.11212932479343449  1.0000
  S   S20       1.0  0.03756718494120416  0.8334928041875781  0.040824032888915424  1.0000
  Fe  Fe11      1.0  0.9612134457694833  0.8104620251613567  0.11445469633642444  1.0000
  S   S21       1.0  0.9167669550110117  0.7526602358591522  0.12610690361710442  1.0000
  Fe  Fe12      1.0  0.027647596804658198  0.8874997431426814  0.12149374481201829  1.0000
  S   S22       1.0  0.06907966076872873  0.9304148729872144  0.14715289672039022  1.0000
  S   S23       1.0  0.9549064744349371  0.8230887678841317  0.07518508824633302  1.0000
  S   S24       1.0  0.026330990450998612  0.9061208730502074  0.08302724167772044  1.0000
  Fe  Fe13      1.0  0.128985305177721  0.950041091193122  0.9286369878380853  1.0000
  S   S25       1.0  0.09589358251986174  0.8963897831337587  0.9078258107304596  1.0000
  S   S26       1.0  0.12431865606563126  0.9668375942324636  0.9664737802840316  1.0000
  Fe  Fe14      1.0  0.17428294156544555  0.9924644296376376  0.8850078265015362  1.0000
  S   S27       1.0  0.14550305956395854  0.9433969339365278  0.8598850590649357  1.0000
  S   S28       1.0  0.22053134522653514  0.05006219523807243  0.8764874636912597  1.0000
  Fe  Fe15      1.0  0.094070241426216  0.934693033536696  0.8779920917697839  1.0000
  S   S29       1.0  0.0428705888832257  0.9282896315638223  0.8585980584697654  1.0000
  Fe  Fe16      1.0  0.14982819310571774  0.909091305446231  0.8915027058068975  1.0000
  S   S30       1.0  0.1697962271570137  0.8659415277684889  0.8897113717448595  1.0000
  S   S31       1.0  0.12265845830904912  0.9870255567440246  0.9000873825355753  1.0000
  S   S32       1.0  0.1831299241648527  0.9594141140263406  0.915200297536549  1.0000
  Fe  Fe17      1.0  0.13960795372233012  0.2142913226301737  0.9437871239703532  1.0000
  S   S33       1.0  0.14292641898759512  0.23544988741771278  0.9054108285957209  1.0000
  S   S34       1.0  0.09078261318235696  0.19068506692664605  0.9682834505374602  1.0000
  Fe  Fe18      1.0  0.21604053939332918  0.22078352470878723  0.9434687604768259  1.0000
  S   S35       1.0  0.2265909363357882  0.24272628931419055  0.905003333055512  1.0000
  S   S36       1.0  0.24963303742082776  0.2010609868359949  0.9665341700281854  1.0000
  Fe  Fe19      1.0  0.20099980105051116  0.2783990309369555  0.9157735669421703  1.0000
  S   S37       1.0  0.2223379063696181  0.341024306312415  0.9086558789869875  1.0000
  Fe  Fe20      1.0  0.16806168556242024  0.1983578840049275  0.8977599399564048  1.0000
  S   S38       1.0  0.14635494160131993  0.15516176355398567  0.8682245944276695  1.0000
  S   S39       1.0  0.1954207401839871  0.25995352682253386  0.9551513305890204  1.0000
  S   S40       1.0  0.15973298021083843  0.17367571677317736  0.9351621209837022  1.0000
  Fe  Fe21      1.0  0.8486814049122429  0.9845044617957841  0.9463765576066451  1.0000
  S   S41       1.0  0.8445809923658897  0.015045042944200617  0.9126116167028936  1.0000
  S   S42       1.0  0.8162770681854915  0.973529338256195  0.9802376038432633  1.0000
  Fe  Fe22      1.0  0.907908307670963  0.9698156092710983  0.9263741025562303  1.0000
  S   S43       1.0  0.9092987375209888  0.9991326630735582  0.8911629649896097  1.0000
  S   S44       1.0  0.9447040627514096  0.9451100706676733  0.9371761544632267  1.0000
  Fe  Fe23      1.0  0.9065761967970387  0.042696208472505194  0.9141969799476628  1.0000
  S   S45       1.0  0.9443668414165336  0.10387606473761103  0.9051683897636423  1.0000
  Fe  Fe24      1.0  0.8476424521235613  0.9685522777665537  0.8927604704059984  1.0000
  S   S46       1.0  0.8164544034862471  0.9361887685218067  0.8593049980406484  1.0000
  S   S47       1.0  0.9100115200084357  0.015570146185909687  0.9494392111270822  1.0000
  S   S48       1.0  0.8465482156115602  0.9356027579229663  0.9265106876305896  1.0000
  Fe  Fe25      1.0  0.9427435411830408  0.5056591176566839  0.46553112742137287  1.0000
  S   S49       1.0  0.940406076532761  0.4946370070437972  0.4255405189099012  1.0000
  S   S50       1.0  0.981613220226683  0.5043505375764419  0.49494556183882293  1.0000
  Fe  Fe26      1.0  0.868939307066575  0.5045833404222226  0.4643649683714436  1.0000
  S   S51       1.0  0.8592549017206907  0.49285414287508855  0.4245923647594292  1.0000
  S   S52       1.0  0.8298237714596616  0.5058026085164368  0.49115944489815994  1.0000
  Fe  Fe27      1.0  0.8812930822191342  0.4524571309913678  0.43107198387275125  1.0000
  S   S53       1.0  0.8515165638822914  0.3984869866285407  0.41011298942917834  1.0000
  Fe  Fe28      1.0  0.9186705105184821  0.5361699776740988  0.42139408206039863  1.0000
  S   S54       1.0  0.9377379626495405  0.5770090768857175  0.3897071072798967  1.0000
  S   S55       1.0  0.8850070194652383  0.45955922726024506  0.4713591931353709  1.0000
  S   S56       1.0  0.9268330555599159  0.5515594822790177  0.4609105610801271  1.0000
  Fe  Fe29      1.0  0.6380042089503087  0.46207819851597737  0.4611425210511127  1.0000
  S   S57       1.0  0.6237820955384707  0.45810228751015064  0.5005608153059572  1.0000
  S   S58       1.0  0.6889614462931657  0.505116211291099  0.44281020092391643  1.0000
  Fe  Fe30      1.0  0.5695302594462687  0.38933996635414864  0.4477180197031242  1.0000
  S   S59       1.0  0.5501058151298612  0.37821848580707457  0.48592005559187323  1.0000
  S   S60       1.0  0.5354655506586027  0.3475148777612853  0.41887915684471994  1.0000
  Fe  Fe31      1.0  0.5659613428115391  0.43996757153595556  0.4863873889611466  1.0000
  S   S61       1.0  0.5192078418386394  0.4504253975188831  0.4971702295488737  1.0000
  Fe  Fe32      1.0  0.6088999024826505  0.39695674593958186  0.49645444871753985  1.0000
  S   S62       1.0  0.6289794401695178  0.36514530188611555  0.52115129712682  1.0000
  S   S63       1.0  0.5819435314130699  0.44982635880586996  0.44722080397520864  1.0000
  S   S64       1.0  0.6268682179451064  0.4022412448048694  0.45810386510607454  1.0000
  Fe  Fe33      1.0  0.6993186448285089  0.22889152855575665  0.46875746849772354  1.0000
  S   S65       1.0  0.6599090130388087  0.24004987271681102  0.44593094270197897  1.0000
  S   S66       1.0  0.7498160410513623  0.2760732622332123  0.4855998607725108  1.0000
  Fe  Fe34      1.0  0.6522874603501642  0.14407853374224286  0.4665081647855035  1.0000
  S   S67       1.0  0.6083622699021037  0.14735315687122558  0.4430466324177388  1.0000
  S   S68       1.0  0.6509219307425834  0.09150706384694986  0.4828546077652202  1.0000
  Fe  Fe35      1.0  0.6555909225871753  0.19310086322540845  0.42275796221253126  1.0000
  S   S69       1.0  0.6498759503716797  0.20414124255131313  0.38301594413736606  1.0000
  Fe  Fe36      1.0  0.6163464181774438  0.1939918959006897  0.4677434883936125  1.0000
  S   S70       1.0  0.5688769387475276  0.20141656355151855  0.47919563716023944  1.0000
  S   S71       1.0  0.6992775160717524  0.18578618878541742  0.44385333444102015  1.0000
  S   S72       1.0  0.6560537963044274  0.1870220367887734  0.49303698398590245  1.0000
  Fe  Fe37      1.0  0.4922399892416365  0.3264354222655861  0.24282070200664277  1.0000
  S   S73       1.0  0.5032896223694404  0.31115620467477345  0.280829478548968  1.0000
  S   S74       1.0  0.44001982411487073  0.3225850016628248  0.22541199914734023  1.0000
  Fe  Fe38      1.0  0.5726438271823306  0.3640627012309707  0.2296788678710684  1.0000
  S   S75       1.0  0.5910354057857313  0.3525949530698902  0.2659510479061211  1.0000
  S   S76       1.0  0.6135522878731368  0.39253381068332127  0.20023332262609825  1.0000
  Fe  Fe39      1.0  0.5419444094632683  0.29541174392209263  0.2625945124899392  1.0000
  S   S77       1.0  0.5539824775641803  0.24834100029099454  0.2734877552081884  1.0000
  Fe  Fe40      1.0  0.5520822382812116  0.3695768282943427  0.2815823072057166  1.0000
  S   S78       1.0  0.5753828013298998  0.4121778221233056  0.3118176039412104  1.0000
  S   S79       1.0  0.5265071443834178  0.30523061364184256  0.2247362248358039  1.0000
  S   S80       1.0  0.5379210282669717  0.3863863975727002  0.2453619556155351  1.0000
  Fe  Fe41      1.0  0.8058424688509936  0.26462756938699655  0.22763309705478704  1.0000
  S   S81       1.0  0.8239830315317793  0.2769159002668084  0.2669089117272529  1.0000
  S   S82       1.0  0.8361510281464414  0.2648848267030811  0.19409249791629032  1.0000
  Fe  Fe42      1.0  0.7333198908771436  0.2636299518252355  0.23544406114127925  1.0000
  S   S83       1.0  0.7443398324337664  0.2758866209441904  0.2750916554641558  1.0000
  S   S84       1.0  0.6864497874652619  0.2613309599340377  0.2124640106950244  1.0000
  Fe  Fe43      1.0  0.8014630294577539  0.3177130705942687  0.2647496909470134  1.0000
  S   S85       1.0  0.8246182072381435  0.3726630236653462  0.2847483288726801  1.0000
  Fe  Fe44      1.0  0.7655016468525915  0.23401728538470415  0.2750032494860489  1.0000
  S   S86       1.0  0.7553408326441897  0.19383232199024197  0.3066305988648688  1.0000
  S   S87       1.0  0.7885858633648681  0.309751339702976  0.2250122326224343  1.0000
  S   S88       1.0  0.749378752013729  0.21777391937925672  0.23596149067330507  1.0000
  Fe  Fe45      1.0  0.7718401281094927  0.5736267756196387  0.23714610673117792  1.0000
  S   S89       1.0  0.8175405511499957  0.5887602766319344  0.21112702883927378  1.0000
  S   S90       1.0  0.7140473956523736  0.5625812295670383  0.22968181103087051  1.0000
  Fe  Fe46      1.0  0.8166267517007656  0.5716512112583255  0.28103889780832325  1.0000
  S   S91       1.0  0.8668610197609079  0.5867095840111614  0.25945348021735226  1.0000
  S   S92       1.0  0.8049271574121039  0.5555157598510898  0.32036566688604334  1.0000
  Fe  Fe47      1.0  0.8534473147797351  0.628848380440167  0.24020959426543403  1.0000
  S   S93       1.0  0.9006461486629764  0.687378857568717  0.23335883137207333  1.0000
  Fe  Fe48      1.0  0.8274879142875331  0.5459182079759964  0.2322220477548351  1.0000
  S   S94       1.0  0.8404000360712222  0.5049071188643776  0.21363770363395923  1.0000
  S   S95       1.0  0.8066677689817404  0.6174027249588425  0.26448447722284607  1.0000
  S   S96       1.0  0.7783043971541826  0.5269045837497065  0.2553479664351355  1.0000
  Fe  Fe49      1.0  0.31053871465177424  0.4866601740646214  0.8064648480027223  1.0000
  S   S97       1.0  0.27109950062316657  0.4924354357908356  0.7800874872359964  1.0000
  S   S98       1.0  0.29832720161021437  0.42574725140248726  0.8112931533856007  1.0000
  Fe  Fe50      1.0  0.3532499537454965  0.5717769237882896  0.8141913342430387  1.0000
  S   S99       1.0  0.31677414566807116  0.5836430842181722  0.7885663363721815  1.0000
  S   S100      1.0  0.39489705670404157  0.6222031966981834  0.8349439229109309  1.0000
  Fe  Fe51      1.0  0.2707425995991285  0.5335939714715681  0.8062529653989169  1.0000
  S   S101      1.0  0.21732383997891  0.5270111298054433  0.8195834479937124  1.0000
  Fe  Fe52      1.0  0.3210761242958605  0.5416717313741058  0.7647850507792314  1.0000
  S   S102      1.0  0.3240606497899671  0.5518755459877036  0.724372063091847  1.0000
  S   S103      1.0  0.3066881941909648  0.5245834199740685  0.8339530149332377  1.0000
  S   S104      1.0  0.3611681404506385  0.5331823182915313  0.7890489798151891  1.0000
  Fe  Fe53      1.0  0.3064840805550906  0.7774726498602508  0.8017466088221004  1.0000
  S   S105      1.0  0.25249046643392065  0.7638533438675367  0.8177615459962639  1.0000
  S   S106      1.0  0.3534018040840931  0.783904276487733  0.8263371728156772  1.0000
  Fe  Fe54      1.0  0.27664397911953975  0.7661608921892205  0.75012932532921  1.0000
  S   S107      1.0  0.21973796009947555  0.7513060364647138  0.761386245233441  1.0000
  S   S108      1.0  0.29564306621240727  0.7683649022380423  0.7119828684269247  1.0000
  Fe  Fe55      1.0  0.24759757459010645  0.7994217391038115  0.7873548861689068  1.0000
  S   S109      1.0  0.2206003238512261  0.8365854723052004  0.7891626960337675  1.0000
  Fe  Fe56      1.0  0.22858629485234966  0.7169308686201165  0.7908270604981719  1.0000
  S   S110      1.0  0.18159833415626897  0.662195826110525  0.8034320829861555  1.0000
  S   S111      1.0  0.3042317396841598  0.8176869870787092  0.7735227869824345  1.0000
  S   S112      1.0  0.2830168339531033  0.7272463935060781  0.777428667062553  1.0000
  Fe  Fe57      1.0  0.6141603340064898  0.8645769835292447  0.815078088269515  1.0000
  S   S113      1.0  0.6242662264551627  0.8316320166667672  0.7867304545978218  1.0000
  S   S114      1.0  0.6482145244966101  0.8924198271544401  0.8488626959504488  1.0000
  Fe  Fe58      1.0  0.5491897836630313  0.8634042975141104  0.7868652076740908  1.0000
  S   S115      1.0  0.5539426163692907  0.8309611172027113  0.7562070257512836  1.0000
  S   S116      1.0  0.509300651351123  0.8860346514826432  0.781566496054946  1.0000
  Fe  Fe59      1.0  0.5625537069105842  0.795747959599356  0.7851797434772987  1.0000
  S   S117      1.0  0.5356283734120946  0.7335822196193537  0.7763847925100082  1.0000
  Fe  Fe60      1.0  0.6143474365591469  0.8691010594601889  0.760114716822624  1.0000
  S   S118      1.0  0.6468606099426678  0.893790011171992  0.7265062545453461  1.0000
  S   S119      1.0  0.5530011749710863  0.8253597186060386  0.8160477936850214  1.0000
  S   S120      1.0  0.6092002968050758  0.9048966439318814  0.7883444707434162  1.0000
  Fe  Fe61      1.0  0.5197890789546349  0.9551843532240133  0.5800009632224171  1.0000
  S   S121      1.0  0.4974945025079522  0.9541112846722754  0.6167977201568098  1.0000
  S   S122      1.0  0.5158834853978979  0.9919097863601452  0.5495067458678595  1.0000
  Fe  Fe62      1.0  0.5338403944536647  0.8891676132516553  0.5922142087841188  1.0000
  S   S123      1.0  0.5133618887083907  0.8829970587844087  0.6300214237946118  1.0000
  S   S124      1.0  0.547730039152217  0.8485665736061532  0.5736252578581719  1.0000
  Fe  Fe63      1.0  0.46782196978559953  0.8911802558464849  0.6132552189617859  1.0000
  S   S125      1.0  0.41186832021699826  0.8533014072635136  0.628331608368755  1.0000
  Fe  Fe64      1.0  0.5448783403109292  0.9461118929482742  0.6307316239670487  1.0000
  S   S126      1.0  0.5725859020718408  0.9752682288695771  0.6654310454455171  1.0000
  S   S127      1.0  0.48572241039310693  0.8925518647416911  0.5752007086093859  1.0000
  S   S128      1.0  0.5699753590146546  0.9523269018580791  0.5942190840260909  1.0000
  Fe  Fe65      1.0  0.49181626080205454  0.5867994411613849  0.5816367601237978  1.0000
  S   S129      1.0  0.49460489128789936  0.6003379474090423  0.6211865365019194  1.0000
  S   S130      1.0  0.5403616370320777  0.5817227409719703  0.5680316389511556  1.0000
  Fe  Fe66      1.0  0.41815681546891015  0.5848739844561663  0.5743274828449186  1.0000
  S   S131      1.0  0.41412813959885714  0.5963916916191759  0.6133529341757831  1.0000
  S   S132      1.0  0.3789823941207189  0.5851729045979571  0.5451815687737275  1.0000
  Fe  Fe67      1.0  0.4731619655391466  0.6399918828073978  0.6100053017000139  1.0000
  S   S133      1.0  0.488517838726336  0.6928673411620542  0.6309272016154417  1.0000
  Fe  Fe68      1.0  0.43571507517985264  0.5557388172495527  0.6215696721259543  1.0000
  S   S134      1.0  0.42277523443827564  0.5180265856205953  0.6547686788621548  1.0000
  S   S135      1.0  0.47623913125515704  0.6314633928676693  0.570329889777741  1.0000
  S   S136      1.0  0.4337634498402643  0.5392592246955229  0.5826197104541725  1.0000
  Fe  Fe69      1.0  0.1971935316481316  0.6591901042030547  0.5987392135196261  1.0000
  S   S137      1.0  0.20846140124296023  0.6977577865119465  0.5663099465791287  1.0000
  S   S138      1.0  0.1761813585833712  0.6709029957099958  0.6328258660538724  1.0000
  Fe  Fe70      1.0  0.21442293043758273  0.6049298756421229  0.5724302811425506  1.0000
  S   S139      1.0  0.2271829262114422  0.6387566563607082  0.5379607797790837  1.0000
  S   S140      1.0  0.22064734889326443  0.5526461651991522  0.5757698177642487  1.0000
  Fe  Fe71      1.0  0.25726132205880087  0.6886620992513784  0.5620490406924452  1.0000
  S   S141      1.0  0.31197439039453534  0.7342617625577165  0.5497743524899893  1.0000
  Fe  Fe72      1.0  0.17697354986487462  0.6442194965025126  0.545159033924218  1.0000
  S   S142      1.0  0.14133967738601644  0.641464411625185  0.5124105660342222  1.0000
  S   S143      1.0  0.24883312470770766  0.6543791293546587  0.5961560571173599  1.0000
  S   S144      1.0  0.161462574072722  0.6060752366388086  0.5780209559006735  1.0000
  C   C1        1.0  0.33558903457412187  0.5767078668766592  0.5545682614125302  1.0000
  C   C2        1.0  0.31571582193068826  0.5899981668963901  0.5400157134695363  1.0000
  C   C3        1.0  0.28096554462305395  0.5836888676958837  0.5469514812298125  1.0000
  C   C4        1.0  0.26527150486842027  0.5627532039645029  0.5680063850930129  1.0000
  C   C5        1.0  0.28502451213608415  0.549216990827156  0.5825376985608883  1.0000
  C   C6        1.0  0.32049227001295016  0.5567891307719869  0.576060837268177  1.0000
  H   H1        1.0  0.32724249488166834  0.6052241434396681  0.5233135444296882  1.0000
  H   H2        1.0  0.2659315904385735  0.5941017918558913  0.5355879942744104  1.0000
  H   H3        1.0  0.2729689948136885  0.5330527337971516  0.598862188526648  1.0000
  H   H4        1.0  0.33564719196917825  0.5462810493784871  0.5873003400350468  1.0000
  C   C7        1.0  0.38343462746228474  0.8201995924026325  0.6067152925361236  1.0000
  C   C8        1.0  0.3886929360819031  0.8289850712979837  0.5820003645849214  1.0000
  C   C9        1.0  0.3664890703221932  0.8023860356264295  0.5646691698082017  1.0000
  C   C10       1.0  0.33825154665891505  0.7672303274609827  0.5719843828255493  1.0000
  C   C11       1.0  0.3323321794121334  0.7585523802096974  0.5967470404067797  1.0000
  C   C12       1.0  0.35513036410661186  0.7849839146338522  0.6141331130765718  1.0000
  H   H5        1.0  0.4093811571370066  0.8565967414648574  0.5761674994011516  1.0000
  H   H6        1.0  0.37092841210828204  0.8092638115992349  0.5455315869051931  1.0000
  H   H7        1.0  0.31060094775494884  0.7313913444650324  0.6025229274114594  1.0000
  H   H8        1.0  0.35098421353638765  0.7780535747050153  0.6332755714175617  1.0000
  C   C13       1.0  0.5323796018035828  0.8053235641307094  0.5895145520973417  1.0000
  C   C14       1.0  0.5256510355043305  0.7725479706925562  0.577167319114139  1.0000
  C   C15       1.0  0.5125048096019926  0.7377902929398584  0.5897040783996851  1.0000
  C   C16       1.0  0.50600173818594  0.7357843805257013  0.6145949235388629  1.0000
  C   C17       1.0  0.5132322381466119  0.7686108499929896  0.6269320227829386  1.0000
  C   C18       1.0  0.5265853117666467  0.8032532413738869  0.6144613076758041  1.0000
  H   H9        1.0  0.5306376931994098  0.774030657254785  0.5579282619149013  1.0000
  H   H10       1.0  0.5077781993330446  0.7127515444814263  0.5801422634238406  1.0000
  H   H11       1.0  0.5089802559049702  0.767411094872025  0.6462616032211587  1.0000
  H   H12       1.0  0.533503086227063  0.8285149605561389  0.6243724297222573  1.0000
  C   C19       1.0  0.626931771506239  0.9168850797483269  0.7092346123507043  1.0000
  C   C20       1.0  0.6136407822396522  0.9382475552361368  0.7207945872916329  1.0000
  C   C21       1.0  0.5984938380240417  0.9574080222117911  0.7070597652264019  1.0000
  C   C22       1.0  0.5948357886847349  0.9537796500323775  0.6817983046213901  1.0000
  C   C23       1.0  0.6073603150639209  0.931753921181532  0.6701867400275118  1.0000
  C   C24       1.0  0.624100232224158  0.9139333230692235  0.6838859890612513  1.0000
  H   H13       1.0  0.6153647687550101  0.940481254793102  0.7403092490623844  1.0000
  H   H14       1.0  0.5887649324577154  0.9743560627717256  0.7160917538634648  1.0000
  H   H15       1.0  0.6044689618247588  0.9287469044552396  0.6506591509295663  1.0000
  H   H16       1.0  0.6341306286991837  0.8972249413989717  0.6748800055500314  1.0000
  C   C25       1.0  0.26195405737029853  0.7368571033224935  0.6916768046088819  1.0000
  C   C26       1.0  0.22454860787029324  0.7236862779765387  0.6955392116605051  1.0000
  C   C27       1.0  0.19825226725602732  0.7023932073981481  0.6776538711207891  1.0000
  C   C28       1.0  0.20925006646412866  0.6940947277360564  0.6558930188724844  1.0000
  C   C29       1.0  0.24656413187539955  0.7062576298425018  0.6523669930330975  1.0000
  C   C30       1.0  0.2728520557377715  0.7275154277637995  0.6702475998075608  1.0000
  H   H17       1.0  0.21589871565520066  0.7309303299267607  0.7118853989905815  1.0000
  H   H18       1.0  0.16939730026702213  0.6929758413091891  0.6804666726213663  1.0000
  H   H19       1.0  0.2553134725604498  0.7000599136137708  0.6356912722219119  1.0000
  H   H20       1.0  0.30173578458916034  0.7373012836501945  0.6672838177480284  1.0000
  C   C31       1.0  0.39646716827283396  0.8118283732992887  0.8134743383987975  1.0000
  C   C32       1.0  0.42634276178097563  0.8065128484726701  0.8209558807329872  1.0000
  C   C33       1.0  0.4609968839821357  0.8288095555493705  0.8109165015544766  1.0000
  C   C34       1.0  0.46602022686267275  0.8570580792034531  0.7938352934689075  1.0000
  C   C35       1.0  0.43620623998400165  0.8625439786273598  0.7864752525545144  1.0000
  C   C36       1.0  0.4013616358525756  0.8396643446012277  0.7960890374594688  1.0000
  H   H21       1.0  0.42276474998569247  0.7851418766497976  0.8344696393905606  1.0000
  H   H22       1.0  0.48389427043439504  0.8246073878648909  0.8168034067650938  1.0000
  H   H23       1.0  0.4400572656740273  0.8845762619778658  0.7734118312019314  1.0000
  H   H24       1.0  0.3785972981481552  0.8443139608201768  0.7905433140466712  1.0000
  C   C37       1.0  0.35327333045189646  0.5439986184875263  0.7057845550699414  1.0000
  C   C38       1.0  0.34768056945320175  0.5441764127479256  0.6806061601236877  1.0000
  C   C39       1.0  0.36907492192191077  0.5362928962782099  0.6650079202827736  1.0000
  C   C40       1.0  0.396156647864056  0.5280080596904378  0.6744791587768312  1.0000
  C   C41       1.0  0.40203312823206355  0.5280137997712152  0.6997155445399937  1.0000
  C   C42       1.0  0.3809924938877892  0.5366465776396079  0.7153672299004179  1.0000
  H   H25       1.0  0.32631534214695673  0.5499323533955477  0.673089767729486  1.0000
  H   H26       1.0  0.3639343861345383  0.5357464968836672  0.645609490583434  1.0000
  H   H27       1.0  0.4232892028528132  0.5220355382168692  0.707100090577474  1.0000
  H   H28       1.0  0.38612962469208817  0.5375052236658938  0.734772793142035  1.0000
  C   C43       1.0  0.20726555205621877  0.5642029400613856  0.8135366057951641  1.0000
  C   C44       1.0  0.22790288470210807  0.5937223057262898  0.7973614063762235  1.0000
  C   C45       1.0  0.22000548432166597  0.6238582248324034  0.7938564455554794  1.0000
  C   C46       1.0  0.19138338357991877  0.6243354081474827  0.8064427813421936  1.0000
  C   C47       1.0  0.17023253519204948  0.5942722990475583  0.8220576173459104  1.0000
  C   C48       1.0  0.17821234959575052  0.564381424514336  0.8256467348434309  1.0000
  H   H29       1.0  0.24969872833303364  0.5932210291952134  0.7874175427155096  1.0000
  H   H30       1.0  0.2356687788935741  0.6463463104034904  0.7811607486144968  1.0000
  H   H31       1.0  0.1479467849848652  0.5943602142173743  0.8316980086624212  1.0000
  H   H32       1.0  0.16203426451447012  0.541552608088203  0.8380562075389513  1.0000
  C   C49       1.0  0.4331673483607148  0.6533869533553517  0.8181071939192673  1.0000
  C   C50       1.0  0.44292962247803885  0.6410689987056052  0.7974826810838447  1.0000
  C   C51       1.0  0.47463653594136135  0.6658760207603626  0.7849369213723407  1.0000
  C   C52       1.0  0.49599202165113737  0.7033758244709475  0.7924693103948378  1.0000
  C   C53       1.0  0.4857006844546251  0.7159077723293183  0.8127510866108707  1.0000
  C   C54       1.0  0.45457399592219194  0.690810018197075  0.8257236597422482  1.0000
  H   H33       1.0  0.42676858759321745  0.6121265325919628  0.7917003500734396  1.0000
  H   H34       1.0  0.48295108502064316  0.6558644730795155  0.7696118127087983  1.0000
  H   H35       1.0  0.5021232774189609  0.7446485014162361  0.8187855666642463  1.0000
  H   H36       1.0  0.44722224221051143  0.7004209824211091  0.8417270840481915  1.0000
  C   C55       1.0  0.8298158909598103  0.40961635893110215  0.2649408656700906  1.0000
  C   C56       1.0  0.8394592890680813  0.41019103631068554  0.24080671728053898  1.0000
  C   C57       1.0  0.8430535566023867  0.43974805387334964  0.2251285603350024  1.0000
  C   C58       1.0  0.8374306725204882  0.4689795742882867  0.2336400423915089  1.0000
  C   C59       1.0  0.828088718365158  0.46851726806393656  0.25785100541390904  1.0000
  C   C60       1.0  0.823801366424182  0.43859755731723726  0.27335628711432564  1.0000
  H   H37       1.0  0.8446906428866439  0.38818761335392477  0.23426682306913088  1.0000
  H   H38       1.0  0.8503448288442778  0.440025222466931  0.20642400941761588  1.0000
  H   H39       1.0  0.8238282484739113  0.49102060303967315  0.2645939084042912  1.0000
  H   H40       1.0  0.8150239958742892  0.4374926025072132  0.29170883368232087  1.0000
  C   C61       1.0  0.5903433902965327  0.2509952112610312  0.25646254144989383  1.0000
  C   C62       1.0  0.5948542934875392  0.2643341901920482  0.23244675251211275  1.0000
  C   C63       1.0  0.6237826605440716  0.26634462969839473  0.21885551850159146  1.0000
  C   C64       1.0  0.6491488793589639  0.25630185684636947  0.22946810557127853  1.0000
  C   C65       1.0  0.6449416504231896  0.2432927686306859  0.2535548701600836  1.0000
  C   C66       1.0  0.6152675546099737  0.24015419777008942  0.2669256753534834  1.0000
  H   H41       1.0  0.5755672486778648  0.27235623840729556  0.2241570058381833  1.0000
  H   H42       1.0  0.6266572705197878  0.27610005537815074  0.20017980893933848  1.0000
  H   H43       1.0  0.664042659020999  0.23491478210610853  0.2617942620124698  1.0000
  H   H44       1.0  0.6118246075493452  0.22968155042852081  0.2854684180196902  1.0000
  C   C67       1.0  0.6410245215095605  0.4407136928235707  0.20653205965606072  1.0000
  C   C68       1.0  0.6785195279849465  0.4588628734140619  0.20128904615564877  1.0000
  C   C69       1.0  0.7012398725118664  0.49648101408785666  0.20828754820352366  1.0000
  C   C70       1.0  0.6860144420916116  0.5165215047162283  0.21931580675037854  1.0000
  C   C71       1.0  0.6481607196275688  0.4990280077547183  0.22318593802293052  1.0000
  C   C72       1.0  0.6258628053004311  0.4609184241892844  0.21736726743095292  1.0000
  H   H45       1.0  0.6902083551442302  0.44366447435584866  0.19234591238186238  1.0000
  H   H46       1.0  0.7304304355708315  0.5101435523152834  0.20491489625705878  1.0000
  H   H47       1.0  0.6362525738061904  0.5146634720881412  0.23137399621220225  1.0000
  H   H48       1.0  0.5969057841070573  0.4474576715470558  0.2210610248297223  1.0000
  C   C73       1.0  0.6136179299774851  0.06455092525065685  0.5016459037486373  1.0000
  C   C74       1.0  0.6190585577898196  0.04805179421114048  0.5230527780592761  1.0000
  C   C75       1.0  0.5893747775113952  0.026066565291560095  0.5381379540318854  1.0000
  C   C76       1.0  0.5539214523523951  0.019327925833706232  0.5313482454509777  1.0000
  C   C77       1.0  0.5484301633315236  0.035261789537758395  0.5097232215060706  1.0000
  C   C78       1.0  0.578276710190953  0.05836595193854529  0.49510335825154456  1.0000
  H   H49       1.0  0.646449652674412  0.05292365291543655  0.5281854520509331  1.0000
  H   H50       1.0  0.5940155934148238  0.01456395362172943  0.5550401486093964  1.0000
  H   H51       1.0  0.5209461059733427  0.0296783828912488  0.5042396450434548  1.0000
  H   H52       1.0  0.5738413588691736  0.07054883206595475  0.47840785630507254  1.0000
  C   C79       1.0  0.6778662216729872  0.19851172633730557  0.36199807091680086  1.0000
  C   C80       1.0  0.6754425807722397  0.20791453198205745  0.33759357489092856  1.0000
  C   C81       1.0  0.6981689586217176  0.20511157049773546  0.3203937408810115  1.0000
  C   C82       1.0  0.7236316148368168  0.19303934396018774  0.32747084193604675  1.0000
  C   C83       1.0  0.7253069575326462  0.182440823878702  0.3517577519357844  1.0000
  C   C84       1.0  0.7026687169257216  0.18547944271230968  0.3690750564218031  1.0000
  H   H53       1.0  0.6558543932051674  0.2173743128085088  0.33193716379733235  1.0000
  H   H54       1.0  0.6954735708143686  0.211730679623433  0.3015856338240434  1.0000
  H   H55       1.0  0.7445027023337949  0.17242931301253403  0.35727018594691884  1.0000
  H   H56       1.0  0.7043342053643135  0.17768337913882662  0.3878247552515066  1.0000
  C   C85       1.0  0.5471712703769895  0.3653592080738836  0.3891940503594355  1.0000
  C   C86       1.0  0.5747647277632687  0.4024390628121541  0.38512124597463304  1.0000
  C   C87       1.0  0.5831013799803701  0.416610863428903  0.36131695882363796  1.0000
  C   C88       1.0  0.5644650559741565  0.39354654789555615  0.3414615960413597  1.0000
  C   C89       1.0  0.5372746208449627  0.35623348646738134  0.34556599345576944  1.0000
  C   C90       1.0  0.5284315086371867  0.34226068727977615  0.3694011426717942  1.0000
  H   H57       1.0  0.5897483034686991  0.4203146628898529  0.4002624765379284  1.0000
  H   H58       1.0  0.6042043850638074  0.4454413290282247  0.3583553913495686  1.0000
  H   H59       1.0  0.5227328390670496  0.3382721018890487  0.33039980147299336  1.0000
  H   H60       1.0  0.5070659957970375  0.31351761630626224  0.37245240356541215  1.0000
  C   C91       1.0  0.6116797420524525  0.31893186328527756  0.5106086730854728  1.0000
  C   C92       1.0  0.6339868517432103  0.3015436688654545  0.5114960712653909  1.0000
  C   C93       1.0  0.6210552068131399  0.2654882196405564  0.5016547452912121  1.0000
  C   C94       1.0  0.5851477941222019  0.24608116749549086  0.4920085533577477  1.0000
  C   C95       1.0  0.56247715745465  0.26297818358050584  0.49180296221979025  1.0000
  C   C96       1.0  0.5759950385821584  0.2996699142724733  0.5006480317020953  1.0000
  H   H61       1.0  0.6615308279963328  0.31630110047442134  0.5193130085747627  1.0000
  H   H62       1.0  0.6388243977601714  0.25269504575193186  0.501728370230988  1.0000
  H   H63       1.0  0.534661959078151  0.2480341418579045  0.4844379729048738  1.0000
  H   H64       1.0  0.5585068922822608  0.31275538610220194  0.5002257767773324  1.0000
  C   C97       1.0  0.5258760309299026  0.4875068306757891  0.5165761484811169  1.0000
  C   C98       1.0  0.5607635711816196  0.5131316316612105  0.5256934128453332  1.0000
  C   C99       1.0  0.564898218285949  0.5423480717475043  0.5410646086858111  1.0000
  C   C100      1.0  0.5342386596096909  0.546059328404109  0.5474946333551745  1.0000
  C   C101      1.0  0.49935916004543757  0.5203993210209381  0.5383760763230295  1.0000
  C   C102      1.0  0.4952337283429891  0.49125872099142576  0.5229730698158089  1.0000
  H   H65       1.0  0.5845725510537374  0.5105917605933539  0.5207989449147307  1.0000
  H   H66       1.0  0.5919929620372905  0.5621529326649152  0.5480073861190503  1.0000
  H   H67       1.0  0.4755886108129922  0.5231265305450796  0.5430360757285433  1.0000
  H   H68       1.0  0.46817437236875303  0.4716153560314349  0.5159191553791439  1.0000
  C   C103      1.0  0.9018239632632857  0.5766201113547877  0.37143560490521776  1.0000
  C   C104      1.0  0.9083860938397493  0.5896046705435081  0.34730988786226735  1.0000
  C   C105      1.0  0.8789480244922682  0.5846537104141692  0.33158519763466565  1.0000
  C   C106      1.0  0.8429702136906678  0.5669932239217854  0.340076226684758  1.0000
  C   C107      1.0  0.8367808913561141  0.5560658620087581  0.3645305119978384  1.0000
  C   C108      1.0  0.866155801895239  0.5611011722459056  0.3801832995270593  1.0000
  H   H69       1.0  0.9360614186315672  0.6023536656106269  0.34055705425038596  1.0000
  H   H70       1.0  0.8840382657394199  0.5938072419360977  0.31284653116553907  1.0000
  H   H71       1.0  0.8091346804064498  0.5432257285173266  0.3713565759555437  1.0000
  H   H72       1.0  0.8611390748678689  0.5532721124348946  0.39906681467403793  1.0000
  C   C109      1.0  0.8243176600841501  0.362312786323614  0.43035811244275035  1.0000
  C   C110      1.0  0.7890532893080604  0.33451242798532643  0.4231520802410707  1.0000
  C   C111      1.0  0.7665297219474888  0.3068315292919758  0.4398286321544235  1.0000
  C   C112      1.0  0.7789591707953274  0.30754878179906153  0.4638441898743585  1.0000
  C   C113      1.0  0.8143638098053834  0.3349873157030405  0.4709099677842072  1.0000
  C   C114      1.0  0.8371175764612919  0.36217224293589956  0.45412859864039395  1.0000
  H   H73       1.0  0.7786729913624033  0.33489333189817544  0.40493482859571156  1.0000
  H   H74       1.0  0.7392571518588094  0.28552924172997113  0.4342654301452893  1.0000
  H   H75       1.0  0.8241309124798102  0.3353449703385193  0.48942817702468294  1.0000
  H   H76       1.0  0.8646396278360722  0.3829511793176662  0.4596232166836547  1.0000
  C   C115      1.0  0.7921347080321316  0.5088784553477558  0.4779450024834634  1.0000
  C   C116      1.0  0.792005752311662  0.5192380306610269  0.45352262135298027  1.0000
  C   C117      1.0  0.7605240877760763  0.5189525294960757  0.4429227777716252  1.0000
  C   C118      1.0  0.7288580581752125  0.5074092024736654  0.45655177087670457  1.0000
  C   C119      1.0  0.7290956087034866  0.49717877372989333  0.4809800000960342  1.0000
  C   C120      1.0  0.7609555588979543  0.49873482315778406  0.49178352781081025  1.0000
  H   H77       1.0  0.8161764022477445  0.5277829866643641  0.44282755610327906  1.0000
  H   H78       1.0  0.7605168774253082  0.5271589527600663  0.42406146886068163  1.0000
  H   H79       1.0  0.7049051753762722  0.48866374500347814  0.49166388918136344  1.0000
  H   H80       1.0  0.7611199437264287  0.49131806520691884  0.5107816277893209  1.0000
  C   C121      1.0  0.09616876386625849  0.604339029325472  0.5084252163952323  1.0000
  C   C122      1.0  0.07691906237284107  0.6022448900538049  0.48655610003985295  1.0000
  C   C123      1.0  0.04157517394953075  0.5718344554318101  0.48222608628176095  1.0000
  C   C124      1.0  0.025620019061754012  0.5431071501949061  0.49965627850225625  1.0000
  C   C125      1.0  0.044720674117570844  0.5453406060494068  0.5216104733675628  1.0000
  C   C126      1.0  0.07967661949290245  0.576187132263659  0.5261487162106897  1.0000
  H   H81       1.0  0.08953359838434331  0.6241050098477062  0.4728220921507636  1.0000
  H   H82       1.0  0.02694523086214766  0.5703769703031792  0.46528300097925374  1.0000
  H   H83       1.0  0.03230988856172701  0.5232894695423089  0.5352404973371135  1.0000
  H   H84       1.0  0.09391912482758284  0.5781098030672586  0.5432939900215522  1.0000
  C   C127      1.0  0.7700848832364865  0.925262670764523  0.8557106010878373  1.0000
  C   C128      1.0  0.7554721807257578  0.9429474641216161  0.869780822012275  1.0000
  C   C129      1.0  0.7181156029927515  0.9330569291607157  0.8671204696626669  1.0000
  C   C130      1.0  0.6951861498485131  0.9053420697594582  0.8505095641474222  1.0000
  C   C131      1.0  0.7099804879447735  0.8882924140923476  0.8359823810610345  1.0000
  C   C132      1.0  0.747455497114368  0.8983615869820722  0.8385346803322069  1.0000
  H   H85       1.0  0.7730509286538494  0.9643990332153568  0.8825731244146291  1.0000
  H   H86       1.0  0.7068566488303075  0.9470236077121059  0.8778341864689735  1.0000
  H   H87       1.0  0.6923667820689191  0.8667670799791553  0.8232115232022555  1.0000
  H   H88       1.0  0.7586968745354975  0.8846873073297234  0.8275334301055355  1.0000
  C   C133      1.0  0.2466463265819049  0.36386238160422585  0.8822979270552501  1.0000
  C   C134      1.0  0.24735374601509422  0.34358890711753753  0.8622803930186921  1.0000
  C   C135      1.0  0.2642224041270965  0.36291069385738334  0.8407704237979856  1.0000
  C   C136      1.0  0.2803209058919233  0.40250312363767193  0.8391473228248215  1.0000
  C   C137      1.0  0.28035073498334806  0.42272430793176835  0.8593680852310633  1.0000
  C   C138      1.0  0.26362709702419185  0.40346502748437424  0.8808477613527718  1.0000
  H   H89       1.0  0.23437105522071053  0.31304096082052724  0.8632405461862789  1.0000
  H   H90       1.0  0.2642623430210501  0.34704667711277626  0.8252520026225912  1.0000
  H   H91       1.0  0.2932943431180363  0.45321108282945477  0.8585238262703672  1.0000
  H   H92       1.0  0.26357281735555355  0.4193059619993938  0.8963887027903573  1.0000
  C   C139      1.0  0.9844896635568706  0.12802998927617443  0.9232880780336948  1.0000
  C   C140      1.0  0.012675356061124441  0.16270690700451107  0.9150431225427165  1.0000
  C   C141      1.0  0.04545609368375783  0.18201552573840488  0.9287746655865312  1.0000
  C   C142      1.0  0.04997231378808335  0.1669252131747228  0.9509652267979253  1.0000
  C   C143      1.0  0.021597520442628537  0.13264690828518366  0.9594826266211753  1.0000
  C   C144      1.0  0.9890015075145441  0.11318679422571355  0.9456131770612047  1.0000
  H   H93       1.0  0.009309548718088534  0.17449278739521276  0.8978549309792841  1.0000
  H   H94       1.0  0.0670321248549953  0.2087894816444258  0.9222653870360211  1.0000
  H   H95       1.0  0.024971798416361688  0.12087134635844177  0.9766491643402728  1.0000
  H   H96       1.0  0.9673131489478063  0.08698898253183551  0.9523814169288363  1.0000
  C   C145      1.0  0.1821621881550927  0.8562729582276569  0.8615836881541568  1.0000
  C   C146      1.0  0.17122300001837418  0.8667240906959495  0.8397096086843575  1.0000
  C   C147      1.0  0.182869536500223  0.8601037178865911  0.8175662356713066  1.0000
  C   C148      1.0  0.20559680243696524  0.8431698629440534  0.8172002532583648  1.0000
  C   C149      1.0  0.2162426492322113  0.8323895342633533  0.8390542739438763  1.0000
  C   C150      1.0  0.20435440127368648  0.8387371984033606  0.8611823925769473  1.0000
  H   H97       1.0  0.1537211572820966  0.8797944894500911  0.8398359283805676  1.0000
  H   H98       1.0  0.17447372648578988  0.8684052356492127  0.8006731038733637  1.0000
  H   H99       1.0  0.2340268887768979  0.8196410867132579  0.8389796312151884  1.0000
  H   H100      1.0  0.21291092383852517  0.8306190399524539  0.8780883582150794  1.0000
  C   C151      1.0  0.20168528511193767  0.08064981574851184  0.8719702361208385  1.0000
  C   C152      1.0  0.166446932757881  0.06716423269234942  0.8615250929359428  1.0000
  C   C153      1.0  0.15029516763400913  0.09080133336482193  0.8594655823489047  1.0000
  C   C154      1.0  0.1686192712678161  0.12741790840157222  0.8688152557709283  1.0000
  C   C155      1.0  0.20384970968955343  0.140902224900681  0.8793372119355404  1.0000
  C   C156      1.0  0.22074895248285137  0.11783925466772127  0.8803387746399232  1.0000
  H   H101      1.0  0.15176451170804303  0.038598172611852506  0.8547331832446375  1.0000
  H   H102      1.0  0.12341257535606207  0.08049538014250798  0.8508748690856114  1.0000
  H   H103      1.0  0.21831724854430595  0.16930000727720176  0.8863547171800128  1.0000
  H   H104      1.0  0.2482270700167567  0.12857335226669236  0.888091148765893  1.0000
  C   C157      1.0  0.015592363428130751  0.9334266478947136  0.8801631060719192  1.0000
  C   C158      1.0  0.9904288323724739  0.9460031094399317  0.8731189937980787  1.0000
  C   C159      1.0  0.9692882290749012  0.9509128507216477  0.8906478295510392  1.0000
  C   C160      1.0  0.9722949649569804  0.9418357452947089  0.9149920653432226  1.0000
  C   C161      1.0  0.9976690370057713  0.9296299958270852  0.9219691283129153  1.0000
  C   C162      1.0  0.019537336531459948  0.9258333028389693  0.9046464689681835  1.0000
  H   H105      1.0  0.988065705732751  0.952779879323825  0.8542323556671206  1.0000
  H   H106      1.0  0.9506725303695346  0.9615502397358343  0.885335993063738  1.0000
  H   H107      1.0  0.0006165281476422368  0.9231752074672418  0.9407992145263337  1.0000
  H   H108      1.0  0.03906154988338062  0.9164195665001303  0.9102716670970173  1.0000
  C   C163      1.0  0.06485372207315016  0.8707539023919857  0.021039046456197585  1.0000
  C   C164      1.0  0.06882778698568381  0.8625627945750703  0.9971147474755424  1.0000
  C   C165      1.0  0.0875244838261761  0.8919086075323485  0.980294145768248  1.0000
  C   C166      1.0  0.10254349580068617  0.9295595082035744  0.9874236135676967  1.0000
  C   C167      1.0  0.09951288351051658  0.9377853729405062  0.011521276670819258  1.0000
  C   C168      1.0  0.08086765440685548  0.9084329785906087  0.028339180420644986  1.0000
  H   H109      1.0  0.05682644681334524  0.8334346567727852  0.9914611893441764  1.0000
  H   H110      1.0  0.0901238647814716  0.8853339761003678  0.9618212222748961  1.0000
  H   H111      1.0  0.11152331472418599  0.9668872696045604  0.017204683480046556  1.0000
  H   H112      1.0  0.0788100849282415  0.9149817061136548  0.04690289806193051  1.0000
  C   C169      1.0  0.9117028633072402  0.7377196744915293  0.1567043165565498  1.0000
  C   C170      1.0  0.9404823215659293  0.754759630827664  0.1738297400182908  1.0000
  C   C171      1.0  0.9364772735246892  0.7397178305368404  0.19756163476035016  1.0000
  C   C172      1.0  0.9036913180826712  0.7077788421385891  0.20426505006424614  1.0000
  C   C173      1.0  0.8745779678873358  0.6915230203923084  0.18733770144317446  1.0000
  C   C174      1.0  0.8786779526842824  0.7063059301421912  0.16359352047715192  1.0000
  H   H113      1.0  0.966033548909282  0.7789951965595948  0.16864626654442327  1.0000
  H   H114      1.0  0.9590197349150469  0.7525654250192391  0.2106583136358521  1.0000
  H   H115      1.0  0.8489595603987916  0.6674378640350889  0.1924581351885503  1.0000
  H   H116      1.0  0.8562437623326253  0.693218315280488  0.1504424829859171  1.0000
  C   C175      1.0  0.25984709868432965  0.23952471575747294  0.04481111909275313  1.0000
  C   C176      1.0  0.26228025483259704  0.2641209269219794  0.025648175118917482  1.0000
  C   C177      1.0  0.25977816027616335  0.25271489752502363  0.0014948483269692225  1.0000
  C   C178      1.0  0.25560282629654935  0.21699056665466132  0.9965013443345898  1.0000
  C   C179      1.0  0.25470814204368575  0.19306305309132418  0.015680620511083543  1.0000
  C   C180      1.0  0.25618405406761546  0.20403620116582957  0.03979577911494309  1.0000
  H   H117      1.0  0.26549324902718646  0.29177407604117434  0.02945411174388843  1.0000
  H   H118      1.0  0.26129457354497804  0.2716428018475795  0.986746545721281  1.0000
  H   H119      1.0  0.2522557543266909  0.165759165896666  0.0119777358846338  1.0000
  H   H120      1.0  0.25435171322449823  0.18494040528586758  0.05446847658338786  1.0000
  C   C181      1.0  0.16117311162654782  0.028744451352968416  0.10681931205392861  1.0000
  C   C182      1.0  0.14411725948946438  0.9925860101999621  0.0967314962549792  1.0000
  C   C183      1.0  0.11587831856036201  0.9621290486990526  0.10907124343879833  1.0000
  C   C184      1.0  0.10518317734543976  0.9676141434902411  0.13177613519607997  1.0000
  C   C185      1.0  0.12261096589446044  0.0036339964548639525  0.1420186779119045  1.0000
  C   C186      1.0  0.14986966465837723  0.03430978090992954  0.12928812227788802  1.0000
  H   H121      1.0  0.15274050916980128  0.9880156035162984  0.07937244615471568  1.0000
  H   H122      1.0  0.10293922162756187  0.9342189156072579  0.10123998841815134  1.0000
  H   H123      1.0  0.11438545774037147  0.007909632227581564  0.1595930296357362  1.0000
  H   H124      1.0  0.16218369357446685  0.06209969864357872  0.13700832038451982  1.0000
  C   C187      1.0  0.40918532380690886  0.28258403274989763  0.20863817494972103  1.0000
  C   C188      1.0  0.3801008141337672  0.28358316247988663  0.19531781839072035  1.0000
  C   C189      1.0  0.35480737642239346  0.252049963438754  0.1819113704640886  1.0000
  C   C190      1.0  0.3582302225117014  0.21914525021149545  0.18202443946299124  1.0000
  C   C191      1.0  0.38740648448791276  0.21824450978057292  0.19524537462461006  1.0000
  C   C192      1.0  0.4129657978024972  0.24993845447322569  0.20840035564143175  1.0000
  H   H125      1.0  0.3772059675565867  0.30889420094185854  0.19534390647666142  1.0000
  H   H126      1.0  0.3327257842098932  0.2532076044309208  0.17153476179738772  1.0000
  H   H127      1.0  0.3902261378222901  0.19288075081749614  0.19541646726343037  1.0000
  H   H128      1.0  0.43523277004979644  0.2488676664848548  0.21865467892717674  1.0000
  C   C193      1.0  0.8631732986666508  0.0766037426957288  0.02957990647029135  1.0000
  C   C194      1.0  0.8620424258466562  0.08108269282159367  0.00429035222853047  1.0000
  C   C195      1.0  0.8488623095590492  0.04960022595966108  0.9890984218943127  1.0000
  C   C196      1.0  0.8352676074938608  0.013279792704579137  0.9991735053304593  1.0000
  C   C197      1.0  0.8360591898441253  0.008697831753637031  0.024475955327220023  1.0000
  C   C198      1.0  0.8506964018610981  0.04040663767283417  0.039660618896236385  1.0000
  H   H129      1.0  0.8715409550917205  0.10898425304434106  0.9963978380779618  1.0000
  H   H130      1.0  0.8482579423524896  0.05333627747936672  0.9696028182049053  1.0000
  H   H131      1.0  0.8257295969160268  0.9806542610803766  0.032344398820207454  1.0000
  H   H132      1.0  0.8515461957571758  0.03674460308658811  0.059155628935918594  1.0000
  C   C199      1.0  0.0691164388696964  0.17419418256651378  0.12052697271293845  1.0000
  C   C200      1.0  0.0584877175423841  0.15052644725270783  0.14108590380750397  1.0000
  C   C201      1.0  0.08517564659870366  0.14727245196319186  0.15597694300686812  1.0000
  C   C202      1.0  0.12242577639680803  0.16682469503368125  0.14997404165177478  1.0000
  C   C203      1.0  0.13296607033959923  0.19026445849915175  0.12934676726501526  1.0000
  C   C204      1.0  0.10644596483648638  0.1942611338780186  0.11487237414020926  1.0000
  H   H133      1.0  0.029826832800592534  0.13509123880891122  0.14569131994897497  1.0000
  H   H134      1.0  0.07689904213579914  0.12931659743298568  0.1720067645086978  1.0000
  H   H135      1.0  0.16173230114660103  0.20614841995087158  0.12489465197098511  1.0000
  H   H136      1.0  0.1149399907314984  0.21337009704900708  0.09945185161562867  1.0000
  C   C205      1.0  0.9113167542045811  0.9799627810414312  0.1195561074914761  1.0000
  C   C206      1.0  0.9114629853154256  0.9863680200772852  0.09447644636452746  1.0000
  C   C207      1.0  0.9179705782868713  0.9635423024742692  0.07868776747239775  1.0000
  C   C208      1.0  0.9246411413530544  0.9346348621769502  0.08803391651900629  1.0000
  C   C209      1.0  0.9229587380881844  0.9274024659120245  0.11301010325841998  1.0000
  C   C210      1.0  0.9163088878138637  0.9500217009081057  0.12876174854768896  1.0000
  H   H137      1.0  0.9067810065618698  0.008945211518142537  0.08723871347841212  1.0000
  H   H138      1.0  0.9186579399663459  0.9688373342078641  0.05930721050178284  1.0000
  H   H139      1.0  0.9267873756831133  0.9043837435211481  0.12025248942327538  1.0000
  H   H140      1.0  0.9156775421575709  0.9446519239986281  0.1481324279535501  1.0000
  C   C211      1.0  0.8699699941199213  0.17468187423672055  0.1782253350361081  1.0000
  C   C212      1.0  0.8761668048471203  0.2034935325773948  0.16133062757059757  1.0000
  C   C213      1.0  0.8656813946949403  0.2310054598185508  0.16647426242773664  1.0000
  C   C214      1.0  0.8488262949543071  0.2297795974585125  0.18843184961545603  1.0000
  C   C215      1.0  0.8420543942459713  0.20060406730455718  0.20513030405204669  1.0000
  C   C216      1.0  0.8527471594013359  0.17325726986156556  0.20006311093970974  1.0000
  H   H141      1.0  0.8894862524835913  0.204884701770837  0.14449760441526094  1.0000
  H   H142      1.0  0.8710187554728631  0.2535571926953389  0.15348476453402227  1.0000
  H   H143      1.0  0.8290759274360021  0.19940080337793956  0.22207965656569276  1.0000
  H   H144      1.0  0.847927665792053  0.15108434067636575  0.21323934941482042  1.0000
  N   N1        1.0  0.26894295613622415  0.9723285329332596  0.8516504607525841  1.0000
  C   C217      1.0  0.24682258323099932  0.9508312890171313  0.872609339780541  1.0000
  C   C218      1.0  0.2556612900262968  0.9486211126238239  0.8297432821563527  1.0000
  C   C219      1.0  0.30798343953763385  0.9829791894381845  0.856651333507653  1.0000
  C   C220      1.0  0.2651902719090994  0.006779744895921702  0.8476425388581795  1.0000
  H   H145      1.0  0.2554973002889228  0.9679549450381395  0.8894304633090792  1.0000
  H   H146      1.0  0.24910002099425876  0.9247096065120627  0.8764019678344787  1.0000
  H   H147      1.0  0.21713382418325833  0.9417596624985715  0.869263642889686  1.0000
  H   H148      1.0  0.22647376230645222  0.9407234583224945  0.8251974342393732  1.0000
  H   H149      1.0  0.27216742683493506  0.9635277983885951  0.8136157558990934  1.0000
  H   H150      1.0  0.2571555298601973  0.9218464336728985  0.8323644662197945  1.0000
  H   H151      1.0  0.3255422613940599  0.9993701849834031  0.8412322063338444  1.0000
  H   H152      1.0  0.31161221165761305  0.9574716783957959  0.8596567941376083  1.0000
  H   H153      1.0  0.3187883724354607  0.000682809958798547  0.8731836253842368  1.0000
  H   H154      1.0  0.2811840374713612  0.023680981535590284  0.8318354913008488  1.0000
  H   H155      1.0  0.2749721870637394  0.025417773400889354  0.863809912887823  1.0000
  H   H156      1.0  0.23591452242604594  0.9997019268737489  0.8441493525791186  1.0000
  N   N2        1.0  0.5069214589476282  0.37356593782788866  0.1635766711958901  1.0000
  C   C221      1.0  0.5328341470148238  0.39193603006467587  0.14362544182068593  1.0000
  C   C222      1.0  0.5066711253712192  0.3377907312670597  0.17058688399911995  1.0000
  C   C223      1.0  0.4694075557206919  0.36547054379141686  0.15562673958149684  1.0000
  C   C224      1.0  0.518874993323365  0.39900866220032527  0.1846504055529256  1.0000
  H   H157      1.0  0.5248849019420313  0.3734649623783022  0.12743697946375787  1.0000
  H   H158      1.0  0.5613700396586506  0.3984133166951424  0.1493555903197059  1.0000
  H   H159      1.0  0.5338186024459851  0.4191012730035128  0.13787417097966062  1.0000
  H   H160      1.0  0.48735070405149067  0.3232050729819681  0.1856229830437087  1.0000
  H   H161      1.0  0.497786559197001  0.3177946680381564  0.15517145746243358  1.0000
  H   H162      1.0  0.534565380563108  0.3428859357404648  0.17682786196652658  1.0000
  H   H163      1.0  0.4684406661263407  0.39183014301983304  0.15030348637937146  1.0000
  H   H164      1.0  0.4494404493865662  0.3515641765948917  0.1704866552471622  1.0000
  H   H165      1.0  0.4593358742228385  0.3461213019295058  0.13983296402907114  1.0000
  H   H166      1.0  0.5467579376587033  0.40495111007004386  0.19148219469805985  1.0000
  H   H167      1.0  0.49954164823209773  0.3863042080018659  0.1999052988645508  1.0000
  H   H168      1.0  0.5201311721424372  0.42663389116557715  0.17998642298305667  1.0000
  N   N3        1.0  0.32090158000605185  0.6697997948006338  0.8379771436437127  1.0000
  C   C225      1.0  0.32965147672843764  0.6761288663385203  0.8119231652896919  1.0000
  C   C226      1.0  0.3546506585152984  0.6930674065766302  0.8525622929609762  1.0000
  C   C227      1.0  0.30703689970894144  0.6294271288882017  0.8442954990932269  1.0000
  C   C228      1.0  0.29237763707716397  0.6806057742269083  0.843137474330497  1.0000
  H   H169      1.0  0.3049114363476278  0.659288942923612  0.8002284681139705  1.0000
  H   H170      1.0  0.35106976473381857  0.6681339940011627  0.8074667545843174  1.0000
  H   H171      1.0  0.3404235486084801  0.7064814320812344  0.8067065426059115  1.0000
  H   H172      1.0  0.37670077181048023  0.6855597149234293  0.8489426797300694  1.0000
  H   H173      1.0  0.36579621302754556  0.7237289225505004  0.848229194059974  1.0000
  H   H174      1.0  0.34937012010219903  0.6891527866841997  0.8723452982892338  1.0000
  H   H175      1.0  0.3277156662737878  0.6201953031930197  0.8406273819881518  1.0000
  H   H176      1.0  0.2817146426851993  0.6109781987902236  0.8335866779051618  1.0000
  H   H177      1.0  0.3003677611089126  0.6237428621428623  0.8638442902390073  1.0000
  H   H178      1.0  0.28568627491020315  0.6769842140695057  0.8627161877922932  1.0000
  H   H179      1.0  0.2664379745678112  0.6632439292042722  0.8326421497607696  1.0000
  H   H180      1.0  0.3014733745510435  0.7106513042167292  0.8381742569257703  1.0000
  N   N4        1.0  0.7251925330122811  0.9654615965227884  0.7764214323553614  1.0000
  C   C229      1.0  0.764851301798098  0.9884815742437777  0.7716586023790667  1.0000
  C   C230      1.0  0.7038168598954317  0.9764964732330885  0.759106878271189  1.0000
  C   C231      1.0  0.7180255984333436  0.9717190010483375  0.801549860974791  1.0000
  C   C232      1.0  0.7140850386679287  0.92504370426196  0.773337033708376  1.0000
  H   H181      1.0  0.7710570377698591  0.984347885895813  0.7528094369258718  1.0000
  H   H182      1.0  0.7817576983972415  0.9807229173264431  0.7843611685598885  1.0000
  H   H183      1.0  0.7742029391911253  0.019165178234973768  0.7738800325267244  1.0000
  H   H184      1.0  0.7078133645336504  0.9712215371073472  0.7399622141458496  1.0000
  H   H185      1.0  0.6738164681960549  0.9598033549125815  0.762293582681754  1.0000
  H   H186      1.0  0.7115990630687168  0.006900924619666959  0.7606148699330649  1.0000
  H   H187      1.0  0.6885819135994772  0.9534899685618266  0.8061435632989327  1.0000
  H   H188      1.0  0.7246587813660079  0.001584451442102397  0.804340261380723  1.0000
  H   H189      1.0  0.7347388201005604  0.9649318805497065  0.8150143182901763  1.0000
  H   H190      1.0  0.7297506227315189  0.9156425877614254  0.785941156256708  1.0000
  H   H191      1.0  0.7183095039022354  0.9190037906640799  0.7544307288225521  1.0000
  H   H192      1.0  0.6843640737893903  0.9069534064221041  0.7769263796281503  1.0000
  N   N5        1.0  0.7129468119459424  0.3784650160669725  0.23487629260375945  1.0000
  C   C233      1.0  0.7352544988046322  0.4199776516092592  0.23692441632998812  1.0000
  C   C234      1.0  0.7021335114133451  0.36843012947815085  0.2091636354148082  1.0000
  C   C235      1.0  0.6794988468338784  0.3650768515705397  0.2493608892110858  1.0000
  C   C236      1.0  0.734798174615212  0.36033302208845736  0.24398236148328623  1.0000
  H   H193      1.0  0.7451790555525759  0.4284988489041826  0.2559277176400047  1.0000
  H   H194      1.0  0.7191684056824721  0.43450560753108297  0.23115690046261286  1.0000
  H   H195      1.0  0.7598994702461654  0.4312785091551156  0.2253409308064451  1.0000
  H   H196      1.0  0.7266234808123616  0.3791086409268976  0.19750642892601764  1.0000
  H   H197      1.0  0.6863617221968028  0.33723288717961664  0.20691863263847218  1.0000
  H   H198      1.0  0.68430246105345  0.3803609401995807  0.20197731462101945  1.0000
  H   H199      1.0  0.686393179293835  0.372483475428101  0.2688373092475223  1.0000
  H   H200      1.0  0.6621838990314904  0.33378352790371774  0.24845233667118807  1.0000
  H   H201      1.0  0.6621063621563915  0.3777309429728617  0.24254320090541967  1.0000
  H   H202      1.0  0.7185715906846384  0.3289619274877352  0.2430349868799995  1.0000
  H   H203      1.0  0.7439424533591825  0.36764308963663617  0.26324543083264196  1.0000
  H   H204      1.0  0.7598760247951959  0.3693340467276968  0.23312341459854743  1.0000
  N   N6        1.0  0.39129051192053527  0.6964236538490649  0.5776655508619778  1.0000
  C   C237      1.0  0.3541543892655524  0.6774257350655595  0.5880455149455215  1.0000
  C   C238      1.0  0.41223741115875573  0.7353724533319114  0.5870068500049168  1.0000
  C   C239      1.0  0.38784118825439406  0.6976854069481776  0.550914336530861  1.0000
  C   C240      1.0  0.41092678541068073  0.6750374430267315  0.5846196220270354  1.0000
  H   H205      1.0  0.35553210095175364  0.676296288439057  0.6082217608259546  1.0000
  H   H206      1.0  0.3378609624344256  0.6478171273122276  0.5815134525068566  1.0000
  H   H207      1.0  0.33825621622463103  0.692361724655606  0.5827313108365884  1.0000
  H   H208      1.0  0.4147808989579323  0.7355473300096322  0.6071803717405758  1.0000
  H   H209      1.0  0.44069631342786114  0.7501130623830605  0.5799319918764358  1.0000
  H   H210      1.0  0.39867424205768587  0.7526299533844614  0.5816331522590625  1.0000
  H   H211      1.0  0.3723214797632059  0.7128762307842206  0.5450340474772223  1.0000
  H   H212      1.0  0.3729344156433519  0.6686790916250398  0.5432938066405786  1.0000
  H   H213      1.0  0.41530619018006804  0.7123178595832729  0.5424507914259361  1.0000
  H   H214      1.0  0.4153227338787826  0.674694829016095  0.6046469335298181  1.0000
  H   H215      1.0  0.4384010647235148  0.6875131707940102  0.5762430519858043  1.0000
  H   H216      1.0  0.3952958319672358  0.6452058051621842  0.5785603140733084  1.0000
  N   N7        1.0  0.14770027195305344  0.5309652646995502  0.5066303037119946  1.0000
  C   C241      1.0  0.12647452402413384  0.53909089779352  0.48745388789635485  1.0000
  C   C242      1.0  0.14192953194463237  0.5435484265093914  0.5302236635176822  1.0000
  C   C243      1.0  0.18730288247314233  0.5514791514116434  0.5011371538259503  1.0000
  C   C244      1.0  0.13515696178839456  0.48991289426887785  0.5079156972160348  1.0000
  H   H217      1.0  0.1297557953622228  0.5296656623650329  0.46935431329534805  1.0000
  H   H218      1.0  0.13563743235041634  0.5700046218606577  0.4860032507416238  1.0000
  H   H219      1.0  0.09653176949948977  0.5248072584865682  0.491348936388874  1.0000
  H   H220      1.0  0.15828396863256813  0.5389424240867219  0.5451144113902401  1.0000
  H   H221      1.0  0.1502671733773201  0.5742079871257278  0.5295975056969322  1.0000
  H   H222      1.0  0.11253658698400143  0.5280511672144994  0.5353509010533218  1.0000
  H   H223      1.0  0.1930182721643493  0.5419080471785592  0.48383046286181175  1.0000
  H   H224      1.0  0.20423095586596335  0.5472356642246224  0.5158479343404689  1.0000
  H   H225      1.0  0.1973242377988882  0.5824636120468126  0.49933400062698  1.0000
  H   H226      1.0  0.15062366751718237  0.48313121094119527  0.5224246410613591  1.0000
  H   H227      1.0  0.13924065159351046  0.47935066382245256  0.49044991379951575  1.0000
  H   H228      1.0  0.10537056382558148  0.47365789021336874  0.5120878702981665  1.0000
  N   N8        1.0  0.7357113846107198  0.3852651631566013  0.4759127754916049  1.0000
  C   C245      1.0  0.774684173121527  0.3939657754813808  0.47620570129833834  1.0000
  C   C246      1.0  0.7271423754900788  0.39537528046233983  0.4995266907946101  1.0000
  C   C247      1.0  0.7117605922913378  0.34445118261855573  0.4716493685736615  1.0000
  C   C248      1.0  0.7293157430270983  0.4073416734790908  0.4562836683852188  1.0000
  H   H229      1.0  0.780339398568148  0.37711763566238254  0.49042445307301075  1.0000
  H   H230      1.0  0.793503304612639  0.42442076641568516  0.4799027738954567  1.0000
  H   H231      1.0  0.7823798806777653  0.3876371063886279  0.4584596903809788  1.0000
  H   H232      1.0  0.6985491957960496  0.3911907768663089  0.49955012685273675  1.0000
  H   H233      1.0  0.7299036344101573  0.3779354770512077  0.514626393195566  1.0000
  H   H234      1.0  0.7459559704022073  0.4255119338311147  0.5038805098161098  1.0000
  H   H235      1.0  0.7158615250478378  0.32692762510716644  0.48617242101427877  1.0000
  H   H236      1.0  0.717789930658891  0.33571707718492677  0.45412763554382907  1.0000
  H   H237      1.0  0.6821692019650409  0.33702014742898645  0.47130289924732593  1.0000
  H   H238      1.0  0.7004963042942433  0.4025080572921111  0.4559786417707285  1.0000
  H   H239      1.0  0.7349662527250549  0.4000262980304015  0.4381571751835706  1.0000
  H   H240      1.0  0.7475215963974315  0.4381701685015412  0.4586817643706647  1.0000
  N   N9        1.0  0.20641176630182118  0.085261262946428  0.9544555915207092  1.0000
  C   C249      1.0  0.23963693750322007  0.11608049230967929  0.9434282868399161  1.0000
  C   C250      1.0  0.21605919218470884  0.05829345099648681  0.9671733865891452  1.0000
  C   C251      1.0  0.17843644885008944  0.06538227757352648  0.9352208797637036  1.0000
  C   C252      1.0  0.19142100232473033  0.10120278554077715  0.9719410703356122  1.0000
  H   H241      1.0  0.23323814008825403  0.13683031456384864  0.9335536229745809  1.0000
  H   H242      1.0  0.2517082484343923  0.10495378211298559  0.9301873060671488  1.0000
  H   H243      1.0  0.2611909913935214  0.13226675653611875  0.9574449692159985  1.0000
  H   H244      1.0  0.1916884706611418  0.034994494248214415  0.9760549492215438  1.0000
  H   H245      1.0  0.2264748572628213  0.04490645412303025  0.9543436569471803  1.0000
  H   H246      1.0  0.23762917704708705  0.07248730900192343  0.981542418578873  1.0000
  H   H247      1.0  0.15277825409371298  0.04223192568818136  0.9429211930130375  1.0000
  H   H248      1.0  0.1886715185310605  0.05232346621574581  0.9220705132227223  1.0000
  H   H249      1.0  0.17121872930300308  0.08503757536078994  0.9247432715388416  1.0000
  H   H250      1.0  0.16619418362312663  0.0786785351929364  0.9804841644162323  1.0000
  H   H251      1.0  0.18440598038104467  0.12209566351738971  0.9629678946818444  1.0000
  H   H252      1.0  0.21184062370499984  0.11634623026454091  0.9867105044071436  1.0000
  N   N10       1.0  0.6899649940679367  0.5155209324966719  0.3057848464569172  1.0000
  C   C253      1.0  0.7183450622345506  0.5541952473908353  0.29919250331859243  1.0000
  C   C254      1.0  0.6701290671226902  0.49516952499853223  0.28358084119977744  1.0000
  C   C255      1.0  0.6635859210579501  0.5175170021594866  0.32229929634054083  1.0000
  C   C256      1.0  0.7077303620296986  0.49514546946811405  0.31803568622657097  1.0000
  H   H253      1.0  0.7341671989194872  0.5703963528251478  0.31547161918411815  1.0000
  H   H254      1.0  0.7060978868884447  0.570381131599274  0.2896148295619013  1.0000
  H   H255      1.0  0.7386166617703074  0.5535801844950979  0.2867674906187124  1.0000
  H   H256      1.0  0.6484391161295805  0.4657978296913315  0.2877942773775101  1.0000
  H   H257      1.0  0.6563394494823256  0.5098379318537398  0.2740347059929713  1.0000
  H   H258      1.0  0.6892187864148107  0.49351591265591305  0.2705167781458929  1.0000
  H   H259      1.0  0.6501986193462563  0.5333434514814176  0.31377025375356693  1.0000
  H   H260      1.0  0.6774199525418876  0.5318804831491878  0.3395444237881678  1.0000
  H   H261      1.0  0.6412491004985406  0.4887302302977454  0.32701134610122573  1.0000
  H   H262      1.0  0.6870643924940156  0.465933716815361  0.32342313236867054  1.0000
  H   H263      1.0  0.7233786028114144  0.510085257242988  0.3347266297784692  1.0000
  H   H264      1.0  0.7278547766772774  0.4932014126365704  0.30604473653422704  1.0000
  N   N11       1.0  0.8727872683757409  0.8746153654819416  0.8562246546640274  1.0000
  C   C257      1.0  0.8362944659368104  0.8498278489646416  0.8449944777482697  1.0000
  C   C258      1.0  0.8908187672181982  0.9104692098925931  0.8422155460329368  1.0000
  C   C259      1.0  0.8958965651921508  0.8557664062725817  0.8561237086183805  1.0000
  C   C260      1.0  0.8679862866971806  0.8824004740775827  0.8815398728081745  1.0000
  H   H265      1.0  0.8216661543785302  0.8225295733249678  0.8551006213073692  1.0000
  H   H266      1.0  0.8386904274458059  0.843266168161623  0.8258577263807951  1.0000
  H   H267      1.0  0.8183801023442832  0.8635409064891826  0.844823379778984  1.0000
  H   H268      1.0  0.9185635479580079  0.9297676805486618  0.8498530189576085  1.0000
  H   H269      1.0  0.8942387802268922  0.9054893070956417  0.822933593760898  1.0000
  H   H270      1.0  0.8745379080876795  0.9258611731292566  0.8422622766533661  1.0000
  H   H271      1.0  0.9004452365232691  0.8497660705094329  0.8373057600294048  1.0000
  H   H272      1.0  0.8830438523248206  0.8284674583253756  0.8663774350118792  1.0000
  H   H273      1.0  0.9235313252782785  0.8737364660308296  0.8646951018682129  1.0000
  H   H274      1.0  0.8947628361317421  0.9008696406385422  0.8907986730816024  1.0000
  H   H275      1.0  0.8541657495529485  0.8559283582788629  0.8925481450118699  1.0000
  H   H276      1.0  0.850919670786774  0.8968391382760622  0.882250216204742  1.0000
  N   N12       1.0  0.9682324040444247  0.8794037720077971  0.0025550949611046203  1.0000
  C   C261      1.0  0.9964335329459068  0.9004780471666343  0.021393058836072232  1.0000
  C   C262      1.0  0.936393097441135  0.8472759687259871  0.013922394891987988  1.0000
  C   C263      1.0  0.9841104349771531  0.8650246937993523  0.9846000869680436  1.0000
  C   C264      1.0  0.9561267027118595  0.9048896653988725  0.9904839990938105  1.0000
  H   H277      1.0  0.9863797023260186  0.9137329565754087  0.0344601589438398  1.0000
  H   H278      1.0  0.021843368906892202  0.9234526116867379  0.013357656821263886  1.0000
  H   H279      1.0  0.004170693783989821  0.881407966091237  0.03199374597078619  1.0000
  H   H280      1.0  0.9139585031526746  0.8315300527638079  0.0003779316730572191  1.0000
  H   H281      1.0  0.9443937491421553  0.8268484081625342  0.02252737608391553  1.0000
  H   H282      1.0  0.9248040229452844  0.8570225158310236  0.028395064180656737  1.0000
  H   H283      1.0  0.9640576665020808  0.8499151199856395  0.9696292079135116  1.0000
  H   H284      1.0  0.9926060065997334  0.8449759562213166  0.9932730824292824  1.0000
  H   H285      1.0  0.009158380976702407  0.8883843483038697  0.9763847299531788  1.0000
  H   H286      1.0  0.9351471882063763  0.8901909074640654  0.975880560243666  1.0000
  H   H287      1.0  0.9795640976420043  0.9298128724794501  0.9820608735560106  1.0000
  H   H288      1.0  0.9436170432144562  0.9157492892406189  0.0036238874600766913  1.0000
  N   N13       1.0  0.9240148406771911  0.6204611807265492  0.17564129188865077  1.0000
  C   C265      1.0  0.925963689882645  0.6320786837483269  0.2010818041467482  1.0000
  C   C266      1.0  0.909781232613617  0.6410422086960348  0.15985240027156875  1.0000
  C   C267      1.0  0.8990654705670093  0.5793293244874621  0.17374576120003996  1.0000
  C   C268      1.0  0.9612123437488302  0.6294964165159915  0.1679655276097946  1.0000
  H   H289      1.0  0.9443316605614778  0.6630424818172579  0.20329727806526082  1.0000
  H   H290      1.0  0.9362696338654584  0.6170038437259768  0.21367335490260897  1.0000
  H   H291      1.0  0.8984220360566582  0.6259111895239258  0.20737792024296364  1.0000
  H   H292      1.0  0.9273651143785879  0.672266411171685  0.16135487383307195  1.0000
  H   H293      1.0  0.9086490603948983  0.6337636389649531  0.1404043797065446  1.0000
  H   H294      1.0  0.8814467631608298  0.6342977291385116  0.16486993336857136  1.0000
  H   H295      1.0  0.8969857400520299  0.5693389591502053  0.15485197260686945  1.0000
  H   H296      1.0  0.8707048592733684  0.5717279149772335  0.1793241017040507  1.0000
  H   H297      1.0  0.9084827530019515  0.5628267849732291  0.1857929409149285  1.0000
  H   H298      1.0  0.9608135101307953  0.6211674213025986  0.14881563711625456  1.0000
  H   H299      1.0  0.9728282592236799  0.6145499591160034  0.17958890003906655  1.0000
  H   H300      1.0  0.9805144134270416  0.6604216567639566  0.16922065444704043  1.0000
  N   N14       1.0  0.4725465398649604  0.4091862668535006  0.42739124282060603  1.0000
  C   C269      1.0  0.4332531631665077  0.39401059247179904  0.42048285434190047  1.0000
  C   C270      1.0  0.48724623109874543  0.44812811164574295  0.4364818254369208  1.0000
  C   C271      1.0  0.4932752596692837  0.40949666108533783  0.4059733073285681  1.0000
  C   C272      1.0  0.47631137559087294  0.3849856615192795  0.44668833155985316  1.0000
  H   H301      1.0  0.41689221000479165  0.3933681644169832  0.4362906975134365  1.0000
  H   H302      1.0  0.42134936942040424  0.36462684538395307  0.4136017803444706  1.0000
  H   H303      1.0  0.429374599294247  0.4116044902980717  0.405949313699724  1.0000
  H   H304      1.0  0.47258860609978054  0.4488416389802828  0.45288993246004355  1.0000
  H   H305      1.0  0.5168211650520358  0.46044162187783966  0.4420141353681173  1.0000
  H   H306      1.0  0.4848912250251126  0.4673182418675261  0.42249210377002744  1.0000
  H   H307      1.0  0.48335476065946853  0.3804577499142548  0.3989126311957209  1.0000
  H   H308      1.0  0.5230505252620369  0.4208645574964036  0.4105232705796623  1.0000
  H   H309      1.0  0.4909974208067796  0.4272724006853259  0.3909206790498869  1.0000
  H   H310      1.0  0.4613890353862429  0.3843131580986586  0.46328957321740677  1.0000
  H   H311      1.0  0.5055328962701773  0.3957872013154841  0.45236072384686976  1.0000
  H   H312      1.0  0.466037543138939  0.35546091932601004  0.44048277970924443  1.0000
  N   N15       1.0  0.717140217092709  0.9151033629397597  0.9438336101028025  1.0000
  C   C273      1.0  0.7327131723384455  0.9560172995692278  0.9385318730591918  1.0000
  C   C274      1.0  0.7428008372732857  0.9019514934451154  0.9358506245452435  1.0000
  C   C275      1.0  0.6813476800282858  0.8940588895478037  0.9307670238650549  1.0000
  C   C276      1.0  0.711781487222618  0.9084082325247174  0.9702648986725839  1.0000
  H   H313      1.0  0.7141574676325702  0.9669785614829098  0.9443759625186783  1.0000
  H   H314      1.0  0.737328475085155  0.9622514176919202  0.9188124354142219  1.0000
  H   H315      1.0  0.7597392504903476  0.9726887099196596  0.9481420737977762  1.0000
  H   H316      1.0  0.7699842673844307  0.9171309463779377  0.9454874636783377  1.0000
  H   H317      1.0  0.7319652647899364  0.8712103426606244  0.9395674802270011  1.0000
  H   H318      1.0  0.747748845673127  0.9067829429831722  0.9160297653559865  1.0000
  H   H319      1.0  0.6685438597704103  0.8631517182119062  0.9346801038656287  1.0000
  H   H320      1.0  0.6843798074871408  0.8977576134620718  0.9107310071566002  1.0000
  H   H321      1.0  0.6614886331412846  0.903760633230603  0.9359344286218105  1.0000
  H   H322      1.0  0.6926290163881698  0.9180508169269608  0.9769641617509643  1.0000
  H   H323      1.0  0.7382924400043148  0.924004578293696  0.9806656752609172  1.0000
  H   H324      1.0  0.7003757997863416  0.8778982527552125  0.9750399219981764  1.0000
  N   N16       1.0  0.45234303268150755  0.6600568046319336  0.7058322857051379  1.0000
  C   C277      1.0  0.4264979137733104  0.6412887382709247  0.7257930624956724  1.0000
  C   C278      1.0  0.44276573822621434  0.6869525403455742  0.6929594172000618  1.0000
  C   C279      1.0  0.449748963459544  0.6312892606445019  0.688612345018549  1.0000
  C   C280      1.0  0.49036629131995946  0.680801184637284  0.7158810040723582  1.0000
  H   H325      1.0  0.43247218853777125  0.6202809277838455  0.7356432614815974  1.0000
  H   H326      1.0  0.39745321270111694  0.625913370023514  0.7188863785590123  1.0000
  H   H327      1.0  0.4281969848505308  0.6620951707559003  0.7393833215869348  1.0000
  H   H328      1.0  0.46177338153937714  0.7015821356686298  0.677761866876853  1.0000
  H   H329      1.0  0.4143156935846847  0.672257315205434  0.6850190044467347  1.0000
  H   H330      1.0  0.4444489748291044  0.7090653698690419  0.7054131853574378  1.0000
  H   H331      1.0  0.42158916237815597  0.6155736942575523  0.6803501393616915  1.0000
  H   H332      1.0  0.45632698959478735  0.610180462786144  0.6976954775022886  1.0000
  H   H333      1.0  0.4691835565545101  0.6444197443349545  0.6734528788535715  1.0000
  H   H334      1.0  0.51050304545825  0.6957095841506712  0.7013035840169222  1.0000
  H   H335      1.0  0.49880775270978434  0.661458309944074  0.7255313173067462  1.0000
  H   H336      1.0  0.49330264028714454  0.7025140652983123  0.7291928038872818  1.0000
  N   N17       1.0  0.035322507576662845  0.02337305443222278  0.12061580258279302  1.0000
  C   C281      1.0  0.007504841299695863  0.033951639291196815  0.11139015075804434  1.0000
  C   C282      1.0  0.05477009282950651  0.018995580332302017  0.09994423448353497  1.0000
  C   C283      1.0  0.01693633631008945  0.9871478858073611  0.1342078019823849  1.0000
  C   C284      1.0  0.06195420347985295  0.05328984156366768  0.13685556737942234  1.0000
  H   H337      1.0  0.9877675997871622  0.01255814604032793  0.09847770908930234  1.0000
  H   H338      1.0  0.02040145045519945  0.06176158705415339  0.10173487188042543  1.0000
  H   H339      1.0  0.9911608581400475  0.03598876947002852  0.1263873173880835  1.0000
  H   H340      1.0  0.07544745515607805  0.010278805579191141  0.10620213167186016  1.0000
  H   H341      1.0  0.03528417292967774  0.9967663860240307  0.08727474841184266  1.0000
  H   H342      1.0  0.06949581932885839  0.04584448559064774  0.0894356621655842  1.0000
  H   H343      1.0  0.037244722616915096  0.9793145633261258  0.1425681142450858  1.0000
  H   H344      1.0  0.9983974262968819  0.9634739158716691  0.1221317588285659  1.0000
  H   H345      1.0  5.770630377099563e-06  0.9884017983422374  0.14905353020298404  1.0000
  H   H346      1.0  0.0833874085597849  0.0463185203466499  0.14418209582176686  1.0000
  H   H347      1.0  0.048052243902125466  0.057221900835676666  0.15261387416812322  1.0000
  H   H348      1.0  0.07640704899035387  0.08103513091389736  0.12719432319022944  1.0000
  N   N18       1.0  0.2815082424411913  0.8220838984378783  0.6333422684989687  1.0000
  C   C285      1.0  0.27778769408612314  0.796708407340345  0.6132954014020053  1.0000
  C   C286      1.0  0.24790440726064292  0.8043729407624627  0.647903690997225  1.0000
  C   C287      1.0  0.28659763331972504  0.8585332064901238  0.623155719134624  1.0000
  C   C288      1.0  0.31377802139059946  0.8287999256482206  0.6489811490647676  1.0000
  H   H349      1.0  0.3021960167065212  0.809613786665051  0.6014734819635247  1.0000
  H   H350      1.0  0.2530220488511995  0.7899428749779697  0.6015751247819926  1.0000
  H   H351      1.0  0.27501655147986337  0.7693338381907086  0.6203274981732256  1.0000
  H   H352      1.0  0.24306580892570087  0.7765781258056711  0.6554241553834284  1.0000
  H   H353      1.0  0.2499841037529962  0.8221629281610441  0.6636038970551456  1.0000
  H   H354      1.0  0.22298417451905775  0.7991117636465427  0.6367943659852714  1.0000
  H   H355      1.0  0.28940457043376355  0.8783187717328199  0.6377996611915374  1.0000
  H   H356      1.0  0.2628803146618184  0.8545251554139616  0.6111179754625587  1.0000
  H   H357      1.0  0.31190493096303085  0.872617903277176  0.6121626314751653  1.0000
  H   H358      1.0  0.31692552727889034  0.8469973379170253  0.6646848908364437  1.0000
  H   H359      1.0  0.3397310781408539  0.8427512800903394  0.6387075553049016  1.0000
  H   H360      1.0  0.31142025623565367  0.8019535980167689  0.6566416299341449  1.0000
  N   N19       1.0  0.8178320361973694  0.294873503616675  0.3513321965093141  1.0000
  C   C289      1.0  0.8254070566639999  0.3108136594623364  0.3759811059004213  1.0000
  C   C290      1.0  0.8444791028690383  0.3227553159617218  0.3343370957132868  1.0000
  C   C291      1.0  0.7801027384875846  0.2859558187501433  0.3433766504882056  1.0000
  C   C292      1.0  0.821284741236811  0.2600055124966033  0.3516324899799183  1.0000
  H   H361      1.0  0.8057250816899749  0.2904859953288955  0.38928831350104737  1.0000
  H   H362      1.0  0.8230197391496239  0.3371282307402625  0.3763284245885962  1.0000
  H   H363      1.0  0.8536647853403642  0.31810881613832825  0.3826913586691445  1.0000
  H   H364      1.0  0.873249231036457  0.3299427596460643  0.3395991350076577  1.0000
  H   H365      1.0  0.8391400745949269  0.3117413458649134  0.3154981967023362  1.0000
  H   H366      1.0  0.8426082008826341  0.3494212616239465  0.3336768390274781  1.0000
  H   H367      1.0  0.776684636080607  0.3117219723477597  0.3422721508708724  1.0000
  H   H368      1.0  0.7592005658357086  0.265600442323994  0.3560597523881402  1.0000
  H   H369      1.0  0.7731743556591023  0.272876747076467  0.32510560501358093  1.0000
  H   H370      1.0  0.8166414488937274  0.24771418028853834  0.33317045397312284  1.0000
  H   H371      1.0  0.800689375285772  0.23790768259445166  0.3636659730533279  1.0000
  H   H372      1.0  0.8490782917263039  0.26541866599989833  0.358164483556011  1.0000
  N   N20       1.0  0.7319375690683803  0.21389823628169005  0.1601878062767742  1.0000
  C   C293      1.0  0.7525524458937576  0.25377410246870974  0.16777036481146232  1.0000
  C   C294      1.0  0.7537818965540747  0.19453580627913433  0.16658705292189935  1.0000
  C   C295      1.0  0.7250865392823241  0.21243591428505904  0.13364830892162616  1.0000
  C   C296      1.0  0.6964338474069544  0.19504049628646974  0.1727338728596556  1.0000
  H   H373      1.0  0.7367997673755654  0.2692889614551443  0.16367538292865072  1.0000
  H   H374      1.0  0.7796770801494802  0.26902747497266155  0.15884815212748996  1.0000
  H   H375      1.0  0.758372613774846  0.25567837792701836  0.187615358987198  1.0000
  H   H376      1.0  0.7599972937498246  0.1955843432546071  0.18645952957304687  1.0000
  H   H377      1.0  0.7391414000718292  0.16428696134477688  0.16130794914136765  1.0000
  H   H378      1.0  0.7808511364557043  0.20824581395000097  0.15750614900995222  1.0000
  H   H379      1.0  0.7096325160656385  0.1827284045891261  0.12726569396773105  1.0000
  H   H380      1.0  0.7514144811818204  0.22658031240596677  0.12372305398710139  1.0000
  H   H381      1.0  0.7087489466595864  0.2268979320082785  0.12822405123980496  1.0000
  H   H382      1.0  0.679934918041109  0.1648885367547927  0.16747392879002726  1.0000
  H   H383      1.0  0.6795458841281922  0.20938249761604588  0.1686411921359228  1.0000
  H   H384      1.0  0.7006052501416675  0.19575774795236045  0.1928123102959591  1.0000
  N   N21       1.0  0.5662231838114594  0.1371917193273463  0.541538923689246  1.0000
  C   C297      1.0  0.5851403163621792  0.17899637563010096  0.5414738036967226  1.0000
  C   C298      1.0  0.5481551483279539  0.12348715994382406  0.517565709447768  1.0000
  C   C299      1.0  0.5381439704333838  0.1225166051545184  0.5604999403793287  1.0000
  C   C300      1.0  0.5933048226410579  0.12365560528477856  0.5466166797153743  1.0000
  H   H385      1.0  0.5655790246008595  0.1901875077214992  0.5373576710207724  1.0000
  H   H386      1.0  0.6064111128564597  0.1908750483880162  0.5273433523289144  1.0000
  H   H387      1.0  0.5990542531867064  0.19053378547344427  0.5592568312197665  1.0000
  H   H388      1.0  0.568664095654239  0.13230672394112292  0.5029208077557027  1.0000
  H   H389      1.0  0.5318618264085855  0.09216233063511745  0.5173556747014025  1.0000
  H   H390      1.0  0.5290503250292993  0.13489924750495189  0.5125235364796652  1.0000
  H   H391      1.0  0.5234490922534123  0.09096066496059634  0.5610339779017861  1.0000
  H   H392      1.0  0.5171217156327222  0.13198160801030337  0.5571568070661541  1.0000
  H   H393      1.0  0.5507950675313027  0.13230220977272678  0.5788476810298416  1.0000
  H   H394      1.0  0.5796317067826401  0.09228845125011326  0.5479763971620188  1.0000
  H   H395      1.0  0.6087273970555043  0.13487521796502974  0.5640296616821437  1.0000
  H   H396      1.0  0.61380597459553  0.13225015637047355  0.5319998406023901  1.0000
  N   N22       1.0  0.8592284387387905  0.03289097885210549  0.19804682170452914  1.0000
  C   C301      1.0  0.8529011492538686  0.9943089640222692  0.20415634730409157  1.0000
  C   C302      1.0  0.8992184705114549  0.05868389934769912  0.19656193492899032  1.0000
  C   C303      1.0  0.8439092764569578  0.04632927396417508  0.2169586740046671  1.0000
  C   C304      1.0  0.8409385820049342  0.0323176252378959  0.17443156011140257  1.0000
  H   H397      1.0  0.8230227746185838  0.9739788616357159  0.20540106353096307  1.0000
  H   H398      1.0  0.8664257862808779  0.993559704966594  0.22181195247429716  1.0000
  H   H399      1.0  0.8642315060221152  0.9836743678534391  0.1900008393051652  1.0000
  H   H400      1.0  0.913838335465838  0.059823047166656144  0.21407947451075296  1.0000
  H   H401      1.0  0.9117664691185142  0.04960804882987507  0.18242124875530136  1.0000
  H   H402      1.0  0.9051085726338958  0.08804123833280726  0.19186092644237956  1.0000
  H   H403      1.0  0.8484897640042628  0.07549013232486501  0.21262081056580392  1.0000
  H   H404      1.0  0.8570838324912463  0.04726874844783349  0.235054379720759  1.0000
  H   H405      1.0  0.8137344953621442  0.02770490381100891  0.21856847928251114  1.0000
  H   H406      1.0  0.8450700713400369  0.060912719798125445  0.16919268240194132  1.0000
  H   H407      1.0  0.8107708855241531  0.013041090849892144  0.17488544384425256  1.0000
  H   H408      1.0  0.8519486874259415  0.02262226793631377  0.1596469814790323  1.0000
  N   N23       1.0  0.8821235766431292  0.4682314025698952  0.34222791871992797  1.0000
  C   C305      1.0  0.8748046453329937  0.4976308269799435  0.3308161871958201  1.0000
  C   C306      1.0  0.9018574607396783  0.45709730887475336  0.3251185820401953  1.0000
  C   C307      1.0  0.8469364571636563  0.43489923031840383  0.3485835111042041  1.0000
  C   C308      1.0  0.9049274561784834  0.48349697192485536  0.36452393954282086  1.0000
  H   H409      1.0  0.8587557681595628  0.5055756251751922  0.34294780620235377  1.0000
  H   H410      1.0  0.8588745915979669  0.48813817127643844  0.31347846001546903  1.0000
  H   H411      1.0  0.9008461733242902  0.5237677949096048  0.32673948521025226  1.0000
  H   H412      1.0  0.8852087946179799  0.4452125874172239  0.3081483328318944  1.0000
  H   H413      1.0  0.9283674325527567  0.48176495400138586  0.31981563738640145  1.0000
  H   H414      1.0  0.9081174753083234  0.43518861820015275  0.3332659686392595  1.0000
  H   H415      1.0  0.8289743007762082  0.4225057338822172  0.33221961681886486  1.0000
  H   H416      1.0  0.8314823058726543  0.44241289764126995  0.36158370957021085  1.0000
  H   H417      1.0  0.8516106016991862  0.4123918502018294  0.3574722612348506  1.0000
  H   H418      1.0  0.910395916884816  0.4619429821316652  0.37410400085897333  1.0000
  H   H419      1.0  0.8910564107237062  0.4929634313046101  0.37748641297378566  1.0000
  H   H420      1.0  0.9318723780223217  0.508661739431457  0.36056442013578355  1.0000
  N   N24       1.0  0.2733622118902214  0.053529350904628556  0.14093362694612754  1.0000
  C   C309      1.0  0.28899377562533807  0.07568611101265198  0.16331714373147022  1.0000
  C   C310      1.0  0.23316660532786979  0.02961911592781705  0.1432408343382621  1.0000
  C   C311      1.0  0.2904571478402489  0.029265796532981406  0.13711915429358779  1.0000
  C   C312      1.0  0.28078620611354393  0.07963595573247127  0.11998397969703303  1.0000
  H   H421      1.0  0.31919067144373753  0.09478262406288605  0.1620180276603515  1.0000
  H   H422      1.0  0.2843139261171562  0.05702053597971834  0.17953077726178343  1.0000
  H   H423      1.0  0.2764320384838997  0.09409688617094945  0.16677701768728143  1.0000
  H   H424      1.0  0.22025840647258332  0.013264436766950589  0.12638969053254104  1.0000
  H   H425      1.0  0.22630012222725354  0.009023495196052389  0.158593739534632  1.0000
  H   H426      1.0  0.21952271354335284  0.04706318547316302  0.14643318087554283  1.0000
  H   H427      1.0  0.27916101638529417  0.012234257146402874  0.12033310882629575  1.0000
  H   H428      1.0  0.28533865577914275  0.00913113936285681  0.15258381812935443  1.0000
  H   H429      1.0  0.3207967827877725  0.04644894233623948  0.13525270208064255  1.0000
  H   H430      1.0  0.2679524175450603  0.09801632418338685  0.12225527272318353  1.0000
  H   H431      1.0  0.2691863470962557  0.06402412722039556  0.10272318583144725  1.0000
  H   H432      1.0  0.3108044301871445  0.09854525641936787  0.11775633673099978  1.0000
  N   N25       1.0  0.949866627588011  0.5705756960240335  0.5356847216549105  1.0000
  C   C313      1.0  0.9748612537091852  0.5936546482826115  0.5162310757165688  1.0000
  C   C314      1.0  0.9153040866285643  0.5408189976245482  0.5247317636345625  1.0000
  C   C315      1.0  0.941561560499279  0.595060591599647  0.5509158303133117  1.0000
  C   C316      1.0  0.9676937307158192  0.5527628821857993  0.5507983291167123  1.0000
  H   H433      1.0  0.0018300552337620068  0.6155697093963208  0.5237050105811251  1.0000
  H   H434      1.0  0.9626614886659454  0.6082103418519702  0.5047626894229389  1.0000
  H   H435      1.0  0.9806710669927844  0.5758427955827891  0.5039347313367456  1.0000
  H   H436      1.0  0.9204602791600239  0.5214217258212408  0.5133848763903209  1.0000
  H   H437      1.0  0.8953676257173296  0.5231206945148541  0.5387535029519538  1.0000
  H   H438      1.0  0.9013867713951786  0.5531975368672726  0.5128551633223356  1.0000
  H   H439      1.0  0.9227380587876096  0.5785703592527327  0.5657875905821848  1.0000
  H   H440      1.0  0.9278540724948009  0.6086807414583094  0.5399916328791605  1.0000
  H   H441      1.0  0.9670903933473697  0.6179599610730145  0.5593561114177997  1.0000
  H   H442      1.0  0.9945064007530258  0.5742554237017842  0.5587379996835662  1.0000
  H   H443      1.0  0.9733476150531959  0.5333256631768986  0.5398966987750584  1.0000
  H   H444      1.0  0.9499110997855169  0.535704617294155  0.5659375109067805  1.0000
  N   N26       1.0  0.14681090485989584  0.21127166656902857  0.03866482009977494  1.0000
  C   C317      1.0  0.15276183838512983  0.1842650598810349  0.05435192559305948  1.0000
  C   C318      1.0  0.15846419852068044  0.2101418604866926  0.013796662097092627  1.0000
  C   C319      1.0  0.16875731345527858  0.24985882618981914  0.04837541416426041  1.0000
  C   C320      1.0  0.10736139305846455  0.20086793088468216  0.038035341095822454  1.0000
  H   H445      1.0  0.14407913296282493  0.18416315532010524  0.07324661566671459  1.0000
  H   H446      1.0  0.18240838125833295  0.19177841911025162  0.055383286618612214  1.0000
  H   H447      1.0  0.1371723607231784  0.1549301606528879  0.0473985041134761  1.0000
  H   H448      1.0  0.15560576306387536  0.2311507701611668  0.001648257097700112  1.0000
  H   H449      1.0  0.18766155327414216  0.21651386212886778  0.013615329791293986  1.0000
  H   H450      1.0  0.14173570132789143  0.18185052982250552  0.005491124718247199  1.0000
  H   H451      1.0  0.16101561292370992  0.25172451446370453  0.06723314113609417  1.0000
  H   H452      1.0  0.16512126102476246  0.2710950153397586  0.036954028072666345  1.0000
  H   H453      1.0  0.1986755005715316  0.2586100188188031  0.04898644022078638  1.0000
  H   H454      1.0  0.09743624942065371  0.20139836667848435  0.05649092527233019  1.0000
  H   H455      1.0  0.09014781890653407  0.17195553103571148  0.03068647300722475  1.0000
  H   H456      1.0  0.10216563598038496  0.2206911928078249  0.02614203380701996  1.0000
  N   N27       1.0  0.5769636033443938  0.2657648840218904  0.41143979240257306  1.0000
  C   C321      1.0  0.5842554618096071  0.23419306907315696  0.4061395315054101  1.0000
  C   C322      1.0  0.5776034863964936  0.28628691655652716  0.3886593234967255  1.0000
  C   C323      1.0  0.6055281325562003  0.29199140514014094  0.4285661017642738  1.0000
  C   C324      1.0  0.5404693873119693  0.25065001519825425  0.4224575842763174  1.0000
  H   H457      1.0  0.5832022134052387  0.2175472496921507  0.42285293127197515  1.0000
  H   H458      1.0  0.6119285949260764  0.2445772979679856  0.39828565372372055  1.0000
  H   H459      1.0  0.5637583116216307  0.2142538152682386  0.3928348884084584  1.0000
  H   H460      1.0  0.5730131483019307  0.31078523255154206  0.39213451407571065  1.0000
  H   H461      1.0  0.6044954106862731  0.29737552654699256  0.3795879556383171  1.0000
  H   H462      1.0  0.5558169202950446  0.26766944450570523  0.3754771395529043  1.0000
  H   H463      1.0  0.6003090251258348  0.31571587630149245  0.43334543098481737  1.0000
  H   H464      1.0  0.6333875731448904  0.30435061783162604  0.42073565391285295  1.0000
  H   H465      1.0  0.6061427277970979  0.2772155758511125  0.4457749859239182  1.0000
  H   H466      1.0  0.534276655384487  0.2737988684915482  0.4269621816016371  1.0000
  H   H467      1.0  0.5390506771886167  0.23471883564517665  0.43958338742478215  1.0000
  H   H468      1.0  0.5181602359163674  0.23104901052606167  0.40996648534707747  1.0000
  N   N28       1.0  0.30001486311461695  0.4273399972020363  0.7302172199827491  1.0000
  C   C325      1.0  0.30201567166361587  0.44250242641081877  0.7052407867554562  1.0000
  C   C326      1.0  0.3060826328793328  0.39405792552527835  0.7300080038147508  1.0000
  C   C327      1.0  0.26340287032267695  0.41625041309490407  0.7400383630047528  1.0000
  C   C328      1.0  0.3286584720579636  0.45672696362235465  0.7457344497424031  1.0000
  H   H469      1.0  0.2969528429257735  0.4673333515223811  0.7048346538593282  1.0000
  H   H470      1.0  0.28119134474665747  0.4209757631616062  0.6928451972215929  1.0000
  H   H471      1.0  0.3296543859702692  0.45221486424274326  0.6974658320329064  1.0000
  H   H472      1.0  0.304858044895268  0.3822297771031163  0.748696958469402  1.0000
  H   H473      1.0  0.2849237473570802  0.37115987344463425  0.7185188438304053  1.0000
  H   H474      1.0  0.3335671123285233  0.40158287228221023  0.7227660847826979  1.0000
  H   H475      1.0  0.2575446004858285  0.4405229494648624  0.7396006680552256  1.0000
  H   H476      1.0  0.2616049732775158  0.40637441047950784  0.7593012314102167  1.0000
  H   H477      1.0  0.2410989943321445  0.39311972528730815  0.7293281219524734  1.0000
  H   H478      1.0  0.3280635421065349  0.4464366585470135  0.7647341729313671  1.0000
  H   H479      1.0  0.3247653948945387  0.4821605588868152  0.7463524829846899  1.0000
  H   H480      1.0  0.35670245051987515  0.46578021642604966  0.7389732555794404  1.0000
  N   N29       1.0  0.17793460231799266  0.41554108968870956  0.8427128074128877  1.0000
  C   C329      1.0  0.14871028481250162  0.3965665977816475  0.8606761257533925  1.0000
  C   C330      1.0  0.18948435730953503  0.38847310042754357  0.8341025071264596  1.0000
  C   C331      1.0  0.20975645144720184  0.44796294767646905  0.8542294079608422  1.0000
  C   C332      1.0  0.16392203224874896  0.4292421463005772  0.8218816961984731  1.0000
  H   H481      1.0  0.15859868738732286  0.3858661482864877  0.8765815403713385  1.0000
  H   H482      1.0  0.12422323664926103  0.3719276808145568  0.8526356218309435  1.0000
  H   H483      1.0  0.1395428830855117  0.4163087230479146  0.8676605593734943  1.0000
  H   H484      1.0  0.1665146616023522  0.36418290364501316  0.8246337558042538  1.0000
  H   H485      1.0  0.21267138407108324  0.40224648931565643  0.8213065197382994  1.0000
  H   H486      1.0  0.1989815060333176  0.37661269963821165  0.8494960307676865  1.0000
  H   H487      1.0  0.22041472343221136  0.43898448578079874  0.8704901295757038  1.0000
  H   H488      1.0  0.202459351139753  0.4697446535111873  0.8600817117735072  1.0000
  H   H489      1.0  0.23274149941379396  0.46216030731454366  0.8413954334223526  1.0000
  H   H490      1.0  0.15512912998412223  0.44992475817882793  0.8277081576112604  1.0000
  H   H491      1.0  0.13996753681927288  0.40566458423958474  0.8126049284264211  1.0000
  H   H492      1.0  0.1856223297685267  0.44415276896609474  0.8081917248824324  1.0000
  N   N30       1.0  0.9801280280122732  0.1721641317705798  0.01442335668758199  1.0000
  C   C333      1.0  0.9548507171740214  0.1871458384628275  0.007047692143494766  1.0000
  C   C334      1.0  0.9872976738316589  0.17620766985913724  0.040959300855581526  1.0000
  C   C335      1.0  0.01508198000507921  0.19354902843260846  0.0015485329317128649  1.0000
  C   C336      1.0  0.9631922214227389  0.13174068673605557  0.008056930052281253  1.0000
  H   H493      1.0  0.9281138713452177  0.171678887256163  0.016325936421460963  1.0000
  H   H494      1.0  0.9486326920249071  0.18429757431883548  0.9871548344821929  1.0000
  H   H495      1.0  0.9666390632162296  0.2175308559948479  0.01167832174135408  1.0000
  H   H496      1.0  0.00035825878978701375  0.20630444804705692  0.04655919933673802  1.0000
  H   H497      1.0  0.9612888148662658  0.16083908091413107  0.05112401868511318  1.0000
  H   H498      1.0  0.0057161780151151476  0.16457562784967536  0.0473364202135893  1.0000
  H   H499      1.0  0.03450104553703626  0.18236342202587622  0.006012556702341687  1.0000
  H   H500      1.0  0.0290666822528991  0.22403520829474435  0.006295847301064361  1.0000
  H   H501      1.0  0.01039684686687381  0.19175791465689687  0.9814817141581599  1.0000
  H   H502      1.0  0.9820597195010172  0.119841521462254  0.012385126300640703  1.0000
  H   H503      1.0  0.9555404235117558  0.12728041054132208  0.9883807513771551  1.0000
  H   H504      1.0  0.9377002968678686  0.11456172657238006  0.018360492385756988  1.0000
  N   N31       1.0  0.1219704435661857  0.7246362805167839  0.8015228433154546  1.0000
  C   C337      1.0  0.0888831811760773  0.7135029959629939  0.8160123390211593  1.0000
  C   C338      1.0  0.15415275224099623  0.7351069562695742  0.818035026386219  1.0000
  C   C339      1.0  0.12836331985042282  0.757423484974704  0.7857778027456355  1.0000
  C   C340      1.0  0.11670359478258208  0.6926180145966525  0.7863302969691074  1.0000
  H   H505      1.0  0.0639500030855289  0.7051046245899388  0.8041512556517997  1.0000
  H   H506      1.0  0.09202262271023542  0.7372140379878083  0.8275683584213696  1.0000
  H   H507      1.0  0.08371702134288106  0.6891395211622422  0.828300001890138  1.0000
  H   H508      1.0  0.17968423529943278  0.7456225990120134  0.8075884811345108  1.0000
  H   H509      1.0  0.15807359944833554  0.7579859955170283  0.8306046579324784  1.0000
  H   H510      1.0  0.1516248081731446  0.7105043803984568  0.8291589746663635  1.0000
  H   H511      1.0  0.13340851246116414  0.7824110700178626  0.7966936518305883  1.0000
  H   H512      1.0  0.1045381378171093  0.7508897085725109  0.7732101763194303  1.0000
  H   H513      1.0  0.1530745166846743  0.7663496171925157  0.7744796121038257  1.0000
  H   H514      1.0  0.14153929086926853  0.6998607382902762  0.7755469262877601  1.0000
  H   H515      1.0  0.09296923151370629  0.6841254982528442  0.773364255030689  1.0000
  H   H516      1.0  0.11189983953563654  0.6673813189328474  0.7976359853489753  1.0000
  N   N32       1.0  0.049933708882749395  0.06795093112362252  0.9040246796429937  1.0000
  C   C341      1.0  0.04977822608136684  0.10348492591455093  0.8968092737121713  1.0000
  C   C342      1.0  0.04399639454695192  0.04486321278981304  0.8822717096908815  1.0000
  C   C343      1.0  0.02024550260484692  0.046707598786386126  0.9213685553309539  1.0000
  C   C344      1.0  0.08583600099403865  0.07681998695051058  0.9156440189720082  1.0000
  H   H517      1.0  0.056191729802302026  0.12242747037010919  0.9125772137024656  1.0000
  H   H518      1.0  0.022513820932605455  0.09808584044732899  0.8890265216624689  1.0000
  H   H519      1.0  0.07082036217643473  0.11957773242259676  0.8829557746069235  1.0000
  H   H520      1.0  0.06517457561920481  0.060732635799845336  0.8684732197872039  1.0000
  H   H521      1.0  0.045668801469031184  0.018633684596131114  0.8868894774638655  1.0000
  H   H522      1.0  0.016580535965604604  0.036419091358383615  0.8735157496656486  1.0000
  H   H523      1.0  0.0237600041973125  0.06352068047909483  0.9378902852961647  1.0000
  H   H524      1.0  0.0196655901979923  0.019798361033056943  0.92732292288977  1.0000
  H   H525      1.0  0.9926928149839833  0.039345966502124845  0.9131796435463788  1.0000
  H   H526      1.0  0.08712104145259292  0.05060259973709059  0.9209692192039148  1.0000
  H   H527      1.0  0.09113684642564124  0.09406655802457695  0.9322106457638643  1.0000
  H   H528      1.0  0.10880560295951636  0.0932943739724791  0.9030946771864727  1.0000
  N   N33       1.0  0.5572855711372885  0.9181786971866301  0.5096186083392263  1.0000
  C   C345      1.0  0.5732921569174511  0.936248651046681  0.5331260335093595  1.0000
  C   C346      1.0  0.5813215569941089  0.9047997933785672  0.4991360397068106  1.0000
  C   C347      1.0  0.554215063002749  0.9460158601362445  0.49297716050575374  1.0000
  C   C348      1.0  0.5203381967369501  0.8857250733737407  0.5134709284375097  1.0000
  H   H529      1.0  0.5552206463320557  0.9456446010733985  0.5417874135900844  1.0000
  H   H530      1.0  0.6008412033166471  0.9614241013176169  0.530977906039415  1.0000
  H   H531      1.0  0.5768276366850765  0.9164402653479211  0.5460312761263996  1.0000
  H   H532      1.0  0.5701132414251293  0.8908755751067367  0.48136443632675696  1.0000
  H   H533      1.0  0.6094743748028794  0.928641208180551  0.4961606912319914  1.0000
  H   H534      1.0  0.5841555467674825  0.8838645449293534  0.5114692087399623  1.0000
  H   H535      1.0  0.5429230765886498  0.933719319309045  0.47482676337892743  1.0000
  H   H536      1.0  0.5814681544720128  0.9715165421802691  0.49029289272760057  1.0000
  H   H537      1.0  0.5356780503269909  0.9560435554397791  0.5003140523106885  1.0000
  H   H538      1.0  0.5216313609224695  0.8646392035263503  0.5264502309365673  1.0000
  H   H539      1.0  0.5075054836803167  0.8709212031010268  0.4961924171167965  1.0000
  H   H540      1.0  0.5014629452242824  0.8949798832229879  0.5212061868244048  1.0000
  N   N34       1.0  0.24993629246576968  0.21542633419706267  0.2185834242486432  1.0000
  C   C349      1.0  0.2829300345143159  0.2325355032977927  0.234808996053434  1.0000
  C   C350      1.0  0.21629168776925467  0.199602655721523  0.23310855450301768  1.0000
  C   C351      1.0  0.2503012993520711  0.18481944804229528  0.20461175448860755  1.0000
  C   C352      1.0  0.2500701461696514  0.24461076174017057  0.20167154898539189  1.0000
  H   H541      1.0  0.2838252309313965  0.2560141857088953  0.24551957915446457  1.0000
  H   H542      1.0  0.30874010936343754  0.2443577074822532  0.22430868321561973  1.0000
  H   H543      1.0  0.28367673343506017  0.21131630247554792  0.2478604227192985  1.0000
  H   H544      1.0  0.19099177763407388  0.1866132328597773  0.2211971840502421  1.0000
  H   H545      1.0  0.21499190218030656  0.17719077525718274  0.24592928506762024  1.0000
  H   H546      1.0  0.21497150484430463  0.22183717437545733  0.24393623620865398  1.0000
  H   H547      1.0  0.2749673291676948  0.1957096945939469  0.19309014219245418  1.0000
  H   H548      1.0  0.2254429181616453  0.17096981960086802  0.19249708249476255  1.0000
  H   H549      1.0  0.25073211086434893  0.16250053145909238  0.2167464507846937  1.0000
  H   H550      1.0  0.27521935546183585  0.25744103962218456  0.19052721332514944  1.0000
  H   H551      1.0  0.24928663152039493  0.2679269949594514  0.21156839937190522  1.0000
  H   H552      1.0  0.2256927028155512  0.2324528462824176  0.18895196154426494  1.0000
  N   N35       1.0  0.4862797616178844  0.8713421331319748  0.7067479905505316  1.0000
  C   C353      1.0  0.514274217044926  0.8644105235630521  0.6953594218338064  1.0000
  C   C354      1.0  0.46008104892824414  0.8715874793509717  0.6878986945434677  1.0000
  C   C355      1.0  0.5046754224349124  0.9083753153880479  0.7189102142782512  1.0000
  C   C356      1.0  0.46625073890305624  0.8411283682462861  0.7248116840776211  1.0000
  H   H553      1.0  0.5347717473534065  0.864469594199732  0.709027105172684  1.0000
  H   H554      1.0  0.5298980241967222  0.8868126008302839  0.6817626418349355  1.0000
  H   H555      1.0  0.5015887706257757  0.8368270197297171  0.6858788118581715  1.0000
  H   H556      1.0  0.43828079408238924  0.8762325814435671  0.6959140063279078  1.0000
  H   H557      1.0  0.4742384442495366  0.8944431523334674  0.6741464448426299  1.0000
  H   H558      1.0  0.44614923993445493  0.8443940110438374  0.6779189863030078  1.0000
  H   H559      1.0  0.4848322256327678  0.9136711327748974  0.729047129366217  1.0000
  H   H560      1.0  0.518497678569449  0.9319937573322087  0.7055992360749352  1.0000
  H   H561      1.0  0.5261634954223965  0.909951011524648  0.7322610911203162  1.0000
  H   H562      1.0  0.44566737505496945  0.8460466654904187  0.7343622477902605  1.0000
  H   H563      1.0  0.48537828116045445  0.8397754837050864  0.739022979158296  1.0000
  H   H564      1.0  0.4513784566433121  0.8129006691765435  0.7161934448651202  1.0000
  N   N36       1.0  0.5117436723989647  0.4962912966083495  0.6200698219231937  1.0000
  C   C357      1.0  0.47987698522362543  0.4903553310191981  0.6043151784126168  1.0000
  C   C358      1.0  0.4997860868199033  0.46581598815697645  0.6386188238290509  1.0000
  C   C359      1.0  0.5265783655857821  0.5332358120676931  0.6321572421423024  1.0000
  C   C360      1.0  0.5405829007679287  0.49585933998060483  0.6051728156681716  1.0000
  H   H565      1.0  0.48799741245430384  0.5129293821793469  0.5901943569815985  1.0000
  H   H566      1.0  0.45762241393146524  0.49075306121894663  0.6149298154541128  1.0000
  H   H567      1.0  0.4680331052566267  0.46295591585330015  0.5946484921022477  1.0000
  H   H568      1.0  0.5230862394241309  0.46945821278362193  0.650951700201823  1.0000
  H   H569      1.0  0.4779250244355655  0.4655545059642012  0.650028840664644  1.0000
  H   H570      1.0  0.48841204334236343  0.4375591568047675  0.6300695812224663  1.0000
  H   H571      1.0  0.5504389066941667  0.5386264412198479  0.6444226355498133  1.0000
  H   H572      1.0  0.505272090891246  0.5348794412061724  0.6431413353877242  1.0000
  H   H573      1.0  0.5362865808863203  0.5568863193411474  0.6186074051984316  1.0000
  H   H574      1.0  0.5647015198450468  0.4992400193402879  0.6165043764607168  1.0000
  H   H575      1.0  0.5509568942764747  0.5194319824902501  0.5915825057151052  1.0000
  H   H576      1.0  0.5299968085504762  0.46910031648695  0.5948665220202809  1.0000
