data_image0
_chemical_formula_structural       FeCSFeSFeHSNHFeSFeS2FeS2FeSFeHS2FeS3H4C6H4C6H4CHC2H2CNHC2HC3HSH2CH3C2H4CHCHSCHCHNC2H5CH2CSH2C2HCH3CH2CH2SCHCHCNHCH2C2HSCH2FeHCH8NHCH5CH2CH5C2H2NH2SH3C2FeH2CHC4H5CSFeS2FeHSFeHFeS3FeS2HN2HCFeSFeHSFeH2SH2CNHSC4H4C2H2CHC6H4C6H4CH2S2C2H2FeH2C2H2CHNHCHC2SH5CHSHCHCHCHNHNH2CH2C3HCHCH3CH4CH3CH2CH3CH2CHC2H5SC2H3CH2SHCSFeS2FeSHFeSFeHS3H2S2FeSHFeSFeSCHCH2SHFeSHCH3CNC6H4CNCH3C3H4CH2C2H3C6H3CH5SH4CH4FeHNHSH6CSC3H2C3FeH5FeH2CHSC3SHCH3CHCH2CH2NCHC3H2NSHNHCSC4SH3CSHC2H3CHCH2FeSCFeS2FeHFeS3CFeSFeHSFeHS2HSCHSHCSFeSCHCH3C6H5NCH2CH4CH2C6H4C6H2CH2CH3CH2C2H3CH3SH3CSH2NCNC2HCH6SHCHC2HSFeSH3NH3SH5CH6SHSCHCHCHFeH2SHCFeHFeSHFeS2FeSFeS3CSHSCFeCSFeSFeS2CFeSH3CHC7H4C2HSH2C2H4SC6H6SHCHNCNH4CSH3CH4CSC2H5CH3C3H5NC4H6CH5CHCH7NCH2CHS2FeS2FeSCFeCFeS3H2SHC7H4C6HCH6SH5CH5CNFeCNH7CH3C3SH2SHCHCFeHSFeS2Fe2CS2H2FeHSFeSFeS3CFeS3C6H6CHC2H2SCH3C6H6C2H4C2H2N2H2CH3CH2C3H6CHC2H4CHCH2CH2CH3CH4CNHSH5CNSHCH2CH2CH4CHSHNC2HCH4CSCH2NH2SHFeSCFeS2Fe3S3CH3C2HCH3C6H6CH2CH3NHCHCH2C3H2CHSH3CHCHCHCNH3CH3CHC2HCH2CH4FeSCFeS2FeSFeHSH3SHCNSC6H8C3H3CH2C2HNC4H13SHC3SC2H2CH3CHCH3SCH2FeSFeSHFeSFeS3FeHSFeSFeS2CFeSCH3SFeH2NC6H6CHCH2CH2C6H4CHCHCS2HNH3CHSH6CHCH2C3HCHCNSH8CHC3H2SH2C3HNH3CHC3HCNH2CHCH2SH2SC3HCH4SHCHFeHCH2CSHFeCHSFeS2FeSHFeSFeSH6CH2CFeSC2H2C6H5CH2CH5CH4CHNHNH3C2H3C2HC3SHC3H5CHC2FeS2FeCSFeHCS2HFeS2H3CFeSFeCSFeS2HSHC8H6C3H4SHC6H4CH2CH3NCH3NHCSC3HCHSCNH2CFeCH8CNC2NH2CH5CSH2SCH6C4HC2H3CH11SCFeCSFeSFeHS2FeS2FeSFeHFeS3FeSCFeHFeSCSC2HCH5NSC2H2C6H6C2H3C6H4CH4NH3NCHSC4H2SH5NSHC2H3SH5FeH2CHFeC2SH4CH2C2HC2H2SC2HCH3C2H3C3HC2H2NCH3C2NHCH7CHCFeS2FeS2FeCFeS4CFeSHFeSFeSCNS2FeS2FeH2SNCH2CH4C6HCH3CH3C3H3CHC3HCSH3C6H4C2HCH2C3NC6SH2CH5CSHCHFeH2NFeHNH5CH2CH2CHNH4SH2CH2CH4CSH2C3H5SHCH7FeH5FeS2FeHFeHS2FeS2FeS2FeCFeS3CHSFeSFeNSFeS2H3FeCH3CH2C6H4C6H4C6H4CH2SC2H2FeC3HCHC2HCHSNHC2H6CHNHSH2S2NCHC2H3CH2SH5CHCH2CH8CH2C2H3CHCH2CHC2HCHCHFeHSFeSFeCHSFeS2Fe2CS2FeSHFeS2FeSFeS3CHS2NC6H4C6H4C8H4SHCHCH3SH2CHC3H2CHCNC4H12NC3H4SH2CH4SFeH4NH3SHNCHCHCHCH2CSHCH2CH2CNCH3SHC3HCFeHSH3CH4CHCH2C3H2
_chemical_formula_sum              "Fe144 C720 S288 H1152 N72"
_cell_length_a       46.5276
_cell_length_b       46.5228
_cell_length_c       50.1137
_cell_angle_alpha    91.6724
_cell_angle_beta     88.8067
_cell_angle_gamma    118.333

_space_group_name_H-M_alt    "P 1"
_space_group_IT_number       1

loop_
  _space_group_symop_operation_xyz
  'x, y, z'

loop_
  _atom_site_type_symbol
  _atom_site_label
  _atom_site_symmetry_multiplicity
  _atom_site_fract_x
  _atom_site_fract_y
  _atom_site_fract_z
  _atom_site_occupancy
  Fe  Fe1       1.0  0.20460  0.40682  0.22265  1.0000
  C   C1        1.0  0.20327  0.21603  0.04389  1.0000
  S   S1        1.0  0.24548  0.40067  0.20203  1.0000
  Fe  Fe2       1.0  0.13128  0.37888  0.23232  1.0000
  S   S2        1.0  0.07976  0.34438  0.21953  1.0000
  Fe  Fe3       1.0  0.17512  0.45148  0.23738  1.0000
  H   H1        1.0  0.18519  0.32493  0.05180  1.0000
  S   S3        1.0  0.16630  0.41574  0.20353  1.0000
  N   N1        1.0  0.04370  0.46805  0.08882  1.0000
  H   H2        1.0  0.30662  0.03944  0.22944  1.0000
  Fe  Fe4       1.0  0.43059  0.17207  0.25026  1.0000
  S   S4        1.0  0.42328  0.17291  0.20575  1.0000
  Fe  Fe5       1.0  0.25878  0.19677  0.07226  1.0000
  S   S5        1.0  0.29521  0.20422  0.03956  1.0000
  S   S6        1.0  0.20742  0.18633  0.06219  1.0000
  Fe  Fe6       1.0  0.30596  0.20147  0.11621  1.0000
  S   S7        1.0  0.34576  0.20959  0.08678  1.0000
  S   S8        1.0  0.31374  0.20248  0.16079  1.0000
  Fe  Fe7       1.0  0.33092  0.24328  0.06733  1.0000
  S   S9        1.0  0.36768  0.29322  0.05332  1.0000
  Fe  Fe8       1.0  0.30611  0.16965  0.06230  1.0000
  H   H3        1.0  0.20972  0.38494  0.06036  1.0000
  S   S10       1.0  0.29360  0.23814  0.09844  1.0000
  S   S11       1.0  0.26707  0.15919  0.09328  1.0000
  Fe  Fe9       1.0  0.43504  0.45742  0.12667  1.0000
  S   S12       1.0  0.40513  0.46386  0.09527  1.0000
  S   S13       1.0  0.42098  0.40688  0.14096  1.0000
  S   S14       1.0  0.43283  0.49393  0.15597  1.0000
  H   H4        1.0  0.30963  0.10491  0.24705  1.0000
  H   H5        1.0  0.11338  0.33178  0.02880  1.0000
  H   H6        1.0  0.29451  0.08526  0.17468  1.0000
  H   H7        1.0  0.04797  0.41737  0.22269  1.0000
  C   C2        1.0  0.38196  0.32477  0.07771  1.0000
  C   C3        1.0  0.37425  0.31795  0.10470  1.0000
  C   C4        1.0  0.38645  0.34341  0.12395  1.0000
  C   C5        1.0  0.40610  0.37577  0.11629  1.0000
  C   C6        1.0  0.41332  0.38273  0.08928  1.0000
  C   C7        1.0  0.40145  0.35721  0.07005  1.0000
  H   H8        1.0  0.35895  0.29306  0.11070  1.0000
  H   H9        1.0  0.38038  0.33818  0.14481  1.0000
  H   H10       1.0  0.42848  0.40768  0.08324  1.0000
  H   H11       1.0  0.40742  0.36260  0.04918  1.0000
  C   C8        1.0  0.39238  0.18073  0.19372  1.0000
  C   C9        1.0  0.37552  0.19209  0.21065  1.0000
  C   C10       1.0  0.35089  0.19790  0.20040  1.0000
  C   C11       1.0  0.34313  0.19267  0.17315  1.0000
  C   C12       1.0  0.35980  0.18102  0.15628  1.0000
  C   C13       1.0  0.38445  0.17524  0.16652  1.0000
  H   H12       1.0  0.38165  0.19672  0.23160  1.0000
  H   H13       1.0  0.33814  0.20701  0.21356  1.0000
  H   H14       1.0  0.35377  0.17655  0.13531  1.0000
  H   H15       1.0  0.39736  0.16638  0.15330  1.0000
  C   C14       1.0  0.04844  0.44522  0.10581  1.0000
  H   H16       1.0  0.27364  0.04892  0.22768  1.0000
  C   C15       1.0  0.01852  0.31278  0.24191  1.0000
  C   C16       1.0  0.28452  0.09794  0.02508  1.0000
  H   H17       1.0  0.36650  0.02977  0.22022  1.0000
  H   H18       1.0  0.18587  0.08134  0.06741  1.0000
  C   C17       1.0  0.30473  0.40132  0.11495  1.0000
  N   N2        1.0  0.17343  0.09440  0.03014  1.0000
  H   H19       1.0  0.25150  0.47595  0.20240  1.0000
  C   C18       1.0  0.27670  0.43114  0.18282  1.0000
  C   C19       1.0  0.26948  0.44692  0.16276  1.0000
  H   H20       1.0  0.38242  0.25818  0.17289  1.0000
  C   C20       1.0  0.32707  0.47625  0.14999  1.0000
  C   C21       1.0  0.33421  0.45989  0.16962  1.0000
  C   C22       1.0  0.30909  0.43746  0.18600  1.0000
  H   H21       1.0  0.24436  0.44099  0.15934  1.0000
  S   S15       1.0  0.48307  0.49323  0.10893  1.0000
  H   H22       1.0  0.35911  0.46464  0.17232  1.0000
  H   H23       1.0  0.31477  0.42488  0.20117  1.0000
  C   C23       1.0  0.09674  0.47759  0.18889  1.0000
  H   H24       1.0  0.01298  0.49090  0.08792  1.0000
  H   H25       1.0  0.22301  0.49129  0.20077  1.0000
  H   H26       1.0  0.17510  0.37883  0.08075  1.0000
  C   C24       1.0  0.17275  0.20867  0.03329  1.0000
  C   C25       1.0  0.12087  0.47512  0.20366  1.0000
  H   H27       1.0  0.06850  0.44066  0.09802  1.0000
  H   H28       1.0  0.11766  0.45140  0.20899  1.0000
  H   H29       1.0  0.07498  0.45570  0.18290  1.0000
  H   H30       1.0  0.15358  0.12202  0.05119  1.0000
  C   C26       1.0  0.27934  0.06569  0.02560  1.0000
  H   H31       1.0  0.38396  0.07459  0.25401  1.0000
  C   C27       1.0  0.35654  0.02478  0.24027  1.0000
  H   H32       1.0  0.28678  0.03519  0.19822  1.0000
  S   S16       1.0  0.17932  0.50131  0.23089  1.0000
  C   C28       1.0  0.33740  0.38728  0.14311  1.0000
  H   H33       1.0  0.20643  0.12423  0.06091  1.0000
  C   C29       1.0  0.19528  0.26321  0.01537  1.0000
  H   H34       1.0  0.43706  0.32882  0.13060  1.0000
  N   N3        1.0  0.31428  0.37602  0.12060  1.0000
  C   C30       1.0  0.28498  0.34536  0.12778  1.0000
  C   C31       1.0  0.33001  0.37016  0.09663  1.0000
  H   H35       1.0  0.32647  0.42517  0.11045  1.0000
  H   H36       1.0  0.26708  0.33592  0.11118  1.0000
  H   H37       1.0  0.33605  0.35008  0.09972  1.0000
  H   H38       1.0  0.35320  0.39228  0.09149  1.0000
  H   H39       1.0  0.31384  0.36301  0.07892  1.0000
  C   C32       1.0  0.29543  0.05064  0.21672  1.0000
  H   H40       1.0  0.25347  0.25285  0.04800  1.0000
  H   H41       1.0  0.28892  0.48203  0.13126  1.0000
  C   C33       1.0  0.30289  0.09887  0.19404  1.0000
  S   S17       1.0  0.21638  0.44567  0.25453  1.0000
  H   H42       1.0  0.05403  0.44882  0.05241  1.0000
  H   H43       1.0  0.39683  0.23857  0.13021  1.0000
  C   C34       1.0  0.22983  0.24697  0.04001  1.0000
  C   C35       1.0  0.41454  0.26427  0.12560  1.0000
  H   H44       1.0  0.46529  0.27190  0.15534  1.0000
  C   C36       1.0  0.29465  0.46981  0.14671  1.0000
  H   H45       1.0  0.43473  0.26392  0.11354  1.0000
  H   H46       1.0  0.47075  0.32034  0.13158  1.0000
  H   H47       1.0  0.11916  0.34836  0.06223  1.0000
  C   C37       1.0  0.34725  0.08595  0.19586  1.0000
  H   H48       1.0  0.29264  0.05928  0.03963  1.0000
  H   H49       1.0  0.15208  0.18481  0.03626  1.0000
  C   C38       1.0  0.18469  0.38238  0.05989  1.0000
  H   H50       1.0  0.02660  0.37796  0.23773  1.0000
  H   H51       1.0  0.45858  0.33468  0.16123  1.0000
  S   S18       1.0  0.31381  0.12772  0.04639  1.0000
  C   C39       1.0  0.33013  0.10417  0.23578  1.0000
  H   H52       1.0  0.38369  0.29033  0.15382  1.0000
  C   C40       1.0  0.36656  0.05014  0.25945  1.0000
  H   H53       1.0  0.02584  0.42131  0.10703  1.0000
  C   C41       1.0  0.44412  0.27148  0.16642  1.0000
  N   N4        1.0  0.42674  0.28441  0.15027  1.0000
  H   H54       1.0  0.07028  0.39987  0.23822  1.0000
  C   C42       1.0  0.44931  0.31854  0.14315  1.0000
  H   H55       1.0  0.33966  0.07080  0.17716  1.0000
  H   H56       1.0  0.24794  0.49449  0.17234  1.0000
  C   C43       1.0  0.05226  0.32819  0.24649  1.0000
  C   C44       1.0  0.16086  0.32413  0.05189  1.0000
  H   H57       1.0  0.19802  0.14446  0.01793  1.0000
  S   S19       1.0  0.16845  0.36610  0.24838  1.0000
  C   C45       1.0  0.03488  0.45395  0.06151  1.0000
  H   H58       1.0  0.40720  0.29964  0.18388  1.0000
  H   H59       1.0  0.40180  0.27364  0.11263  1.0000
  Fe  Fe10      1.0  0.45314  0.50309  0.07980  1.0000
  H   H60       1.0  0.36498  0.11130  0.19024  1.0000
  C   C46       1.0  0.39892  0.28322  0.16591  1.0000
  H   H61       1.0  0.29147  0.32586  0.13241  1.0000
  H   H62       1.0  0.34587  0.36926  0.14757  1.0000
  H   H63       1.0  0.27239  0.34897  0.14573  1.0000
  H   H64       1.0  0.28808  0.39421  0.09759  1.0000
  H   H65       1.0  0.42775  0.24568  0.17197  1.0000
  H   H66       1.0  0.21858  0.09755  0.04344  1.0000
  H   H67       1.0  0.35954  0.41080  0.13872  1.0000
  H   H68       1.0  0.36079  0.07694  0.20812  1.0000
  N   N5        1.0  0.31891  0.08488  0.21061  1.0000
  H   H69       1.0  0.13285  0.07907  0.05752  1.0000
  C   C47       1.0  0.14547  0.09738  0.04178  1.0000
  H   H70       1.0  0.18697  0.40593  0.05302  1.0000
  H   H71       1.0  0.29188  0.40553  0.13236  1.0000
  H   H72       1.0  0.45336  0.28585  0.18535  1.0000
  H   H73       1.0  0.32608  0.39121  0.16167  1.0000
  H   H74       1.0  0.14490  0.30287  0.03888  1.0000
  C   C48       1.0  0.19708  0.09955  0.05139  1.0000
  H   H75       1.0  0.31988  0.12479  0.18934  1.0000
  H   H76       1.0  0.15072  0.31889  0.07253  1.0000
  C   C49       1.0  0.24786  0.49609  0.19452  1.0000
  H   H77       1.0  0.45357  0.02075  0.26010  1.0000
  H   H78       1.0  0.13099  0.37487  0.03398  1.0000
  H   H79       1.0  0.14939  0.04202  0.03294  1.0000
  H   H80       1.0  0.28130  0.09844  0.20441  1.0000
  H   H81       1.0  0.34151  0.09383  0.24919  1.0000
  C   C50       1.0  0.13028  0.35240  0.04191  1.0000
  C   C51       1.0  0.22575  0.27055  0.02601  1.0000
  H   H82       1.0  0.34875  0.12980  0.23189  1.0000
  H   H83       1.0  0.05498  0.45526  0.12659  1.0000
  N   N6        1.0  0.16317  0.35489  0.04216  1.0000
  H   H84       1.0  0.12722  0.09387  0.02630  1.0000
  H   H85       1.0  0.02322  0.48468  0.12073  1.0000
  S   S20       1.0  0.35784  0.50453  0.12906  1.0000
  H   H86       1.0  0.03198  0.47102  0.04810  1.0000
  H   H87       1.0  0.48266  0.03251  0.09488  1.0000
  H   H88       1.0  0.24638  0.29451  0.02328  1.0000
  C   C52       1.0  0.01723  0.47377  0.10020  1.0000
  C   C53       1.0  0.16879  0.23210  0.01889  1.0000
  Fe  Fe11      1.0  0.40529  0.50228  0.12344  1.0000
  H   H89       1.0  0.47337  0.06470  0.26084  1.0000
  H   H90       1.0  0.44944  0.01355  0.05389  1.0000
  C   C54       1.0  0.07432  0.49935  0.08780  1.0000
  H   H91       1.0  0.09461  0.49635  0.07838  1.0000
  C   C55       1.0  0.48773  0.01152  0.09217  1.0000
  C   C56       1.0  0.04790  0.40281  0.23993  1.0000
  C   C57       1.0  0.16173  0.06143  0.01796  1.0000
  C   C58       1.0  0.14898  0.50340  0.21165  1.0000
  H   H92       1.0  0.42990  0.04170  0.25675  1.0000
  H   H93       1.0  0.51062  0.02005  0.08025  1.0000
  H   H94       1.0  0.01582  0.43705  0.25057  1.0000
  H   H95       1.0  0.07632  0.46734  0.25130  1.0000
  H   H96       1.0  0.33778  0.40189  0.37766  1.0000
  C   C59       1.0  0.47516  0.04329  0.30980  1.0000
  S   S21       1.0  0.18480  0.40383  0.32358  1.0000
  Fe  Fe12      1.0  0.20415  0.28714  0.42077  1.0000
  S   S22       1.0  0.21768  0.33195  0.44619  1.0000
  S   S23       1.0  0.19312  0.28562  0.37678  1.0000
  Fe  Fe13      1.0  0.20897  0.24888  0.46778  1.0000
  H   H97       1.0  0.48548  0.09857  0.37607  1.0000
  S   S24       1.0  0.20052  0.20014  0.48297  1.0000
  Fe  Fe14      1.0  0.18311  0.29741  0.47640  1.0000
  H   H98       1.0  0.46532  0.09437  0.29910  1.0000
  Fe  Fe15      1.0  0.25550  0.32090  0.46327  1.0000
  S   S25       1.0  0.30681  0.36120  0.47114  1.0000
  S   S26       1.0  0.16718  0.25307  0.44981  1.0000
  S   S27       1.0  0.24448  0.27813  0.43570  1.0000
  Fe  Fe16      1.0  0.47117  0.41780  0.39826  1.0000
  S   S28       1.0  0.48701  0.39300  0.42787  1.0000
  S   S29       1.0  0.41860  0.39242  0.38523  1.0000
  H   H99       1.0  0.44046  0.32110  0.40649  1.0000
  N   N7        1.0  0.39081  0.28416  0.41284  1.0000
  N   N8        1.0  0.21349  0.08585  0.48321  1.0000
  H   H100      1.0  0.48736  0.25070  0.34237  1.0000
  C   C60       1.0  0.35332  0.04391  0.28523  1.0000
  Fe  Fe17      1.0  0.40307  0.12596  0.29680  1.0000
  S   S30       1.0  0.36474  0.07573  0.30926  1.0000
  Fe  Fe18      1.0  0.43146  0.19959  0.30601  1.0000
  H   H101      1.0  0.23633  0.05883  0.49808  1.0000
  S   S31       1.0  0.42255  0.23861  0.32664  1.0000
  Fe  Fe19      1.0  0.47613  0.17014  0.29312  1.0000
  H   H102      1.0  0.41750  0.26255  0.39272  1.0000
  H   H103      1.0  0.27986  0.35851  0.41415  1.0000
  S   S32       1.0  0.43959  0.16142  0.32604  1.0000
  H   H104      1.0  0.48304  0.13677  0.34391  1.0000
  H   H105      1.0  0.41227  0.01194  0.32612  1.0000
  C   C61       1.0  0.41516  0.31775  0.40583  1.0000
  N   N9        1.0  0.04671  0.41862  0.26564  1.0000
  H   H106      1.0  0.29183  0.42350  0.35141  1.0000
  S   S33       1.0  0.39089  0.16299  0.28009  1.0000
  C   C62       1.0  0.47824  0.32786  0.36014  1.0000
  C   C63       1.0  0.45314  0.30106  0.34679  1.0000
  C   C64       1.0  0.45612  0.27299  0.34064  1.0000
  C   C65       1.0  0.48488  0.27228  0.34710  1.0000
  H   H107      1.0  0.05043  0.32179  0.31412  1.0000
  H   H108      1.0  0.47548  0.34920  0.36502  1.0000
  H   H109      1.0  0.43122  0.30198  0.34136  1.0000
  H   H110      1.0  0.44024  0.07252  0.32702  1.0000
  C   C66       1.0  0.07560  0.45134  0.26771  1.0000
  C   C67       1.0  0.06928  0.28510  0.40903  1.0000
  H   H111      1.0  0.35544  0.29839  0.42725  1.0000
  H   H112      1.0  0.09047  0.24369  0.39015  1.0000
  C   C68       1.0  0.26529  0.21943  0.49324  1.0000
  H   H113      1.0  0.28825  0.34891  0.38075  1.0000
  C   C69       1.0  0.33850  0.36745  0.44836  1.0000
  C   C70       1.0  0.37008  0.39293  0.45324  1.0000
  C   C71       1.0  0.39525  0.40013  0.43438  1.0000
  C   C72       1.0  0.38861  0.38243  0.41025  1.0000
  C   C73       1.0  0.35722  0.35667  0.40552  1.0000
  C   C74       1.0  0.33245  0.34868  0.42481  1.0000
  H   H114      1.0  0.37497  0.40746  0.47148  1.0000
  H   H115      1.0  0.41946  0.42006  0.43814  1.0000
  H   H116      1.0  0.35205  0.34288  0.38687  1.0000
  H   H117      1.0  0.30851  0.32847  0.42114  1.0000
  C   C75       1.0  0.18561  0.36998  0.33789  1.0000
  C   C76       1.0  0.18681  0.36882  0.36579  1.0000
  C   C77       1.0  0.18866  0.34287  0.37791  1.0000
  C   C78       1.0  0.18947  0.31790  0.36223  1.0000
  C   C79       1.0  0.18785  0.31883  0.33436  1.0000
  C   C80       1.0  0.18598  0.34479  0.32220  1.0000
  H   H118      1.0  0.18640  0.38817  0.37804  1.0000
  H   H119      1.0  0.18959  0.34233  0.39936  1.0000
  H   H120      1.0  0.18835  0.29955  0.32205  1.0000
  H   H121      1.0  0.18509  0.34542  0.30069  1.0000
  C   C81       1.0  0.04145  0.31933  0.29399  1.0000
  H   H122      1.0  0.29383  0.38641  0.34387  1.0000
  H   H123      1.0  0.24976  0.34692  0.38879  1.0000
  S   S34       1.0  0.22243  0.29114  0.49654  1.0000
  S   S35       1.0  0.50787  0.42179  0.36677  1.0000
  C   C82       1.0  0.50419  0.10908  0.36080  1.0000
  C   C83       1.0  0.21963  0.05743  0.48192  1.0000
  H   H124      1.0  0.06471  0.23307  0.43529  1.0000
  H   H125      1.0  0.10401  0.25430  0.45080  1.0000
  Fe  Fe20      1.0  0.17796  0.40566  0.27905  1.0000
  H   H126      1.0  0.31537  0.23051  0.49905  1.0000
  H   H127      1.0  0.37495  0.23501  0.39803  1.0000
  C   C84       1.0  0.41664  0.01250  0.30417  1.0000
  C   C85       1.0  0.19883  0.08695  0.50942  1.0000
  H   H128      1.0  0.07763  0.30222  0.39204  1.0000
  H   H129      1.0  0.05899  0.29520  0.42467  1.0000
  C   C86       1.0  0.50656  0.32680  0.36739  1.0000
  H   H130      1.0  0.16689  0.06026  0.46393  1.0000
  N   N10       1.0  0.28949  0.39561  0.38569  1.0000
  H   H131      1.0  0.11930  0.28462  0.38114  1.0000
  C   C87       1.0  0.10948  0.26762  0.39816  1.0000
  H   H132      1.0  0.42246  0.27905  0.44076  1.0000
  C   C88       1.0  0.28249  0.39771  0.35737  1.0000
  C   C89       1.0  0.27386  0.41068  0.40290  1.0000
  S   S36       1.0  0.50269  0.46855  0.41487  1.0000
  H   H133      1.0  0.27125  0.23830  0.47877  1.0000
  H   H134      1.0  0.04589  0.40945  0.30761  1.0000
  H   H135      1.0  0.27850  0.40923  0.42445  1.0000
  H   H136      1.0  0.28316  0.43688  0.39829  1.0000
  H   H137      1.0  0.24692  0.39812  0.40019  1.0000
  C   C90       1.0  0.27635  0.36098  0.39262  1.0000
  H   H138      1.0  0.11389  0.32240  0.44648  1.0000
  S   S37       1.0  0.14559  0.30983  0.49517  1.0000
  H   H139      1.0  0.13150  0.33094  0.41341  1.0000
  C   C91       1.0  0.08407  0.25759  0.44189  1.0000
  H   H140      1.0  0.41399  0.33621  0.41983  1.0000
  C   C92       1.0  0.32518  0.41289  0.39003  1.0000
  H   H141      1.0  0.19194  0.10676  0.51056  1.0000
  C   C93       1.0  0.50267  0.13060  0.34251  1.0000
  H   H142      1.0  0.33609  0.43912  0.38491  1.0000
  N   N11       1.0  0.09631  0.28068  0.41961  1.0000
  H   H143      1.0  0.41120  0.32391  0.38537  1.0000
  N   N12       1.0  0.44659  0.04234  0.29657  1.0000
  H   H144      1.0  0.19664  0.03410  0.48457  1.0000
  H   H145      1.0  0.26195  0.12026  0.49624  1.0000
  C   C94       1.0  0.06368  0.33143  0.27258  1.0000
  H   H146      1.0  0.37966  0.25204  0.44595  1.0000
  H   H147      1.0  0.12987  0.26388  0.40546  1.0000
  C   C95       1.0  0.45109  0.04236  0.26727  1.0000
  C   C96       1.0  0.12246  0.31249  0.42939  1.0000
  C   C97       1.0  0.39769  0.27712  0.43985  1.0000
  H   H148      1.0  0.39673  0.29463  0.45504  1.0000
  C   C98       1.0  0.39271  0.26067  0.39327  1.0000
  H   H149      1.0  0.04900  0.26151  0.40163  1.0000
  C   C99       1.0  0.35776  0.28123  0.41247  1.0000
  H   H150      1.0  0.35206  0.28699  0.39247  1.0000
  H   H151      1.0  0.38742  0.26507  0.37265  1.0000
  H   H152      1.0  0.33864  0.25611  0.41738  1.0000
  C   C100      1.0  0.10672  0.24599  0.50992  1.0000
  H   H153      1.0  0.07577  0.46391  0.28699  1.0000
  H   H154      1.0  0.42200  0.07131  0.29567  1.0000
  H   H155      1.0  0.33115  0.41175  0.41128  1.0000
  H   H156      1.0  0.25573  0.38470  0.35346  1.0000
  C   C101      1.0  0.01742  0.45345  0.46810  1.0000
  H   H157      1.0  0.23089  0.05580  0.46254  1.0000
  H   H158      1.0  0.18574  0.10400  0.46224  1.0000
  H   H159      1.0  0.49808  0.06576  0.30472  1.0000
  C   C102      1.0  0.23262  0.19872  0.49984  1.0000
  H   H160      1.0  0.20096  0.08181  0.44171  1.0000
  H   H161      1.0  0.50393  0.49673  0.47057  1.0000
  C   C103      1.0  0.29018  0.21489  0.50466  1.0000
  H   H162      1.0  0.01285  0.45635  0.48969  1.0000
  H   H163      1.0  0.07366  0.26653  0.45833  1.0000
  H   H164      1.0  0.08964  0.34297  0.27628  1.0000
  C   C104      1.0  0.19076  0.08278  0.46180  1.0000
  H   H165      1.0  0.14370  0.31017  0.43666  1.0000
  H   H166      1.0  0.17638  0.06359  0.51346  1.0000
  C   C105      1.0  0.10992  0.27735  0.50847  1.0000
  H   H167      1.0  0.12663  0.24154  0.50352  1.0000
  C   C106      1.0  0.24464  0.11624  0.47974  1.0000
  C   C107      1.0  0.33068  0.01188  0.29195  1.0000
  H   H168      1.0  0.24069  0.13804  0.47948  1.0000
  H   H169      1.0  0.25705  0.11572  0.46066  1.0000
  H   H170      1.0  0.02503  0.37348  0.28687  1.0000
  H   H171      1.0  0.09876  0.44984  0.26638  1.0000
  H   H172      1.0  0.47857  0.02187  0.30382  1.0000
  S   S38       1.0  0.47075  0.21116  0.27491  1.0000
  C   C108      1.0  0.04663  0.39831  0.28783  1.0000
  C   C109      1.0  0.51007  0.29919  0.36047  1.0000
  H   H173      1.0  0.47255  0.04328  0.33197  1.0000
  H   H174      1.0  0.06876  0.39491  0.28726  1.0000
  H   H175      1.0  0.03174  0.43993  0.46670  1.0000
  C   C110      1.0  0.44345  0.07140  0.30500  1.0000
  H   H176      1.0  0.03320  0.47836  0.46036  1.0000
  H   H177      1.0  0.39469  0.01106  0.29437  1.0000
  S   S39       1.0  0.13790  0.41540  0.26490  1.0000
  H   H178      1.0  0.01497  0.43377  0.28627  1.0000
  C   C111      1.0  0.01664  0.42193  0.26707  1.0000
  S   S40       1.0  0.44013  0.13236  0.26517  1.0000
  Fe  Fe21      1.0  0.29204  0.10903  0.61203  1.0000
  S   S41       1.0  0.33601  0.13418  0.58548  1.0000
  S   S42       1.0  0.29136  0.12386  0.65550  1.0000
  Fe  Fe22      1.0  0.24921  0.06573  0.56594  1.0000
  S   S43       1.0  0.29001  0.08880  0.53631  1.0000
  H   H179      1.0  0.36609  0.38995  0.73605  1.0000
  Fe  Fe23      1.0  0.32052  0.08394  0.56816  1.0000
  S   S44       1.0  0.35250  0.06187  0.55528  1.0000
  Fe  Fe24      1.0  0.30065  0.13628  0.55669  1.0000
  H   H180      1.0  0.45826  0.47285  0.53842  1.0000
  S   S45       1.0  0.27900  0.05810  0.59691  1.0000
  S   S46       1.0  0.25743  0.11386  0.58409  1.0000
  S   S47       1.0  0.31688  0.41539  0.75691  1.0000
  H   H181      1.0  0.10811  0.33346  0.58745  1.0000
  H   H182      1.0  0.34414  0.15725  0.74840  1.0000
  S   S48       1.0  0.41080  0.24737  0.70878  1.0000
  S   S49       1.0  0.23872  0.36522  0.74569  1.0000
  Fe  Fe25      1.0  0.31236  0.44886  0.72792  1.0000
  S   S50       1.0  0.28509  0.41010  0.69677  1.0000
  H   H183      1.0  0.48735  0.49382  0.60804  1.0000
  Fe  Fe26      1.0  0.23970  0.40353  0.71866  1.0000
  S   S51       1.0  0.19062  0.39453  0.70306  1.0000
  Fe  Fe27      1.0  0.28688  0.37620  0.72699  1.0000
  S   S52       1.0  0.30169  0.33790  0.71571  1.0000
  C   C112      1.0  0.48750  0.09832  0.54206  1.0000
  H   H184      1.0  0.35832  0.16553  0.63744  1.0000
  C   C113      1.0  0.05487  0.25703  0.52693  1.0000
  H   H185      1.0  0.43315  0.44504  0.60834  1.0000
  H   H186      1.0  0.46510  0.02184  0.56355  1.0000
  S   S53       1.0  0.04626  0.49128  0.61140  1.0000
  H   H187      1.0  0.47333  0.05945  0.60117  1.0000
  Fe  Fe28      1.0  0.05845  0.45397  0.62760  1.0000
  S   S54       1.0  0.09675  0.46177  0.59661  1.0000
  H   H188      1.0  0.34628  0.10046  0.71833  1.0000
  C   C114      1.0  0.36836  0.12488  0.71815  1.0000
  H   H189      1.0  0.43641  0.37358  0.74257  1.0000
  H   H190      1.0  0.32896  0.11665  0.76054  1.0000
  H   H191      1.0  0.08233  0.39894  0.63011  1.0000
  C   C115      1.0  0.39839  0.03073  0.62040  1.0000
  N   N13       1.0  0.09704  0.36983  0.60509  1.0000
  C   C116      1.0  0.18817  0.42493  0.68445  1.0000
  C   C117      1.0  0.15737  0.42188  0.67888  1.0000
  C   C118      1.0  0.15460  0.44552  0.66382  1.0000
  C   C119      1.0  0.18268  0.47220  0.65401  1.0000
  C   C120      1.0  0.21345  0.47528  0.65972  1.0000
  C   C121      1.0  0.21623  0.45185  0.67503  1.0000
  H   H192      1.0  0.13560  0.40126  0.68635  1.0000
  H   H193      1.0  0.13082  0.44314  0.65976  1.0000
  H   H194      1.0  0.32879  0.26588  0.59892  1.0000
  H   H195      1.0  0.24008  0.45444  0.67922  1.0000
  C   C122      1.0  0.09707  0.33811  0.60593  1.0000
  N   N14       1.0  0.30236  0.21911  0.61724  1.0000
  C   C123      1.0  0.39770  0.47540  0.70170  1.0000
  H   H196      1.0  0.09536  0.37434  0.64787  1.0000
  H   H197      1.0  0.38221  0.45371  0.71275  1.0000
  H   H198      1.0  0.13198  0.42089  0.60249  1.0000
  C   C124      1.0  0.32538  0.30167  0.73981  1.0000
  C   C125      1.0  0.31098  0.32196  0.74356  1.0000
  C   C126      1.0  0.43158  0.44795  0.58649  1.0000
  H   H199      1.0  0.32944  0.29487  0.71980  1.0000
  H   H200      1.0  0.34753  0.21770  0.62185  1.0000
  H   H201      1.0  0.38206  0.36291  0.72643  1.0000
  H   H202      1.0  0.27150  0.21373  0.65141  1.0000
  C   C127      1.0  0.36854  0.04901  0.58091  1.0000
  H   H203      1.0  0.17774  0.46026  0.76468  1.0000
  H   H204      1.0  0.02166  0.49507  0.55785  1.0000
  C   C128      1.0  0.38484  0.05128  0.62696  1.0000
  C   C129      1.0  0.36973  0.06029  0.60726  1.0000
  H   H205      1.0  0.15064  0.37189  0.75433  1.0000
  H   H206      1.0  0.38639  0.06060  0.64722  1.0000
  H   H207      1.0  0.35978  0.07661  0.61228  1.0000
  C   C130      1.0  0.32466  0.15852  0.66980  1.0000
  C   C131      1.0  0.32080  0.17025  0.69504  1.0000
  C   C132      1.0  0.34687  0.19772  0.70706  1.0000
  C   C133      1.0  0.37709  0.21357  0.69399  1.0000
  C   C134      1.0  0.38086  0.20200  0.66867  1.0000
  C   C135      1.0  0.35483  0.17450  0.65669  1.0000
  H   H208      1.0  0.29747  0.15813  0.70528  1.0000
  H   H209      1.0  0.34348  0.20678  0.72634  1.0000
  H   H210      1.0  0.40419  0.21412  0.65844  1.0000
  C   C136      1.0  0.38873  0.50000  0.69952  1.0000
  H   H211      1.0  0.28422  0.21643  0.57759  1.0000
  H   H212      1.0  0.27698  0.17869  0.64350  1.0000
  H   H213      1.0  0.11129  0.33722  0.62321  1.0000
  H   H214      1.0  0.07179  0.31748  0.60774  1.0000
  H   H215      1.0  0.02306  0.41162  0.58208  1.0000
  S   S55       1.0  0.31396  0.18294  0.53502  1.0000
  H   H216      1.0  0.45456  0.41417  0.72968  1.0000
  H   H217      1.0  0.25679  0.21497  0.60396  1.0000
  H   H218      1.0  0.43238  0.45149  0.74301  1.0000
  H   H219      1.0  0.38041  0.01910  0.55416  1.0000
  C   C137      1.0  0.44707  0.48575  0.55019  1.0000
  H   H220      1.0  0.14305  0.39381  0.58412  1.0000
  H   H221      1.0  0.03492  0.26139  0.53345  1.0000
  H   H222      1.0  0.42118  0.47549  0.54392  1.0000
  H   H223      1.0  0.41563  0.18190  0.76429  1.0000
  Fe  Fe29      1.0  0.13093  0.49815  0.62640  1.0000
  H   H224      1.0  0.20111  0.44283  0.74893  1.0000
  N   N15       1.0  0.44962  0.48269  0.57923  1.0000
  H   H225      1.0  0.14613  0.39701  0.61989  1.0000
  S   S56       1.0  0.09321  0.48832  0.65843  1.0000
  H   H226      1.0  0.36578  0.09179  0.76214  1.0000
  H   H227      1.0  0.44163  0.43330  0.57580  1.0000
  H   H228      1.0  0.31487  0.18107  0.60795  1.0000
  H   H229      1.0  0.30940  0.21430  0.65885  1.0000
  H   H230      1.0  0.49592  0.48298  0.57525  1.0000
  H   H231      1.0  0.38815  0.12222  0.70735  1.0000
  C   C138      1.0  0.42716  0.47934  0.69008  1.0000
  S   S57       1.0  0.01590  0.19281  0.54120  1.0000
  C   C139      1.0  0.24996  0.16996  0.53018  1.0000
  C   C140      1.0  0.35108  0.14091  0.75913  1.0000
  C   C141      1.0  0.28947  0.20592  0.64391  1.0000
  H   H232      1.0  0.05218  0.34988  0.58303  1.0000
  H   H233      1.0  0.05611  0.35584  0.63200  1.0000
  C   C142      1.0  0.27523  0.20712  0.59798  1.0000
  C   C143      1.0  0.38910  0.38886  0.73151  1.0000
  C   C144      1.0  0.08208  0.37488  0.62987  1.0000
  Fe  Fe30      1.0  0.08763  0.50227  0.58277  1.0000
  H   H234      1.0  0.40126  0.18845  0.73344  1.0000
  H   H235      1.0  0.45120  0.07733  0.58582  1.0000
  H   H236      1.0  0.08855  0.36620  0.56275  1.0000
  H   H237      1.0  0.33551  0.21655  0.58780  1.0000
  H   H238      1.0  0.33924  0.26504  0.63315  1.0000
  Fe  Fe31      1.0  0.41207  0.25757  0.75339  1.0000
  H   H239      1.0  0.07555  0.19615  0.52131  1.0000
  H   H240      1.0  0.24382  0.15096  0.54446  1.0000
  C   C145      1.0  0.39624  0.01873  0.59422  1.0000
  H   H241      1.0  0.36244  0.14108  0.70609  1.0000
  S   S58       1.0  0.26670  0.44498  0.74764  1.0000
  C   C146      1.0  0.07793  0.36979  0.58186  1.0000
  C   C147      1.0  0.13100  0.39650  0.60274  1.0000
  C   C148      1.0  0.47563  0.07860  0.58712  1.0000
  S   S59       1.0  0.20013  0.02815  0.54970  1.0000
  H   H242      1.0  0.26241  0.17998  0.59635  1.0000
  C   C149      1.0  0.33516  0.29064  0.76186  1.0000
  H   H243      1.0  0.34652  0.27519  0.75878  1.0000
  H   H244      1.0  0.43429  0.46053  0.69210  1.0000
  H   H245      1.0  0.15868  0.42590  0.74186  1.0000
  C   C150      1.0  0.38148  0.02796  0.57452  1.0000
  H   H246      1.0  0.30138  0.26430  0.62536  1.0000
  C   C151      1.0  0.32615  0.20818  0.60831  1.0000
  H   H247      1.0  0.07697  0.39316  0.58073  1.0000
  H   H248      1.0  0.47475  0.03647  0.53017  1.0000
  C   C152      1.0  0.31867  0.25519  0.61873  1.0000
  H   H249      1.0  0.39999  0.40332  0.71327  1.0000
  H   H250      1.0  0.46243  0.09531  0.53976  1.0000
  N   N16       1.0  0.41187  0.40125  0.75426  1.0000
  C   C153      1.0  0.38686  0.11676  0.76064  1.0000
  H   H251      1.0  0.40753  0.11452  0.75109  1.0000
  C   C154      1.0  0.40704  0.17120  0.74405  1.0000
  C   C155      1.0  0.07778  0.22031  0.52002  1.0000
  C   C156      1.0  0.46607  0.04085  0.54999  1.0000
  H   H252      1.0  0.44066  0.03655  0.54741  1.0000
  H   H253      1.0  0.40525  0.43708  0.58139  1.0000
  N   N17       1.0  0.48758  0.07416  0.56055  1.0000
  S   S60       1.0  0.02278  0.40265  0.63916  1.0000
  H   H254      1.0  0.49233  0.10275  0.59638  1.0000
  N   N18       1.0  0.37832  0.13842  0.74548  1.0000
  H   H255      1.0  0.42784  0.17046  0.73331  1.0000
  C   C157      1.0  0.05178  0.22569  0.52856  1.0000
  S   S61       1.0  0.41851  0.02081  0.64493  1.0000
  C   C158      1.0  0.48433  0.49594  0.58633  1.0000
  C   C159      1.0  0.22512  0.17453  0.51878  1.0000
  C   C160      1.0  0.44193  0.39923  0.74736  1.0000
  C   C161      1.0  0.28251  0.18967  0.52267  1.0000
  S   S62       1.0  0.18022  0.50174  0.63420  1.0000
  H   H256      1.0  0.23525  0.49586  0.65220  1.0000
  H   H257      1.0  0.50347  0.12377  0.54938  1.0000
  H   H258      1.0  0.19990  0.15917  0.52445  1.0000
  C   C162      1.0  0.02514  0.50613  0.53856  1.0000
  S   S63       1.0  0.35402  0.49790  0.71621  1.0000
  H   H259      1.0  0.19280  0.38856  0.76252  1.0000
  C   C163      1.0  0.17698  0.43686  0.75812  1.0000
  C   C164      1.0  0.42019  0.43561  0.76032  1.0000
  H   H260      1.0  0.21604  0.09114  0.52602  1.0000
  H   H261      1.0  0.45955  0.40810  0.76421  1.0000
  H   H262      1.0  0.40927  0.49140  0.58977  1.0000
  C   C165      1.0  0.43572  0.50128  0.59398  1.0000
  H   H263      1.0  0.43839  0.50051  0.61597  1.0000
  C   C166      1.0  0.08394  0.28281  0.51700  1.0000
  H   H264      1.0  0.49642  0.09562  0.52182  1.0000
  H   H265      1.0  0.08621  0.30698  0.51582  1.0000
  Fe  Fe32      1.0  0.07506  0.24000  0.95887  1.0000
  S   S64       1.0  0.09955  0.27631  0.99202  1.0000
  C   C167      1.0  0.13681  0.40672  0.79186  1.0000
  Fe  Fe33      1.0  0.12536  0.28302  0.91700  1.0000
  S   S65       1.0  0.15284  0.32299  0.94700  1.0000
  S   S66       1.0  0.13932  0.28454  0.87307  1.0000
  Fe  Fe34      1.0  0.14662  0.28248  0.97398  1.0000
  H   H266      1.0  0.44418  0.41238  0.92366  1.0000
  Fe  Fe35      1.0  0.10359  0.31334  0.96251  1.0000
  S   S67       1.0  0.08970  0.35075  0.97871  1.0000
  S   S68       1.0  0.12211  0.24272  0.94292  1.0000
  S   S69       1.0  0.07613  0.27669  0.93023  1.0000
  C   C168      1.0  0.25664  0.04153  0.00839  1.0000
  Fe  Fe36      1.0  0.38290  0.27402  0.80218  1.0000
  S   S70       1.0  0.34447  0.28788  0.81534  1.0000
  Fe  Fe37      1.0  0.41184  0.22794  0.80700  1.0000
  H   H267      1.0  0.49302  0.45773  0.98320  1.0000
  S   S71       1.0  0.40641  0.17953  0.82030  1.0000
  Fe  Fe38      1.0  0.45573  0.30085  0.79914  1.0000
  H   H268      1.0  0.47997  0.47473  0.95740  1.0000
  S   S72       1.0  0.41891  0.27254  0.83072  1.0000
  S   S73       1.0  0.37193  0.22652  0.78146  1.0000
  H   H269      1.0  0.39435  0.12636  0.78141  1.0000
  S   S74       1.0  0.25648  0.40636  0.81778  1.0000
  C   C169      1.0  0.25252  0.31443  0.84450  1.0000
  H   H270      1.0  0.31035  0.08593  0.97204  1.0000
  S   S75       1.0  0.50310  0.03939  0.91384  1.0000
  H   H271      1.0  0.13633  0.42922  0.79943  1.0000
  C   C170      1.0  0.47539  0.20208  0.87732  1.0000
  S   S76       1.0  0.50623  0.34108  0.80962  1.0000
  Fe  Fe39      1.0  0.46456  0.05071  0.89869  1.0000
  S   S77       1.0  0.47065  0.08671  0.93172  1.0000
  C   C171      1.0  0.23923  0.04961  0.99035  1.0000
  H   H272      1.0  0.47889  0.41730  0.90384  1.0000
  C   C172      1.0  0.24507  0.08204  0.98933  1.0000
  H   H273      1.0  0.37328  0.38196  0.78356  1.0000
  H   H274      1.0  0.23234  0.08851  0.97482  1.0000
  H   H275      1.0  0.38974  0.08553  0.96748  1.0000
  C   C173      1.0  0.43393  0.17771  0.84303  1.0000
  C   C174      1.0  0.43626  0.14881  0.84440  1.0000
  C   C175      1.0  0.45854  0.14675  0.86175  1.0000
  C   C176      1.0  0.47849  0.17353  0.87803  1.0000
  C   C177      1.0  0.51099  0.37736  0.82580  1.0000
  C   C178      1.0  0.45332  0.20429  0.85973  1.0000
  H   H276      1.0  0.42102  0.12797  0.83183  1.0000
  H   H277      1.0  0.46043  0.12449  0.86236  1.0000
  H   H278      1.0  0.27779  0.32983  0.85194  1.0000
  H   H279      1.0  0.45092  0.22628  0.85936  1.0000
  H   H280      1.0  0.32035  0.02593  0.92674  1.0000
  N   N19       1.0  0.16916  0.41425  0.78053  1.0000
  C   C179      1.0  0.31545  0.31956  0.79153  1.0000
  H   H281      1.0  0.36269  0.04123  0.93424  1.0000
  H   H282      1.0  0.31239  0.32719  0.81147  1.0000
  C   C180      1.0  0.18941  0.11933  0.00950  1.0000
  H   H283      1.0  0.25239  0.01662  0.00931  1.0000
  H   H284      1.0  0.50215  0.41014  0.97286  1.0000
  H   H285      1.0  0.46855  0.41701  0.84631  1.0000
  H   H286      1.0  0.46024  0.36509  0.82415  1.0000
  C   C181      1.0  0.48439  0.38316  0.83040  1.0000
  H   H287      1.0  0.49636  0.39332  0.93946  1.0000
  H   H288      1.0  0.16133  0.34014  0.00118  1.0000
  C   C182      1.0  0.17030  0.31977  0.85783  1.0000
  C   C183      1.0  0.19066  0.34787  0.87266  1.0000
  C   C184      1.0  0.21657  0.37449  0.86002  1.0000
  C   C185      1.0  0.22246  0.37320  0.83251  1.0000
  C   C186      1.0  0.20176  0.34531  0.81761  1.0000
  C   C187      1.0  0.17577  0.31880  0.83021  1.0000
  H   H289      1.0  0.18676  0.34897  0.89392  1.0000
  H   H290      1.0  0.23243  0.39599  0.87171  1.0000
  H   H291      1.0  0.20599  0.34387  0.79648  1.0000
  H   H292      1.0  0.16011  0.29716  0.81856  1.0000
  C   C188      1.0  0.07411  0.36567  0.95406  1.0000
  C   C189      1.0  0.07911  0.36116  0.92700  1.0000
  C   C190      1.0  0.06633  0.37288  0.90748  1.0000
  C   C191      1.0  0.04814  0.38878  0.91486  1.0000
  C   C192      1.0  0.04276  0.39294  0.94195  1.0000
  C   C193      1.0  0.05596  0.38161  0.96152  1.0000
  H   H293      1.0  0.09328  0.34912  0.92105  1.0000
  H   H294      1.0  0.07059  0.36967  0.88656  1.0000
  C   C194      1.0  0.32868  0.03963  0.97902  1.0000
  H   H295      1.0  0.23745  0.32537  0.85268  1.0000
  H   H296      1.0  0.46165  0.38786  0.95948  1.0000
  C   C195      1.0  0.33033  0.29969  0.78773  1.0000
  H   H297      1.0  0.02673  0.23931  0.00566  1.0000
  H   H298      1.0  0.02884  0.40531  0.94777  1.0000
  H   H299      1.0  0.18223  0.05818  0.00922  1.0000
  C   C196      1.0  0.37012  0.09240  0.96452  1.0000
  H   H300      1.0  0.21115  0.11854  0.00080  1.0000
  H   H301      1.0  0.36775  0.10447  0.98336  1.0000
  C   C197      1.0  0.48742  0.40547  0.95445  1.0000
  C   C198      1.0  0.34317  0.04839  0.93231  1.0000
  H   H302      1.0  0.35777  0.15107  0.77982  1.0000
  H   H303      1.0  0.17855  0.38331  0.00645  1.0000
  H   H304      1.0  0.03026  0.28709  0.96931  1.0000
  C   C199      1.0  0.31354  0.07363  0.95369  1.0000
  H   H305      1.0  0.02397  0.29422  0.92109  1.0000
  H   H306      1.0  0.31996  0.09105  0.93709  1.0000
  H   H307      1.0  0.45240  0.43529  0.97021  1.0000
  S   S78       1.0  0.03257  0.40309  0.88976  1.0000
  H   H308      1.0  0.21903  0.43578  0.79350  1.0000
  H   H309      1.0  0.14414  0.05676  0.00160  1.0000
  H   H310      1.0  0.19531  0.45258  0.80955  1.0000
  C   C200      1.0  0.48915  0.41255  0.84297  1.0000
  S   S79       1.0  0.20967  0.01982  0.96917  1.0000
  H   H311      1.0  0.28936  0.05224  0.94909  1.0000
  H   H312      1.0  0.34679  0.03078  0.98197  1.0000
  N   N20       1.0  0.33887  0.06352  0.95738  1.0000
  C   C201      1.0  0.19427  0.42961  0.80143  1.0000
  N   N21       1.0  0.23917  0.28010  0.85255  1.0000
  C   C202      1.0  0.26098  0.26706  0.84270  1.0000
  C   C203      1.0  0.20630  0.26040  0.84105  1.0000
  H   H313      1.0  0.13020  0.38973  0.80885  1.0000
  C   C204      1.0  0.23677  0.27858  0.88200  1.0000
  H   H314      1.0  0.27203  0.13116  0.00578  1.0000
  H   H315      1.0  0.49017  0.22250  0.89043  1.0000
  H   H316      1.0  0.22675  0.25303  0.88887  1.0000
  H   H317      1.0  0.18895  0.26890  0.84877  1.0000
  H   H318      1.0  0.20687  0.26192  0.81889  1.0000
  H   H319      1.0  0.19578  0.23420  0.84617  1.0000
  S   S80       1.0  0.19114  0.29403  0.99878  1.0000
  H   H320      1.0  0.25319  0.31655  0.82238  1.0000
  C   C205      1.0  0.30575  0.33068  0.76947  1.0000
  H   H321      1.0  0.25203  0.24136  0.84876  1.0000
  C   C206      1.0  0.26747  0.10614  0.00677  1.0000
  C   C207      1.0  0.47832  0.45158  0.96462  1.0000
  H   H322      1.0  0.14519  0.22623  0.01083  1.0000
  S   S81       1.0  0.02765  0.19325  0.96520  1.0000
  Fe  Fe40      1.0  0.26816  0.40705  0.77350  1.0000
  S   S82       1.0  0.42038  0.30546  0.77211  1.0000
  H   H323      1.0  0.26108  0.29334  0.89142  1.0000
  H   H324      1.0  0.05203  0.38518  0.98243  1.0000
  H   H325      1.0  0.17248  0.11590  0.99291  1.0000
  N   N22       1.0  0.49019  0.43613  0.94415  1.0000
  H   H326      1.0  0.37864  0.11090  0.94856  1.0000
  H   H327      1.0  0.32582  0.05038  0.99836  1.0000
  H   H328      1.0  0.28624  0.28167  0.85055  1.0000
  S   S83       1.0  0.49867  0.08808  0.86973  1.0000
  H   H329      1.0  0.18949  0.41295  0.81842  1.0000
  H   H330      1.0  0.35025  0.06543  0.91537  1.0000
  H   H331      1.0  0.03470  0.48927  0.97669  1.0000
  H   H332      1.0  0.29455  0.34626  0.77249  1.0000
  H   H333      1.0  0.11731  0.39498  0.77660  1.0000
  C   C208      1.0  0.39620  0.38125  0.77789  1.0000
  H   H334      1.0  0.22027  0.28812  0.88997  1.0000
  H   H335      1.0  0.26293  0.26743  0.82051  1.0000
  H   H336      1.0  0.20165  0.36248  0.01401  1.0000
  H   H337      1.0  0.49804  0.23387  0.80859  1.0000
  H   H338      1.0  0.16221  0.36580  0.78694  1.0000
  H   H339      1.0  0.47274  0.45181  0.91107  1.0000
  S   S84       1.0  0.45145  0.25597  0.77745  1.0000
  H   H340      1.0  0.38974  0.35520  0.77403  1.0000
  S   S85       1.0  0.41409  0.01354  0.88523  1.0000
  C   C209      1.0  0.16858  0.38372  0.77073  1.0000
  H   H341      1.0  0.50325  0.01012  0.96769  1.0000
  C   C210      1.0  0.47050  0.42900  0.91968  1.0000
  H   H342      1.0  0.41892  0.01289  0.94287  1.0000
  C   C211      1.0  0.03103  0.50033  0.99482  1.0000
  H   H343      1.0  0.30487  0.01773  0.97456  1.0000
  Fe  Fe41      1.0  0.50683  0.12357  0.90373  1.0000
  H   H344      1.0  0.43703  0.44566  0.77761  1.0000
  H   H345      1.0  0.49492  0.27784  0.83366  1.0000
  S   S86       1.0  0.50842  0.17260  0.89855  1.0000
  H   H346      1.0  0.41260  0.38985  0.79552  1.0000
  C   C212      1.0  0.17689  0.36066  0.01480  1.0000
  Fe  Fe42      1.0  0.51212  0.07843  0.94481  1.0000
  H   H347      1.0  0.39792  0.43798  0.76526  1.0000
  Fe  Fe43      1.0  0.05810  0.60964  0.13497  1.0000
  S   S87       1.0  0.09917  0.63746  0.10626  1.0000
  H   H348      1.0  0.47651  0.99995  0.03929  1.0000
  Fe  Fe44      1.0  0.08082  0.55893  0.14531  1.0000
  S   S88       1.0  0.12339  0.58326  0.11738  1.0000
  S   S89       1.0  0.02222  0.83821  0.06223  1.0000
  Fe  Fe45      1.0  0.13012  0.63043  0.13658  1.0000
  S   S90       1.0  0.17986  0.66810  0.15167  1.0000
  Fe  Fe46      1.0  0.08789  0.58748  0.09001  1.0000
  S   S91       1.0  0.08787  0.57418  0.04594  1.0000
  S   S92       1.0  0.08973  0.60561  0.16648  1.0000
  S   S93       1.0  0.04465  0.56018  0.11674  1.0000
  C   C213      1.0  0.05360  0.54101  0.03107  1.0000
  S   S94       1.0  0.02231  0.62788  0.14658  1.0000
  H   H349      1.0  0.40931  0.95117  0.08660  1.0000
  S   S95       1.0  0.47966  0.95710  0.15170  1.0000
  C   C214      1.0  0.05696  0.73907  0.10642  1.0000
  Fe  Fe47      1.0  0.24928  0.84006  0.21843  1.0000
  C   C215      1.0  0.10815  0.87598  0.02108  1.0000
  S   S96       1.0  0.20457  0.80769  0.19390  1.0000
  Fe  Fe48      1.0  0.29823  0.91078  0.23313  1.0000
  S   S97       1.0  0.31828  0.96311  0.22114  1.0000
  Fe  Fe49      1.0  0.32027  0.85935  0.23047  1.0000
  S   S98       1.0  0.36020  0.84772  0.21600  1.0000
  S   S99       1.0  0.29691  0.87616  0.20045  1.0000
  C   C216      1.0  0.10076  0.50826  0.18169  1.0000
  Fe  Fe50      1.0  0.47826  0.53099  0.13512  1.0000
  S   S100      1.0  0.45057  0.54260  0.10493  1.0000
  H   H350      1.0  0.32416  0.78698  0.18041  1.0000
  H   H351      1.0  0.24872  0.52376  0.24226  1.0000
  H   H352      1.0  0.28080  0.76190  0.17680  1.0000
  C   C217      1.0  0.33315  0.99303  0.24670  1.0000
  H   H353      1.0  0.07102  0.74973  0.12507  1.0000
  C   C218      1.0  0.45470  0.99257  0.05247  1.0000
  C   C219      1.0  0.44660  0.92601  0.16918  1.0000
  C   C220      1.0  0.42172  0.93232  0.17932  1.0000
  C   C221      1.0  0.39517  0.90850  0.19365  1.0000
  C   C222      1.0  0.39333  0.87813  0.19806  1.0000
  C   C223      1.0  0.41797  0.87160  0.18763  1.0000
  C   C224      1.0  0.44453  0.89544  0.17320  1.0000
  H   H354      1.0  0.42313  0.95589  0.17634  1.0000
  H   H355      1.0  0.37635  0.91383  0.20155  1.0000
  H   H356      1.0  0.41669  0.84815  0.19093  1.0000
  H   H357      1.0  0.46356  0.89032  0.16546  1.0000
  C   C225      1.0  0.05438  0.84177  0.04085  1.0000
  C   C226      1.0  0.46810  0.95602  0.07598  1.0000
  H   H358      1.0  0.12161  0.77119  0.09734  1.0000
  S   S101      1.0  0.06972  0.51047  0.16352  1.0000
  H   H359      1.0  0.20109  0.79654  0.24884  1.0000
  H   H360      1.0  0.32531  0.55785  0.20168  1.0000
  C   C227      1.0  0.01541  0.63810  0.09372  1.0000
  C   C228      1.0  0.12909  0.53646  0.18933  1.0000
  H   H361      1.0  0.13239  0.56021  0.18393  1.0000
  H   H362      1.0  0.17459  0.55601  0.21058  1.0000
  H   H363      1.0  0.10338  0.73513  0.07630  1.0000
  H   H364      1.0  0.43384  0.97195  0.04213  1.0000
  S   S102      1.0  0.27227  0.82032  0.24627  1.0000
  C   C229      1.0  0.18427  0.70529  0.16544  1.0000
  C   C230      1.0  0.16335  0.71764  0.15847  1.0000
  C   C231      1.0  0.16942  0.74884  0.16779  1.0000
  C   C232      1.0  0.19614  0.76766  0.18436  1.0000
  C   C233      1.0  0.21614  0.75467  0.19234  1.0000
  C   C234      1.0  0.21042  0.72374  0.18265  1.0000
  H   H365      1.0  0.14305  0.70352  0.14529  1.0000
  H   H366      1.0  0.15366  0.75862  0.16174  1.0000
  H   H367      1.0  0.23639  0.76868  0.20548  1.0000
  H   H368      1.0  0.22632  0.71399  0.18840  1.0000
  H   H369      1.0  0.33332  0.84584  0.12866  1.0000
  H   H370      1.0  0.42376  0.99257  0.09847  1.0000
  S   S103      1.0  0.32437  0.89599  0.26243  1.0000
  H   H371      1.0  0.05454  0.79258  0.08878  1.0000
  C   C235      1.0  0.15298  0.53402  0.20443  1.0000
  H   H372      1.0  0.29708  0.80205  0.19184  1.0000
  N   N23       1.0  0.07383  0.75887  0.08295  1.0000
  C   C236      1.0  0.30544  0.53403  0.19428  1.0000
  N   N24       1.0  0.27310  0.52825  0.20446  1.0000
  H   H373      1.0  0.05333  0.71366  0.10406  1.0000
  H   H374      1.0  0.50612  0.82528  0.19933  1.0000
  H   H375      1.0  0.13070  0.74273  0.24897  1.0000
  H   H376      1.0  0.06635  0.75746  0.04062  1.0000
  C   C237      1.0  0.50313  0.80526  0.21270  1.0000
  S   S104      1.0  0.46538  0.51334  0.03591  1.0000
  H   H377      1.0  0.48029  0.59255  0.17002  1.0000
  H   H378      1.0  0.03263  0.79063  0.03035  1.0000
  H   H379      1.0  0.50160  0.76113  0.17550  1.0000
  C   C238      1.0  0.05367  0.81438  0.02795  1.0000
  H   H380      1.0  0.03236  0.73715  0.10942  1.0000
  H   H381      1.0  0.04896  0.71807  0.05569  1.0000
  H   H382      1.0  0.09249  0.80428  0.10537  1.0000
  H   H383      1.0  0.01875  0.53962  0.06061  1.0000
  C   C239      1.0  0.50481  0.61146  0.17445  1.0000
  S   S105      1.0  0.24778  0.87662  0.24808  1.0000
  C   C240      1.0  0.08161  0.87257  0.03722  1.0000
  C   C241      1.0  0.10601  0.76008  0.07947  1.0000
  H   H384      1.0  0.09179  0.80820  0.06989  1.0000
  H   H385      1.0  0.32932  0.85084  0.16396  1.0000
  H   H386      1.0  0.47815  0.78459  0.20955  1.0000
  H   H387      1.0  0.30651  0.53420  0.17204  1.0000
  H   H388      1.0  0.11945  0.77486  0.06192  1.0000
  C   C242      1.0  0.05398  0.74383  0.05886  1.0000
  H   H389      1.0  0.24156  0.55011  0.20257  1.0000
  H   H390      1.0  0.48910  0.64406  0.19330  1.0000
  H   H391      1.0  0.02987  0.74340  0.06046  1.0000
  C   C243      1.0  0.02240  0.52853  0.04248  1.0000
  C   C244      1.0  0.50139  0.51591  0.02137  1.0000
  C   C245      1.0  0.07838  0.79241  0.08697  1.0000
  H   H392      1.0  0.35443  0.83383  0.15192  1.0000
  H   H393      1.0  0.08234  0.51015  0.10811  1.0000
  H   H394      1.0  0.49111  0.96344  0.06446  1.0000
  H   H395      1.0  0.44851  0.93460  0.06532  1.0000
  H   H396      1.0  0.12912  0.89978  0.01862  1.0000
  N   N25       1.0  0.30276  0.80129  0.14920  1.0000
  C   C246      1.0  0.30645  0.78015  0.12832  1.0000
  C   C247      1.0  0.27242  0.80321  0.14456  1.0000
  C   C248      1.0  0.33115  0.83437  0.14827  1.0000
  C   C249      1.0  0.30105  0.78735  0.17568  1.0000
  H   H397      1.0  0.32905  0.77808  0.13129  1.0000
  H   H398      1.0  0.30781  0.78992  0.10805  1.0000
  H   H399      1.0  0.28538  0.75496  0.12852  1.0000
  H   H400      1.0  0.27332  0.81479  0.12524  1.0000
  H   H401      1.0  0.25065  0.77851  0.14411  1.0000
  H   H402      1.0  0.26798  0.81777  0.16060  1.0000
  C   C250      1.0  0.27303  0.52869  0.23398  1.0000
  H   H403      1.0  0.26532  0.55406  0.17288  1.0000
  H   H404      1.0  0.49268  0.00525  0.11224  1.0000
  H   H405      1.0  0.08227  0.89387  0.04710  1.0000
  H   H406      1.0  0.31117  0.51451  0.20054  1.0000
  H   H407      1.0  0.29144  0.55276  0.24224  1.0000
  C   C251      1.0  0.43049  0.97269  0.09573  1.0000
  H   H408      1.0  0.02953  0.62565  0.08899  1.0000
  C   C252      1.0  0.26587  0.55396  0.19507  1.0000
  H   H409      1.0  0.49968  0.58088  0.05891  1.0000
  H   H410      1.0  0.16589  0.73761  0.24186  1.0000
  H   H411      1.0  0.28445  0.57864  0.20211  1.0000
  H   H412      1.0  0.47144  0.94764  0.09567  1.0000
  H   H413      1.0  0.43409  0.96563  0.11599  1.0000
  H   H414      1.0  0.07128  0.51767  0.07617  1.0000
  H   H415      1.0  0.16630  0.80220  0.25608  1.0000
  N   N26       1.0  0.46024  0.98321  0.07907  1.0000
  C   C253      1.0  0.14982  0.73849  0.25834  1.0000
  H   H416      1.0  0.49943  0.74704  0.22286  1.0000
  H   H417      1.0  0.50449  0.81441  0.23365  1.0000
  C   C254      1.0  0.50986  0.64062  0.18766  1.0000
  H   H418      1.0  0.27861  0.50971  0.24176  1.0000
  S   S106      1.0  0.51244  0.91325  0.10001  1.0000
  S   S107      1.0  0.03482  0.63278  0.38389  1.0000
  Fe  Fe51      1.0  0.12153  0.83916  0.41543  1.0000
  S   S108      1.0  0.15114  0.82731  0.44346  1.0000
  S   S109      1.0  0.13465  0.84945  0.37159  1.0000
  Fe  Fe52      1.0  0.07596  0.84001  0.46034  1.0000
  S   S110      1.0  0.10282  0.82888  0.49152  1.0000
  C   C255      1.0  0.14659  0.76506  0.29973  1.0000
  Fe  Fe53      1.0  0.14832  0.86512  0.47084  1.0000
  C   C256      1.0  0.50341  0.99796  0.50199  1.0000
  Fe  Fe54      1.0  0.10260  0.79235  0.46114  1.0000
  S   S111      1.0  0.08830  0.74182  0.47520  1.0000
  S   S112      1.0  0.12174  0.87936  0.44176  1.0000
  S   S113      1.0  0.07272  0.80117  0.43105  1.0000
  H   H419      1.0  0.50136  0.54344  0.49368  1.0000
  H   H420      1.0  0.12728  0.77001  0.29167  1.0000
  S   S114      1.0  0.25715  0.84384  0.31794  1.0000
  H   H421      1.0  0.14810  0.92803  0.49426  1.0000
  C   C257      1.0  0.25383  0.91750  0.38949  1.0000
  C   C258      1.0  0.16834  0.84710  0.35682  1.0000
  C   C259      1.0  0.18307  0.83075  0.36897  1.0000
  C   C260      1.0  0.21029  0.82998  0.35686  1.0000
  C   C261      1.0  0.22296  0.84545  0.33249  1.0000
  C   C262      1.0  0.20815  0.86169  0.32034  1.0000
  C   C263      1.0  0.18086  0.86232  0.33238  1.0000
  H   H422      1.0  0.17326  0.81838  0.38754  1.0000
  H   H423      1.0  0.22148  0.81719  0.36634  1.0000
  H   H424      1.0  0.21784  0.87404  0.30176  1.0000
  H   H425      1.0  0.16960  0.87502  0.32285  1.0000
  C   C264      1.0  0.07427  0.71164  0.44973  1.0000
  C   C265      1.0  0.07781  0.72024  0.42289  1.0000
  C   C266      1.0  0.06621  0.69584  0.40278  1.0000
  C   C267      1.0  0.05058  0.66277  0.40943  1.0000
  C   C268      1.0  0.04690  0.65412  0.43626  1.0000
  C   C269      1.0  0.05894  0.67855  0.45637  1.0000
  H   H426      1.0  0.08986  0.74571  0.41762  1.0000
  C   C270      1.0  0.20691  0.91192  0.41491  1.0000
  H   H427      1.0  0.18983  0.89004  0.40310  1.0000
  H   H428      1.0  0.25706  0.94021  0.38005  1.0000
  H   H429      1.0  0.26039  0.88445  0.43015  1.0000
  H   H430      1.0  0.16020  0.78456  0.31500  1.0000
  H   H431      1.0  0.18298  0.73406  0.29997  1.0000
  H   H432      1.0  0.08235  0.54049  0.48974  1.0000
  S   S115      1.0  0.03414  0.84944  0.47298  1.0000
  H   H433      1.0  0.08795  0.89224  0.50574  1.0000
  H   H434      1.0  0.03677  0.54500  0.46897  1.0000
  H   H435      1.0  0.19575  0.91014  0.43504  1.0000
  H   H436      1.0  0.20808  0.93365  0.40521  1.0000
  H   H437      1.0  0.06919  0.70260  0.38204  1.0000
  C   C271      1.0  0.26079  0.94240  0.43357  1.0000
  H   H438      1.0  0.13750  0.71396  0.26748  1.0000
  H   H439      1.0  0.05623  0.67182  0.47712  1.0000
  H   H440      1.0  0.13428  0.74142  0.31025  1.0000
  H   H441      1.0  0.26350  0.96555  0.42539  1.0000
  H   H442      1.0  0.22038  0.86179  0.41617  1.0000
  C   C272      1.0  0.03331  0.53400  0.48826  1.0000
  N   N27       1.0  0.23948  0.91392  0.41659  1.0000
  Fe  Fe55      1.0  0.27355  0.85889  0.27519  1.0000
  C   C273      1.0  0.19396  0.75805  0.28998  1.0000
  N   N28       1.0  0.16866  0.76443  0.27832  1.0000
  H   H443      1.0  0.19934  0.81642  0.27941  1.0000
  H   H444      1.0  0.22527  0.88023  0.44886  1.0000
  H   H445      1.0  0.25057  0.94020  0.45421  1.0000
  H   H446      1.0  0.27810  0.91825  0.38981  1.0000
  H   H447      1.0  0.23789  0.89672  0.37607  1.0000
  H   H448      1.0  0.41817  0.99002  0.29819  1.0000
  H   H449      1.0  0.21139  0.75797  0.27444  1.0000
  C   C274      1.0  0.23628  0.88379  0.42846  1.0000
  H   H450      1.0  0.02270  0.78630  0.49172  1.0000
  H   H451      1.0  0.28563  0.94474  0.43526  1.0000
  H   H452      1.0  0.20857  0.77716  0.30520  1.0000
  C   C275      1.0  0.05914  0.53150  0.50011  1.0000
  C   C276      1.0  0.19582  0.93772  0.50688  1.0000
  C   C277      1.0  0.16959  0.94441  0.50542  1.0000
  S   S116      1.0  0.19427  0.90230  0.49169  1.0000
  H   H453      1.0  0.30255  0.96186  0.27778  1.0000
  H   H454      1.0  0.48286  0.98442  0.48889  1.0000
  S   S117      1.0  0.01289  0.54563  0.41522  1.0000
  H   H455      1.0  0.03505  0.62864  0.44151  1.0000
  C   C278      1.0  0.32068  0.98639  0.27273  1.0000
  H   H456      1.0  0.32046  0.00685  0.31193  1.0000
  C   C279      1.0  0.18447  0.79631  0.26513  1.0000
  Fe  Fe56      1.0  0.45450  0.95371  0.58603  1.0000
  H   H457      1.0  0.04673  0.56252  0.57050  1.0000
  S   S118      1.0  0.46313  0.95979  0.54149  1.0000
  Fe  Fe57      1.0  0.40750  0.90901  0.62892  1.0000
  S   S119      1.0  0.43215  0.94605  0.66186  1.0000
  S   S120      1.0  0.36108  0.86087  0.63368  1.0000
  Fe  Fe58      1.0  0.43290  0.98225  0.63273  1.0000
  Fe  Fe59      1.0  0.47890  0.95384  0.64163  1.0000
  C   C280      1.0  0.08078  0.62750  0.56988  1.0000
  S   S121      1.0  0.40532  0.94472  0.60115  1.0000
  S   S122      1.0  0.45434  0.91394  0.61059  1.0000
  H   H458      1.0  0.47454  0.64128  0.74795  1.0000
  H   H459      1.0  0.24744  0.00413  0.54461  1.0000
  Fe  Fe60      1.0  0.20922  0.80410  0.72680  1.0000
  H   H460      1.0  0.25597  0.73581  0.73891  1.0000
  S   S123      1.0  0.25272  0.85254  0.71655  1.0000
  Fe  Fe61      1.0  0.13557  0.75947  0.72922  1.0000
  S   S124      1.0  0.08555  0.74740  0.71467  1.0000
  Fe  Fe62      1.0  0.18076  0.73026  0.73068  1.0000
  S   S125      1.0  0.19056  0.68898  0.71712  1.0000
  S   S126      1.0  0.16922  0.80499  0.75222  1.0000
  S   S127      1.0  0.17484  0.76201  0.70081  1.0000
  C   C281      1.0  0.06392  0.57407  0.58737  1.0000
  Fe  Fe63      1.0  0.08526  0.52702  0.63905  1.0000
  S   S128      1.0  0.07615  0.56696  0.65790  1.0000
  S   S129      1.0  0.12605  0.53990  0.60947  1.0000
  S   S130      1.0  0.21839  0.77258  0.75456  1.0000
  C   C282      1.0  0.10826  0.60064  0.67429  1.0000
  C   C283      1.0  0.13893  0.60252  0.67726  1.0000
  C   C284      1.0  0.16400  0.62972  0.69045  1.0000
  C   C285      1.0  0.15866  0.65527  0.70054  1.0000
  C   C286      1.0  0.12809  0.65357  0.69728  1.0000
  C   C287      1.0  0.10296  0.62628  0.68426  1.0000
  H   H461      1.0  0.14324  0.58286  0.66967  1.0000
  H   H462      1.0  0.18755  0.63083  0.69293  1.0000
  H   H463      1.0  0.12381  0.67326  0.70482  1.0000
  H   H464      1.0  0.07935  0.62504  0.68186  1.0000
  H   H465      1.0  0.44986  0.59770  0.74941  1.0000
  H   H466      1.0  0.13168  0.91673  0.55439  1.0000
  C   C288      1.0  0.19915  0.99383  0.53290  1.0000
  H   H467      1.0  0.07065  0.89205  0.58981  1.0000
  C   C289      1.0  0.43801  0.53167  0.67307  1.0000
  C   C290      1.0  0.07136  0.90343  0.57040  1.0000
  H   H468      1.0  0.40142  0.54652  0.68261  1.0000
  H   H469      1.0  0.45319  0.55323  0.66183  1.0000
  S   S131      1.0  0.48528  0.51270  0.66314  1.0000
  C   C291      1.0  0.27369  0.73051  0.72737  1.0000
  H   H470      1.0  0.47286  0.63904  0.69769  1.0000
  H   H471      1.0  0.47642  0.89824  0.67659  1.0000
  H   H472      1.0  0.48028  0.85554  0.70268  1.0000
  C   C292      1.0  0.33139  0.85829  0.65729  1.0000
  C   C293      1.0  0.29962  0.83198  0.65569  1.0000
  C   C294      1.0  0.27532  0.82956  0.67407  1.0000
  C   C295      1.0  0.28268  0.85372  0.69394  1.0000
  C   C296      1.0  0.31435  0.88009  0.69542  1.0000
  C   C297      1.0  0.33874  0.88214  0.67741  1.0000
  H   H473      1.0  0.29374  0.81364  0.63997  1.0000
  H   H474      1.0  0.25076  0.80947  0.67252  1.0000
  H   H475      1.0  0.32018  0.89892  0.71069  1.0000
  H   H476      1.0  0.36321  0.90232  0.67900  1.0000
  H   H477      1.0  0.09543  0.58681  0.54031  1.0000
  H   H478      1.0  0.34711  0.92216  0.63648  1.0000
  C   C298      1.0  0.50196  0.87846  0.69907  1.0000
  C   C299      1.0  0.08025  0.90294  0.52282  1.0000
  H   H479      1.0  0.29453  0.96235  0.64307  1.0000
  H   H480      1.0  0.32733  0.90947  0.59073  1.0000
  H   H481      1.0  0.11988  0.58161  0.56480  1.0000
  H   H482      1.0  0.13247  0.62136  0.55164  1.0000
  C   C300      1.0  0.44764  0.50771  0.67612  1.0000
  C   C301      1.0  0.49105  0.58224  0.72220  1.0000
  H   H483      1.0  0.26019  0.70429  0.72095  1.0000
  H   H484      1.0  0.05513  0.83939  0.56502  1.0000
  N   N29       1.0  0.31065  0.93251  0.62054  1.0000
  N   N30       1.0  0.07999  0.88732  0.54814  1.0000
  H   H485      1.0  0.04690  0.90164  0.56739  1.0000
  H   H486      1.0  0.10156  0.65125  0.56390  1.0000
  C   C302      1.0  0.02296  0.71651  0.73461  1.0000
  H   H487      1.0  0.12229  0.60353  0.61106  1.0000
  H   H488      1.0  0.33099  0.74750  0.70227  1.0000
  H   H489      1.0  0.28709  0.79392  0.72365  1.0000
  C   C303      1.0  0.11274  0.89060  0.55271  1.0000
  H   H490      1.0  0.29807  0.71815  0.68205  1.0000
  H   H491      1.0  0.29947  0.92276  0.57873  1.0000
  C   C304      1.0  0.31029  0.74402  0.68943  1.0000
  C   C305      1.0  0.50048  0.99068  0.52920  1.0000
  C   C306      1.0  0.22570  0.98760  0.53372  1.0000
  H   H492      1.0  0.07180  0.55629  0.59382  1.0000
  H   H493      1.0  0.08943  0.92985  0.57225  1.0000
  H   H494      1.0  0.50168  0.57805  0.70330  1.0000
  H   H495      1.0  0.24237  0.75335  0.69669  1.0000
  H   H496      1.0  0.44578  0.59602  0.70079  1.0000
  H   H497      1.0  0.12037  0.87935  0.53599  1.0000
  C   C307      1.0  0.31998  0.92904  0.59272  1.0000
  H   H498      1.0  0.26107  0.89433  0.61623  1.0000
  C   C308      1.0  0.26017  0.74711  0.68633  1.0000
  C   C309      1.0  0.30424  0.78652  0.71362  1.0000
  H   H499      1.0  0.05035  0.60315  0.73575  1.0000
  H   H500      1.0  0.29322  0.73332  0.74128  1.0000
  H   H501      1.0  0.49880  0.79474  0.63615  1.0000
  H   H502      1.0  0.03046  0.84902  0.54365  1.0000
  C   C310      1.0  0.40877  0.52788  0.68489  1.0000
  H   H503      1.0  0.24617  0.72114  0.67941  1.0000
  C   C311      1.0  0.05554  0.85234  0.54660  1.0000
  H   H504      1.0  0.32083  0.75983  0.67176  1.0000
  H   H505      1.0  0.33236  0.94257  0.65956  1.0000
  C   C312      1.0  0.30143  0.95888  0.62229  1.0000
  H   H506      1.0  0.27554  0.90284  0.65006  1.0000
  H   H507      1.0  0.28040  0.95353  0.60915  1.0000
  C   C313      1.0  0.49972  0.90257  0.68428  1.0000
  H   H508      1.0  0.11335  0.87853  0.57138  1.0000
  H   H509      1.0  0.26937  0.76241  0.66834  1.0000
  H   H510      1.0  0.48171  0.61011  0.68016  1.0000
  C   C314      1.0  0.28282  0.90135  0.62895  1.0000
  H   H511      1.0  0.31605  0.80336  0.69678  1.0000
  H   H512      1.0  0.46590  0.56142  0.72406  1.0000
  H   H513      1.0  0.06061  0.83966  0.52945  1.0000
  H   H514      1.0  0.34105  0.95210  0.58582  1.0000
  C   C315      1.0  0.33860  0.94079  0.63824  1.0000
  N   N31       1.0  0.09232  0.60510  0.57961  1.0000
  H   H515      1.0  0.10022  0.62511  0.61970  1.0000
  S   S132      1.0  0.48202  0.99403  0.61567  1.0000
  H   H516      1.0  0.03743  0.66187  0.73567  1.0000
  H   H517      1.0  0.06642  0.63265  0.58555  1.0000
  H   H518      1.0  0.13540  0.64347  0.59802  1.0000
  H   H519      1.0  0.28913  0.88104  0.62760  1.0000
  H   H520      1.0  0.40702  0.00334  0.58886  1.0000
  C   C316      1.0  0.05637  0.73314  0.74057  1.0000
  N   N32       1.0  0.28710  0.75206  0.70420  1.0000
  S   S133      1.0  0.13948  0.72495  0.75749  1.0000
  H   H521      1.0  0.35969  0.96455  0.63305  1.0000
  C   C317      1.0  0.11355  0.62008  0.60304  1.0000
  H   H522      1.0  0.32379  0.79082  0.72807  1.0000
  H   H523      1.0  0.50927  0.79859  0.68542  1.0000
  C   C318      1.0  0.11088  0.59856  0.55816  1.0000
  H   H524      1.0  0.06475  0.61682  0.55214  1.0000
  H   H525      1.0  0.32205  0.98269  0.61604  1.0000
  C   C319      1.0  0.47542  0.61776  0.74735  1.0000
  H   H526      1.0  0.09730  0.92961  0.52358  1.0000
  H   H527      1.0  0.46005  0.51184  0.54426  1.0000
  H   H528      1.0  0.44824  0.52744  0.58837  1.0000
  H   H529      1.0  0.24444  0.95467  0.52189  1.0000
  C   C320      1.0  0.05517  0.51760  0.52529  1.0000
  H   H530      1.0  0.05010  0.57765  0.60441  1.0000
  S   S134      1.0  0.50103  0.58471  0.61646  1.0000
  H   H531      1.0  0.07855  0.64424  0.74583  1.0000
  N   N33       1.0  0.49077  0.61391  0.72233  1.0000
  C   C321      1.0  0.47188  0.61477  0.69930  1.0000
  C   C322      1.0  0.22396  0.95956  0.52083  1.0000
  H   H532      1.0  0.05551  0.89945  0.51796  1.0000
  C   C323      1.0  0.01818  0.63791  0.74302  1.0000
  H   H533      1.0  0.50573  0.58093  0.73892  1.0000
  H   H534      1.0  0.49839  0.52223  0.58147  1.0000
  H   H535      1.0  0.29903  0.90025  0.76085  1.0000
  H   H536      1.0  0.24053  0.88508  0.76159  1.0000
  C   C324      1.0  0.05822  0.62080  0.75300  1.0000
  S   S135      1.0  0.08836  0.51520  0.53941  1.0000
  C   C325      1.0  0.17123  0.97235  0.51850  1.0000
  H   H537      1.0  0.15092  0.97745  0.51744  1.0000
  H   H538      1.0  0.01520  0.71332  0.71405  1.0000
  N   N34       1.0  0.03085  0.62535  0.76401  1.0000
  H   H539      1.0  0.09197  0.75054  0.77199  1.0000
  H   H540      1.0  0.06234  0.67327  0.78031  1.0000
  S   S136      1.0  0.18163  0.77785  0.82338  1.0000
  H   H541      1.0  0.04039  0.54019  0.95135  1.0000
  Fe  Fe64      1.0  0.18149  0.89912  0.97419  1.0000
  S   S137      1.0  0.16916  0.92694  0.94478  1.0000
  C   C326      1.0  0.36926  0.98641  0.95747  1.0000
  Fe  Fe65      1.0  0.25495  0.94130  0.96410  1.0000
  S   S138      1.0  0.24746  0.97109  0.93338  1.0000
  S   S139      1.0  0.30631  0.95470  0.97624  1.0000
  Fe  Fe66      1.0  0.21087  0.97199  0.96273  1.0000
  Fe  Fe67      1.0  0.17628  0.77080  0.77851  1.0000
  Fe  Fe68      1.0  0.20692  0.92313  0.91855  1.0000
  S   S140      1.0  0.19417  0.90943  0.87502  1.0000
  S   S141      1.0  0.22024  0.94450  0.99458  1.0000
  S   S142      1.0  0.21753  0.89319  0.94691  1.0000
  C   C327      1.0  0.51058  0.52859  0.99568  1.0000
  H   H542      1.0  0.24781  0.88303  0.83529  1.0000
  H   H543      1.0  0.03976  0.59919  0.97861  1.0000
  H   H544      1.0  0.34430  0.97639  0.88313  1.0000
  C   C328      1.0  0.35130  0.97926  0.90388  1.0000
  C   C329      1.0  0.33609  0.96973  0.95072  1.0000
  H   H545      1.0  0.37631  0.98911  0.97820  1.0000
  C   C330      1.0  0.32715  0.96615  0.92387  1.0000
  H   H546      1.0  0.02249  0.65313  0.79541  1.0000
  H   H547      1.0  0.14105  0.82107  0.90313  1.0000
  H   H548      1.0  0.12773  0.87995  0.89925  1.0000
  C   C331      1.0  0.18288  0.81321  0.83844  1.0000
  C   C332      1.0  0.17146  0.83174  0.82513  1.0000
  C   C333      1.0  0.17471  0.86097  0.83677  1.0000
  C   C334      1.0  0.18915  0.87178  0.86188  1.0000
  C   C335      1.0  0.19993  0.85290  0.87550  1.0000
  C   C336      1.0  0.19668  0.82364  0.86383  1.0000
  H   H549      1.0  0.16008  0.82357  0.80587  1.0000
  H   H550      1.0  0.16609  0.87533  0.82619  1.0000
  H   H551      1.0  0.21138  0.86110  0.89475  1.0000
  H   H552      1.0  0.20556  0.80940  0.87427  1.0000
  H   H553      1.0  0.29051  0.89507  0.83479  1.0000
  H   H554      1.0  0.08745  0.85717  0.88567  1.0000
  C   C337      1.0  0.13075  0.82904  0.92026  1.0000
  H   H555      1.0  0.49562  0.53664  0.98526  1.0000
  H   H556      1.0  0.05083  0.72781  0.80827  1.0000
  C   C338      1.0  0.10777  0.84846  0.00878  1.0000
  H   H557      1.0  0.08625  0.79081  0.88404  1.0000
  H   H558      1.0  0.30165  0.95306  0.91848  1.0000
  H   H559      1.0  0.15008  0.85335  0.92732  1.0000
  N   N35       1.0  0.26865  0.88768  0.79600  1.0000
  H   H560      1.0  0.27668  0.92393  0.82684  1.0000
  C   C339      1.0  0.26021  0.85280  0.79400  1.0000
  H   H561      1.0  0.25869  0.84439  0.77283  1.0000
  C   C340      1.0  0.07666  0.79823  0.90204  1.0000
  H   H562      1.0  0.27855  0.84803  0.80410  1.0000
  H   H563      1.0  0.32016  0.90428  0.79151  1.0000
  C   C341      1.0  0.38446  0.99638  0.91065  1.0000
  C   C342      1.0  0.03612  0.55743  0.93925  1.0000
  C   C343      1.0  0.24297  0.89246  0.78310  1.0000
  H   H564      1.0  0.21873  0.87753  0.79258  1.0000
  H   H565      1.0  0.07006  0.77895  0.91715  1.0000
  C   C344      1.0  0.04298  0.72460  0.78772  1.0000
  H   H566      1.0  0.10524  0.86354  0.94516  1.0000
  S   S143      1.0  0.14120  0.85109  0.98962  1.0000
  H   H567      1.0  0.12586  0.81181  0.93681  1.0000
  H   H568      1.0  0.24825  0.91841  0.78451  1.0000
  H   H569      1.0  0.03098  0.54712  0.91850  1.0000
  C   C345      1.0  0.10927  0.85529  0.89194  1.0000
  H   H570      1.0  0.08078  0.82134  0.95244  1.0000
  C   C346      1.0  0.08728  0.83951  0.93639  1.0000
  H   H571      1.0  0.08183  0.53633  0.99820  1.0000
  C   C347      1.0  0.04255  0.64907  0.78666  1.0000
  H   H572      1.0  0.11990  0.84939  0.87383  1.0000
  C   C348      1.0  0.30025  0.90744  0.78239  1.0000
  N   N36       1.0  0.10097  0.83052  0.91266  1.0000
  H   H573      1.0  0.06493  0.84119  0.93148  1.0000
  H   H574      1.0  0.05378  0.79838  0.89617  1.0000
  H   H575      1.0  0.30743  0.93393  0.78357  1.0000
  C   C349      1.0  0.27110  0.89793  0.82444  1.0000
  H   H576      1.0  0.06844  0.61132  0.76827  1.0000
  H   H577      1.0  0.02634  0.60926  0.93280  1.0000
  H   H578      1.0  0.05933  0.58083  0.93873  1.0000
  C   C350      1.0  0.06629  0.73732  0.76718  1.0000
  H   H579      1.0  0.23612  0.83706  0.80343  1.0000
  C   C351      1.0  0.05775  0.52689  0.00713  1.0000
  C   C352      1.0  0.01668  0.57562  0.97784  1.0000
  H   H580      1.0  0.05238  0.64052  0.80291  1.0000
  C   C353      1.0  0.08040  0.81771  0.01216  1.0000
  H   H581      1.0  0.01981  0.55856  0.99110  1.0000
  H   H582      1.0  0.51031  0.96452  0.98527  1.0000
  C   C354      1.0  0.39340  0.99995  0.93751  1.0000
  H   H583      1.0  0.07986  0.79638  0.00247  1.0000
  H   H584      1.0  0.01303  0.58360  0.78935  1.0000
  H   H585      1.0  0.48917  0.61740  0.76514  1.0000
  H   H586      1.0  0.91155  0.21267  0.13992  1.0000
  Fe  Fe69      1.0  0.88026  0.13181  0.06733  1.0000
  S   S144      1.0  0.88561  0.10050  0.09812  1.0000
  C   C355      1.0  0.66748  0.03559  0.08709  1.0000
  Fe  Fe70      1.0  0.80584  0.09059  0.06771  1.0000
  S   S145      1.0  0.80623  0.05705  0.09862  1.0000
  S   S146      1.0  0.75675  0.07955  0.05149  1.0000
  Fe  Fe71      1.0  0.84362  0.10279  0.11908  1.0000
  S   S147      1.0  0.84283  0.10912  0.16406  1.0000
  Fe  Fe72      1.0  0.84759  0.05797  0.07449  1.0000
  H   H587      1.0  0.94646  0.16241  0.10861  1.0000
  S   S148      1.0  0.84008  0.13645  0.08993  1.0000
  H   H588      1.0  0.90417  0.18014  0.11628  1.0000
  H   H589      1.0  0.97156  0.49254  0.03905  1.0000
  H   H590      1.0  0.93475  0.22083  0.10930  1.0000
  S   S149      1.0  0.86468  0.24134  0.22149  1.0000
  H   H591      1.0  0.71396  0.05294  0.14257  1.0000
  C   C356      1.0  0.67516  0.03747  0.11415  1.0000
  N   N37       1.0  0.94812  0.19681  0.13893  1.0000
  S   S150      1.0  0.92504  0.17968  0.05676  1.0000
  C   C357      1.0  0.85052  0.14663  0.17947  1.0000
  C   C358      1.0  0.85571  0.15087  0.20712  1.0000
  C   C359      1.0  0.86082  0.18007  0.22020  1.0000
  C   C360      1.0  0.86057  0.20518  0.20571  1.0000
  C   C361      1.0  0.85574  0.20105  0.17799  1.0000
  C   C362      1.0  0.85088  0.17194  0.16489  1.0000
  H   H592      1.0  0.85554  0.13140  0.21856  1.0000
  H   H593      1.0  0.86438  0.18291  0.24157  1.0000
  H   H594      1.0  0.85542  0.22036  0.16667  1.0000
  H   H595      1.0  0.84678  0.16891  0.14361  1.0000
  H   H596      1.0  0.98596  0.23337  0.04086  1.0000
  H   H597      1.0  0.56452  0.50021  0.03280  1.0000
  H   H598      1.0  0.91270  0.14831  0.15025  1.0000
  H   H599      1.0  0.97029  0.28923  0.25972  1.0000
  C   C363      1.0  0.69262  0.04909  0.06789  1.0000
  C   C364      1.0  0.72543  0.06412  0.07568  1.0000
  C   C365      1.0  0.73299  0.06584  0.10272  1.0000
  H   H600      1.0  0.64220  0.02408  0.08099  1.0000
  H   H601      1.0  0.68664  0.04769  0.04698  1.0000
  H   H602      1.0  0.75817  0.07770  0.10892  1.0000
  C   C366      1.0  0.54352  0.04649  0.02503  1.0000
  H   H603      1.0  0.97653  0.20358  0.10295  1.0000
  H   H604      1.0  0.91957  0.17960  0.17490  1.0000
  C   C367      1.0  0.70793  0.05239  0.12184  1.0000
  C   C368      1.0  0.95344  0.18271  0.03144  1.0000
  H   H605      1.0  0.56008  0.02379  0.05366  1.0000
  N   N38       1.0  0.74809  0.12237  0.18781  1.0000
  C   C369      1.0  0.71983  0.08966  0.19156  1.0000
  C   C370      1.0  0.76303  0.12359  0.16125  1.0000
  C   C371      1.0  0.77251  0.12895  0.20874  1.0000
  C   C372      1.0  0.73708  0.14740  0.18971  1.0000
  H   H606      1.0  0.70804  0.08783  0.21144  1.0000
  H   H607      1.0  0.72731  0.07019  0.19015  1.0000
  H   H608      1.0  0.70075  0.08388  0.17617  1.0000
  H   H609      1.0  0.77243  0.10558  0.15929  1.0000
  H   H610      1.0  0.74519  0.11823  0.14493  1.0000
  H   H611      1.0  0.78403  0.14813  0.15761  1.0000
  H   H612      1.0  0.79351  0.15395  0.20708  1.0000
  H   H613      1.0  0.78251  0.11141  0.20721  1.0000
  H   H614      1.0  0.76196  0.12725  0.22913  1.0000
  H   H615      1.0  0.75789  0.17240  0.18702  1.0000
  H   H616      1.0  0.72580  0.14727  0.20956  1.0000
  H   H617      1.0  0.71865  0.14321  0.17416  1.0000
  H   H618      1.0  0.55312  0.06948  0.03606  1.0000
  S   S151      1.0  0.84534  0.08903  0.04192  1.0000
  H   H619      1.0  0.96109  0.23655  0.16730  1.0000
  C   C373      1.0  0.54741  0.02063  0.03507  1.0000
  C   C374      1.0  0.98180  0.21273  0.02797  1.0000
  C   C375      1.0  0.97263  0.22735  0.15198  1.0000
  S   S152      1.0  0.64453  0.02133  0.13882  1.0000
  C   C376      1.0  0.93179  0.17158  0.15928  1.0000
  C   C377      1.0  0.92358  0.20295  0.12559  1.0000
  H   H620      1.0  0.98308  0.18042  0.12810  1.0000
  H   H621      1.0  0.94941  0.16592  0.16956  1.0000
  C   C378      1.0  0.96437  0.18535  0.11887  1.0000
  H   H622      1.0  0.98533  0.24697  0.13722  1.0000
  H   H623      1.0  0.74494  0.00993  0.06210  1.0000
  H   H624      1.0  0.01138  0.43078  0.06130  1.0000
  C   C379      1.0  0.52096  0.50571  0.03471  1.0000
  H   H625      1.0  0.99154  0.22361  0.16228  1.0000
  C   C380      1.0  0.99566  0.50197  0.03015  1.0000
  H   H626      1.0  0.80391  0.01427  0.03002  1.0000
  H   H627      1.0  0.00955  0.31015  0.22177  1.0000
  H   H628      1.0  0.99376  0.45070  0.10139  1.0000
  S   S153      1.0  0.84834  0.01004  0.06774  1.0000
  C   C381      1.0  0.99628  0.30102  0.26338  1.0000
  H   H629      1.0  0.51402  0.49567  0.05443  1.0000
  H   H630      1.0  0.92653  0.13297  0.01708  1.0000
  Fe  Fe73      1.0  0.61942  0.04275  0.40202  1.0000
  S   S154      1.0  0.65194  0.07943  0.43254  1.0000
  Fe  Fe74      1.0  0.57642  0.07551  0.39693  1.0000
  S   S155      1.0  0.60581  0.11461  0.42707  1.0000
  H   H631      1.0  0.86264  0.43604  0.35519  1.0000
  Fe  Fe75      1.0  0.64955  0.11606  0.40571  1.0000
  S   S156      1.0  0.69105  0.16566  0.39526  1.0000
  Fe  Fe76      1.0  0.60510  0.07416  0.45084  1.0000
  S   S157      1.0  0.59719  0.07033  0.49573  1.0000
  S   S158      1.0  0.61999  0.07974  0.37367  1.0000
  S   S159      1.0  0.57280  0.03474  0.42221  1.0000
  Fe  Fe77      1.0  0.85667  0.22484  0.32243  1.0000
  H   H632      1.0  0.59564  0.39123  0.34747  1.0000
  S   S160      1.0  0.82434  0.17988  0.34649  1.0000
  Fe  Fe78      1.0  0.92741  0.27318  0.30792  1.0000
  S   S161      1.0  0.98056  0.29040  0.31686  1.0000
  Fe  Fe79      1.0  0.87655  0.29615  0.31252  1.0000
  S   S162      1.0  0.86630  0.33668  0.32790  1.0000
  S   S163      1.0  0.89388  0.27188  0.34137  1.0000
  C   C382      1.0  0.90800  0.46860  0.31713  1.0000
  Fe  Fe80      1.0  0.54142  0.46981  0.38639  1.0000
  S   S164      1.0  0.56211  0.44815  0.41454  1.0000
  C   C383      1.0  0.63275  0.22734  0.36202  1.0000
  H   H633      1.0  0.59323  0.01122  0.47263  1.0000
  H   H634      1.0  0.58501  0.19682  0.39930  1.0000
  H   H635      1.0  0.53461  0.02819  0.47062  1.0000
  S   S165      1.0  0.98429  0.47166  0.36548  1.0000
  Fe  Fe81      1.0  0.52170  0.44406  0.44213  1.0000
  H   H636      1.0  0.64151  0.18556  0.41300  1.0000
  H   H637      1.0  0.90062  0.06472  0.49660  1.0000
  N   N39       1.0  0.84970  0.17193  0.42867  1.0000
  C   C384      1.0  0.89967  0.37273  0.34008  1.0000
  C   C385      1.0  0.93173  0.38122  0.33236  1.0000
  C   C386      1.0  0.95761  0.41143  0.34067  1.0000
  C   C387      1.0  0.95160  0.43315  0.35687  1.0000
  C   C388      1.0  0.91973  0.42406  0.36550  1.0000
  C   C389      1.0  0.89382  0.39404  0.35693  1.0000
  H   H638      1.0  0.93646  0.36477  0.31955  1.0000
  H   H639      1.0  0.98229  0.41812  0.33426  1.0000
  H   H640      1.0  0.91499  0.44029  0.37847  1.0000
  H   H641      1.0  0.86910  0.38717  0.36335  1.0000
  H   H642      1.0  0.62772  0.24482  0.37428  1.0000
  H   H643      1.0  0.97999  0.38853  0.46137  1.0000
  C   C390      1.0  0.87130  0.19389  0.40782  1.0000
  H   H644      1.0  0.00773  0.42057  0.42110  1.0000
  C   C391      1.0  0.99385  0.43434  0.42445  1.0000
  H   H645      1.0  0.98245  0.48017  0.44901  1.0000
  H   H646      1.0  0.65882  0.24031  0.35555  1.0000
  C   C392      1.0  0.55372  0.11467  0.33967  1.0000
  H   H647      1.0  0.59038  0.40347  0.27464  1.0000
  H   H648      1.0  0.57309  0.10806  0.33821  1.0000
  C   C393      1.0  0.72739  0.16878  0.38079  1.0000
  C   C394      1.0  0.73280  0.14169  0.37826  1.0000
  C   C395      1.0  0.76239  0.14524  0.36726  1.0000
  C   C396      1.0  0.78662  0.17577  0.35854  1.0000
  C   C397      1.0  0.78100  0.20272  0.36077  1.0000
  C   C398      1.0  0.75156  0.19925  0.37198  1.0000
  H   H649      1.0  0.71430  0.11809  0.38493  1.0000
  H   H650      1.0  0.76648  0.12424  0.36546  1.0000
  H   H651      1.0  0.79955  0.22639  0.35425  1.0000
  H   H652      1.0  0.74761  0.22033  0.37391  1.0000
  C   C399      1.0  0.86920  0.46204  0.35233  1.0000
  H   H653      1.0  0.64199  0.22442  0.41447  1.0000
  C   C400      1.0  0.82603  0.07996  0.49152  1.0000
  H   H654      1.0  0.92856  0.48315  0.33101  1.0000
  C   C401      1.0  0.85040  0.04418  0.48447  1.0000
  S   S166      1.0  0.91263  0.30081  0.28031  1.0000
  S   S167      1.0  0.83667  0.24884  0.29566  1.0000
  H   H655      1.0  0.80080  0.03100  0.47453  1.0000
  N   N40       1.0  0.62562  0.19784  0.37712  1.0000
  H   H656      1.0  0.61133  0.48073  0.37159  1.0000
  H   H657      1.0  0.61748  0.22101  0.34374  1.0000
  H   H658      1.0  0.62160  0.43405  0.34248  1.0000
  C   C402      1.0  0.85196  0.19112  0.45333  1.0000
  H   H659      1.0  0.58399  0.15781  0.39522  1.0000
  S   S168      1.0  0.89212  0.22352  0.29158  1.0000
  H   H660      1.0  0.94479  0.44298  0.44504  1.0000
  H   H661      1.0  0.87026  0.18011  0.38896  1.0000
  H   H662      1.0  0.58226  0.42000  0.35810  1.0000
  H   H663      1.0  0.96189  0.45679  0.47767  1.0000
  H   H664      1.0  0.62661  0.15242  0.37047  1.0000
  H   H665      1.0  0.57452  0.17559  0.36773  1.0000
  C   C403      1.0  0.59081  0.18132  0.38523  1.0000
  H   H666      1.0  0.70341  0.01410  0.45863  1.0000
  C   C404      1.0  0.54753  0.38359  0.31556  1.0000
  H   H667      1.0  0.57024  0.14597  0.30547  1.0000
  H   H668      1.0  0.61852  0.16879  0.34123  1.0000
  C   C405      1.0  0.64631  0.20729  0.40115  1.0000
  C   C406      1.0  0.82348  0.04979  0.48280  1.0000
  C   C407      1.0  0.85537  0.10461  0.50220  1.0000
  H   H669      1.0  0.87731  0.20356  0.46124  1.0000
  C   C408      1.0  0.53276  0.02271  0.49158  1.0000
  H   H670      1.0  0.83599  0.17519  0.46946  1.0000
  C   C409      1.0  0.60090  0.40586  0.29484  1.0000
  N   N41       1.0  0.58098  0.41144  0.31563  1.0000
  S   S169      1.0  0.52446  0.17022  0.29876  1.0000
  H   H671      1.0  0.85863  0.13216  0.41628  1.0000
  H   H672      1.0  0.88944  0.47717  0.36626  1.0000
  H   H673      1.0  0.84547  0.42418  0.30839  1.0000
  H   H674      1.0  0.89720  0.20701  0.41434  1.0000
  H   H675      1.0  0.80724  0.17373  0.41454  1.0000
  H   H676      1.0  0.88523  0.15846  0.44211  1.0000
  H   H677      1.0  0.91668  0.47712  0.29657  1.0000
  H   H678      1.0  0.90305  0.44275  0.31790  1.0000
  C   C410      1.0  0.62465  0.50031  0.35794  1.0000
  H   H679      1.0  0.67277  0.21931  0.39576  1.0000
  C   C411      1.0  0.53239  0.49096  0.50124  1.0000
  C   C412      1.0  0.63268  0.17545  0.36005  1.0000
  C   C413      1.0  0.65428  0.50450  0.34663  1.0000
  H   H680      1.0  0.99437  0.39764  0.26563  1.0000
  H   H681      1.0  0.86386  0.21253  0.40255  1.0000
  S   S170      1.0  0.52954  0.07269  0.38198  1.0000
  H   H682      1.0  0.65906  0.18664  0.35452  1.0000
  H   H683      1.0  0.60246  0.38314  0.29848  1.0000
  C   C414      1.0  0.81566  0.15563  0.41906  1.0000
  C   C415      1.0  0.55197  0.13596  0.32112  1.0000
  C   C416      1.0  0.52977  0.10120  0.35955  1.0000
  H   H684      1.0  0.66381  0.48823  0.35171  1.0000
  N   N42       1.0  0.87861  0.47175  0.32436  1.0000
  H   H685      1.0  0.81327  0.14130  0.40027  1.0000
  H   H686      1.0  0.84384  0.13000  0.44999  1.0000
  H   H687      1.0  0.53204  0.29833  0.36588  1.0000
  C   C417      1.0  0.96681  0.40317  0.46349  1.0000
  H   H688      1.0  0.79854  0.13866  0.43409  1.0000
  C   C418      1.0  0.85144  0.45027  0.30659  1.0000
  C   C419      1.0  0.88567  0.50602  0.32142  1.0000
  C   C420      1.0  0.57972  0.44190  0.31014  1.0000
  H   H689      1.0  0.62632  0.42651  0.29437  1.0000
  C   C421      1.0  0.55944  0.04028  0.50832  1.0000
  N   N43       1.0  0.98655  0.43642  0.45309  1.0000
  H   H690      1.0  0.00867  0.45907  0.41598  1.0000
  H   H691      1.0  0.60467  0.46321  0.30908  1.0000
  C   C422      1.0  0.85980  0.14704  0.43443  1.0000
  H   H692      1.0  0.53536  0.38050  0.29603  1.0000
  C   C423      1.0  0.88210  0.09882  0.50425  1.0000
  H   H693      1.0  0.84454  0.21018  0.44979  1.0000
  H   H694      1.0  0.56756  0.44015  0.29084  1.0000
  S   S171      1.0  0.93318  0.49628  0.41674  1.0000
  H   H695      1.0  0.53197  0.38690  0.33119  1.0000
  H   H696      1.0  0.54756  0.36023  0.31986  1.0000
  S   S172      1.0  0.85804  0.14256  0.51221  1.0000
  C   C424      1.0  0.59584  0.41437  0.34203  1.0000
  C   C425      1.0  0.52637  0.14389  0.32244  1.0000
  C   C426      1.0  0.96808  0.45482  0.45632  1.0000
  H   H697      1.0  0.63135  0.01082  0.46915  1.0000
  C   C427      1.0  0.51585  0.50577  0.48957  1.0000
  H   H698      1.0  0.85766  0.45685  0.28529  1.0000
  H   H699      1.0  0.94327  0.38969  0.45266  1.0000
  H   H700      1.0  0.97111  0.42192  0.41243  1.0000
  H   H701      1.0  0.84786  0.46531  0.35880  1.0000
  S   S173      1.0  0.53780  0.35992  0.38484  1.0000
  H   H702      1.0  0.82888  0.45204  0.31157  1.0000
  C   C428      1.0  0.87964  0.06877  0.49531  1.0000
  H   H703      1.0  0.56604  0.44769  0.32605  1.0000
  Fe  Fe82      1.0  0.52537  0.39973  0.39731  1.0000
  H   H704      1.0  0.80521  0.08421  0.48988  1.0000
  C   C429      1.0  0.66952  0.00788  0.42738  1.0000
  H   H705      1.0  0.67822  0.03378  0.42540  1.0000
  H   H706      1.0  0.96095  0.40396  0.48510  1.0000
  C   C430      1.0  0.00772  0.30423  0.28948  1.0000
  S   S174      1.0  0.53542  0.45815  0.48539  1.0000
  H   H707      1.0  0.90492  0.11770  0.51225  1.0000
  Fe  Fe83      1.0  0.87465  0.25087  0.26601  1.0000
  C   C431      1.0  0.72905  0.02261  0.74155  1.0000
  H   H708      1.0  0.88322  0.30962  0.74812  1.0000
  S   S175      1.0  0.79282  0.19016  0.70279  1.0000
  Fe  Fe84      1.0  0.94672  0.24925  0.55283  1.0000
  S   S176      1.0  0.97299  0.23628  0.58348  1.0000
  S   S177      1.0  0.96222  0.30153  0.54275  1.0000
  Fe  Fe85      1.0  0.90209  0.17802  0.53643  1.0000
  S   S178      1.0  0.92568  0.16022  0.56540  1.0000
  H   H709      1.0  0.63936  0.01189  0.51759  1.0000
  Fe  Fe86      1.0  0.92270  0.19652  0.59447  1.0000
  S   S179      1.0  0.90511  0.17809  0.63649  1.0000
  Fe  Fe87      1.0  0.97316  0.20157  0.55150  1.0000
  S   S180      1.0  0.89643  0.21235  0.56615  1.0000
  H   H710      1.0  0.52193  0.06061  0.57637  1.0000
  H   H711      1.0  0.65655  0.05803  0.73089  1.0000
  H   H712      1.0  0.87108  0.11540  0.59879  1.0000
  H   H713      1.0  0.79199  0.10298  0.62691  1.0000
  H   H714      1.0  0.85215  0.15653  0.59904  1.0000
  H   H715      1.0  0.84719  0.21928  0.74140  1.0000
  C   C432      1.0  0.97890  0.32952  0.56963  1.0000
  H   H716      1.0  0.88489  0.21952  0.73287  1.0000
  H   H717      1.0  0.97614  0.49982  0.53714  1.0000
  C   C433      1.0  0.79352  0.08327  0.57574  1.0000
  Fe  Fe88      1.0  0.78069  0.17745  0.74648  1.0000
  S   S181      1.0  0.73080  0.14205  0.76220  1.0000
  C   C434      1.0  0.97509  0.31871  0.59585  1.0000
  C   C435      1.0  0.65922  0.05120  0.75144  1.0000
  H   H718      1.0  0.79971  0.08784  0.55410  1.0000
  H   H719      1.0  0.74130  0.02595  0.72241  1.0000
  C   C436      1.0  0.82415  0.18663  0.68470  1.0000
  C   C437      1.0  0.83331  0.20062  0.65940  1.0000
  C   C438      1.0  0.85844  0.19874  0.64454  1.0000
  C   C439      1.0  0.87442  0.18253  0.65479  1.0000
  C   C440      1.0  0.86524  0.16855  0.68010  1.0000
  C   C441      1.0  0.84025  0.17060  0.69502  1.0000
  H   H720      1.0  0.82105  0.21318  0.65129  1.0000
  H   H721      1.0  0.86543  0.20989  0.62519  1.0000
  H   H722      1.0  0.87741  0.15588  0.68816  1.0000
  H   H723      1.0  0.83328  0.15949  0.71437  1.0000
  H   H724      1.0  0.98502  0.33292  0.63737  1.0000
  C   C442      1.0  0.55640  0.03321  0.53561  1.0000
  H   H725      1.0  0.84375  0.07379  0.58940  1.0000
  H   H726      1.0  0.89136  0.29365  0.70125  1.0000
  C   C443      1.0  0.84963  0.09955  0.58611  1.0000
  H   H727      1.0  0.57695  0.04674  0.54871  1.0000
  H   H728      1.0  0.80592  0.07286  0.62592  1.0000
  H   H729      1.0  0.78613  0.05713  0.57912  1.0000
  H   H730      1.0  0.83373  0.11477  0.63420  1.0000
  H   H731      1.0  0.75636  0.07354  0.75342  1.0000
  C   C444      1.0  0.83038  0.13944  0.58736  1.0000
  H   H732      1.0  0.77194  0.08703  0.57993  1.0000
  H   H733      1.0  0.96141  0.29292  0.59982  1.0000
  H   H734      1.0  0.56039  0.49146  0.53514  1.0000
  H   H735      1.0  0.83636  0.14516  0.56591  1.0000
  C   C445      1.0  0.81281  0.09855  0.62114  1.0000
  H   H736      1.0  0.84605  0.27167  0.75015  1.0000
  N   N44       1.0  0.82152  0.10514  0.59260  1.0000
  H   H737      1.0  0.59645  0.03103  0.73905  1.0000
  N   N45       1.0  0.88785  0.26703  0.73670  1.0000
  H   H738      1.0  0.63048  0.08980  0.75071  1.0000
  H   H739      1.0  0.53811  0.10360  0.57110  1.0000
  H   H740      1.0  0.89102  0.25517  0.69523  1.0000
  C   C446      1.0  0.52707  0.00838  0.54601  1.0000
  C   C447      1.0  0.00981  0.38576  0.58598  1.0000
  H   H741      1.0  0.85730  0.10499  0.56482  1.0000
  H   H742      1.0  0.85403  0.25600  0.70451  1.0000
  H   H743      1.0  0.81024  0.14502  0.59288  1.0000
  C   C448      1.0  0.87400  0.23264  0.74467  1.0000
  C   C449      1.0  0.88083  0.26809  0.70819  1.0000
  H   H744      1.0  0.93555  0.27201  0.72868  1.0000
  C   C450      1.0  0.98833  0.34139  0.61710  1.0000
  C   C451      1.0  0.87292  0.28341  0.75318  1.0000
  C   C452      1.0  0.99624  0.36309  0.56473  1.0000
  S   S182      1.0  0.94972  0.21664  0.52009  1.0000
  H   H745      1.0  0.65885  0.02708  0.74997  1.0000
  C   C453      1.0  0.60102  0.02535  0.75948  1.0000
  C   C454      1.0  0.73767  0.04952  0.75909  1.0000
  C   C455      1.0  0.00573  0.37492  0.61221  1.0000
  H   H746      1.0  0.60361  0.01655  0.52136  1.0000
  H   H747      1.0  0.68387  0.06935  0.75866  1.0000
  H   H748      1.0  0.99919  0.37154  0.54448  1.0000
  H   H749      1.0  0.93483  0.30988  0.73505  1.0000
  H   H750      1.0  0.53108  0.07622  0.54312  1.0000
  C   C456      1.0  0.92354  0.28380  0.74083  1.0000
  H   H751      1.0  0.92953  0.28329  0.76217  1.0000
  C   C457      1.0  0.54740  0.50271  0.52605  1.0000
  C   C458      1.0  0.52115  0.07888  0.56292  1.0000
  Fe  Fe89      1.0  0.92474  0.40017  0.89962  1.0000
  S   S183      1.0  0.96571  0.42584  0.87039  1.0000
  S   S184      1.0  0.87513  0.36255  0.88402  1.0000
  Fe  Fe90      1.0  0.96613  0.44203  0.94709  1.0000
  C   C459      1.0  0.75573  0.25149  0.84631  1.0000
  S   S185      1.0  0.96568  0.45454  0.99132  1.0000
  Fe  Fe91      1.0  0.97425  0.47197  0.89231  1.0000
  H   H752      1.0  0.74665  0.25193  0.91374  1.0000
  C   C460      1.0  0.52471  0.45859  0.93774  1.0000
  S   S186      1.0  0.93110  0.44688  0.91957  1.0000
  S   S187      1.0  0.95517  0.39244  0.93006  1.0000
  H   H753      1.0  0.59512  0.08048  0.98546  1.0000
  Fe  Fe92      1.0  0.53828  0.08073  0.88828  1.0000
  S   S188      1.0  0.57986  0.07492  0.86874  1.0000
  S   S189      1.0  0.54930  0.11922  0.92014  1.0000
  H   H754      1.0  0.55987  0.32244  0.80615  1.0000
  H   H755      1.0  0.63477  0.08288  0.98595  1.0000
  H   H756      1.0  0.58083  0.02390  0.77268  1.0000
  C   C461      1.0  0.63820  0.04153  0.79658  1.0000
  Fe  Fe93      1.0  0.75811  0.12867  0.79142  1.0000
  S   S190      1.0  0.73396  0.07760  0.80723  1.0000
  Fe  Fe94      1.0  0.80928  0.20004  0.80150  1.0000
  C   C462      1.0  0.63455  0.08257  0.77068  1.0000
  S   S191      1.0  0.85673  0.23395  0.82210  1.0000
  Fe  Fe95      1.0  0.73768  0.18102  0.79255  1.0000
  S   S192      1.0  0.69632  0.19022  0.80697  1.0000
  S   S193      1.0  0.76286  0.16633  0.82249  1.0000
  H   H757      1.0  0.95531  0.29498  0.95944  1.0000
  S   S194      1.0  0.60273  0.49371  0.90974  1.0000
  H   H758      1.0  0.57387  0.04171  0.91761  1.0000
  C   C463      1.0  0.74868  0.26074  0.89302  1.0000
  C   C464      1.0  0.72481  0.20570  0.87471  1.0000
  C   C465      1.0  0.61235  0.10781  0.85245  1.0000
  C   C466      1.0  0.63988  0.10476  0.84441  1.0000
  C   C467      1.0  0.66579  0.12994  0.83059  1.0000
  C   C468      1.0  0.66429  0.15838  0.82461  1.0000
  C   C469      1.0  0.63705  0.16172  0.83308  1.0000
  C   C470      1.0  0.61114  0.13653  0.84700  1.0000
  H   H759      1.0  0.64119  0.08281  0.84892  1.0000
  H   H760      1.0  0.68681  0.12721  0.82443  1.0000
  H   H761      1.0  0.63575  0.18368  0.82861  1.0000
  H   H762      1.0  0.59002  0.13911  0.85314  1.0000
  H   H763      1.0  0.53042  0.31032  0.84871  1.0000
  H   H764      1.0  0.56496  0.26869  0.85756  1.0000
  C   C471      1.0  0.00494  0.21618  0.00802  1.0000
  C   C472      1.0  0.54221  0.40097  0.83409  1.0000
  C   C473      1.0  0.54691  0.43022  0.84685  1.0000
  H   H765      1.0  0.62946  0.04745  0.91769  1.0000
  H   H766      1.0  0.56292  0.39674  0.83053  1.0000
  H   H767      1.0  0.57111  0.44830  0.85304  1.0000
  H   H768      1.0  0.53421  0.44794  0.92191  1.0000
  S   S195      1.0  0.78467  0.21834  0.77398  1.0000
  H   H769      1.0  0.92243  0.47222  0.85596  1.0000
  C   C474      1.0  0.87244  0.32889  0.86483  1.0000
  C   C475      1.0  0.84648  0.31273  0.84694  1.0000
  C   C476      1.0  0.84184  0.28402  0.83319  1.0000
  C   C477      1.0  0.86301  0.27112  0.83751  1.0000
  C   C478      1.0  0.88967  0.28793  0.85465  1.0000
  C   C479      1.0  0.89443  0.31676  0.86824  1.0000
  H   H770      1.0  0.82999  0.32261  0.84377  1.0000
  H   H771      1.0  0.82187  0.27179  0.81941  1.0000
  H   H772      1.0  0.90643  0.27835  0.85780  1.0000
  H   H773      1.0  0.91466  0.32918  0.88183  1.0000
  C   C480      1.0  0.97132  0.15972  0.99455  1.0000
  H   H774      1.0  0.76036  0.23623  0.83108  1.0000
  H   H775      1.0  0.56466  0.01953  0.94806  1.0000
  C   C481      1.0  0.52795  0.04302  0.00053  1.0000
  H   H776      1.0  0.01094  0.31169  0.97706  1.0000
  H   H777      1.0  0.62196  0.09657  0.91497  1.0000
  H   H778      1.0  0.88092  0.47706  0.82887  1.0000
  N   N46       1.0  0.98459  0.27169  0.94946  1.0000
  C   C482      1.0  0.95262  0.27017  0.95522  1.0000
  H   H779      1.0  0.78878  0.22261  0.86437  1.0000
  H   H780      1.0  0.96707  0.13912  0.98156  1.0000
  H   H781      1.0  0.64733  0.11454  0.94377  1.0000
  N   N47       1.0  0.63324  0.05016  0.76953  1.0000
  H   H782      1.0  0.72185  0.19524  0.89487  1.0000
  C   C483      1.0  0.54734  0.29580  0.80105  1.0000
  S   S196      1.0  0.00986  0.47000  0.92102  1.0000
  C   C484      1.0  0.52042  0.43620  0.85121  1.0000
  C   C485      1.0  0.62193  0.09798  0.93721  1.0000
  C   C486      1.0  0.99983  0.48783  0.00622  1.0000
  H   H783      1.0  0.98418  0.28192  0.90785  1.0000
  C   C487      1.0  0.94830  0.15618  0.01466  1.0000
  H   H784      1.0  0.72741  0.18860  0.86010  1.0000
  S   S197      1.0  0.52539  0.47275  0.86699  1.0000
  C   C488      1.0  0.62956  0.05025  0.93986  1.0000
  N   N48       1.0  0.75316  0.23877  0.87344  1.0000
  H   H785      1.0  0.52778  0.48213  0.93018  1.0000
  H   H786      1.0  0.93577  0.25945  0.93799  1.0000
  C   C489      1.0  0.57006  0.28334  0.83917  1.0000
  Fe  Fe96      1.0  0.99675  0.42102  0.90200  1.0000
  C   C490      1.0  0.57529  0.04446  0.93976  1.0000
  H   H787      1.0  0.73278  0.25153  0.84047  1.0000
  H   H788      1.0  0.70168  0.20592  0.86974  1.0000
  H   H789      1.0  0.78155  0.22607  0.89938  1.0000
  H   H790      1.0  0.77588  0.27691  0.84483  1.0000
  H   H791      1.0  0.00362  0.23839  0.94007  1.0000
  H   H792      1.0  0.94053  0.25490  0.97288  1.0000
  H   H793      1.0  0.76974  0.28594  0.89253  1.0000
  H   H794      1.0  0.62045  0.02551  0.94833  1.0000
  C   C491      1.0  0.00614  0.28618  0.97277  1.0000
  N   N49       1.0  0.53953  0.27593  0.82525  1.0000
  C   C492      1.0  0.78334  0.23725  0.87968  1.0000
  C   C493      1.0  0.51573  0.01327  0.98638  1.0000
  N   N50       1.0  0.60914  0.06525  0.94878  1.0000
  H   H795      1.0  0.58365  0.30962  0.84530  1.0000
  H   H796      1.0  0.72620  0.26257  0.88883  1.0000
  C   C494      1.0  0.92681  0.49596  0.84945  1.0000
  H   H797      1.0  0.58654  0.27771  0.82620  1.0000
  H   H798      1.0  0.52480  0.29075  0.79008  1.0000
  H   H799      1.0  0.54062  0.46436  0.95555  1.0000
  H   H800      1.0  0.80493  0.26203  0.88048  1.0000
  H   H801      1.0  0.65873  0.10191  0.77780  1.0000
  C   C495      1.0  0.69866  0.01386  0.79147  1.0000
  S   S198      1.0  0.52529  0.07673  0.98797  1.0000
  H   H802      1.0  0.65537  0.06534  0.94620  1.0000
  H   H803      1.0  0.55936  0.05522  0.94621  1.0000
  S   S199      1.0  0.80757  0.16059  0.77331  1.0000
  C   C496      1.0  0.72288  0.04500  0.78427  1.0000
  H   H804      1.0  0.56345  0.29091  0.78705  1.0000
  H   H805      1.0  0.96417  0.22669  0.92637  1.0000
  H   H806      1.0  0.63724  0.01717  0.79650  1.0000
  H   H807      1.0  0.51778  0.22513  0.83514  1.0000
  H   H808      1.0  0.96837  0.22217  0.96136  1.0000
  H   H809      1.0  0.99526  0.27176  0.99103  1.0000
  C   C497      1.0  0.99962  0.29214  0.92590  1.0000
  C   C498      1.0  0.97994  0.23832  0.94404  1.0000
  C   C499      1.0  0.52225  0.24085  0.81758  1.0000
  C   C500      1.0  0.60952  0.06826  0.97824  1.0000
  H   H810      1.0  0.68708  0.01035  0.81092  1.0000
  C   C501      1.0  0.99977  0.18967  0.99117  1.0000
  C   C502      1.0  0.90333  0.49875  0.83408  1.0000
  H   H811      1.0  0.80586  0.48520  0.88683  1.0000
  H   H812      1.0  0.53663  0.23444  0.80285  1.0000
  H   H813      1.0  0.61574  0.08291  0.78464  1.0000
  C   C503      1.0  0.51854  0.28380  0.84325  1.0000
  H   H814      1.0  0.00332  0.31746  0.92930  1.0000
  H   H815      1.0  0.87704  0.28227  0.77489  1.0000
  H   H816      1.0  0.87828  0.23075  0.76620  1.0000
  H   H817      1.0  0.66245  0.05965  0.80468  1.0000
  H   H818      1.0  0.77845  0.50219  0.89118  1.0000
  H   H819      1.0  0.60659  0.10962  0.94325  1.0000
  H   H820      1.0  0.59862  0.04386  0.98766  1.0000
  H   H821      1.0  0.81547  0.50194  0.83909  1.0000
  H   H822      1.0  0.61914  0.04073  0.81083  1.0000
  H   H823      1.0  0.51292  0.27007  0.86209  1.0000
  H   H824      1.0  0.91568  0.64204  0.20161  1.0000
  S   S200      1.0  0.79453  0.61971  0.20462  1.0000
  C   C504      1.0  0.79010  0.92502  0.02862  1.0000
  Fe  Fe97      1.0  0.65047  0.80887  0.21299  1.0000
  C   C505      1.0  0.72215  0.98679  0.05784  1.0000
  S   S201      1.0  0.66120  0.85774  0.19648  1.0000
  Fe  Fe98      1.0  0.67033  0.75582  0.21858  1.0000
  S   S202      1.0  0.70396  0.73532  0.20635  1.0000
  Fe  Fe99      1.0  0.59901  0.73855  0.22136  1.0000
  H   H825      1.0  0.96387  0.68206  0.11040  1.0000
  S   S203      1.0  0.63745  0.76228  0.18978  1.0000
  S   S204      1.0  0.68752  0.80485  0.23875  1.0000
  Fe  Fe100     1.0  0.93030  0.74425  0.11111  1.0000
  S   S205      1.0  0.90373  0.70370  0.08136  1.0000
  S   S206      1.0  0.91445  0.74333  0.15428  1.0000
  Fe  Fe101     1.0  0.97827  0.78873  0.06855  1.0000
  S   S207      1.0  0.95403  0.75173  0.03558  1.0000
  Fe  Fe102     1.0  0.90669  0.74347  0.05502  1.0000
  H   H826      1.0  0.88439  0.68995  0.24193  1.0000
  Fe  Fe103     1.0  0.95363  0.71619  0.06536  1.0000
  S   S208      1.0  0.97210  0.68087  0.05286  1.0000
  S   S209      1.0  0.93095  0.78349  0.08568  1.0000
  S   S210      1.0  0.98029  0.75376  0.09734  1.0000
  Fe  Fe104     1.0  0.55515  0.91029  0.11752  1.0000
  S   S211      1.0  0.56088  0.94471  0.15182  1.0000
  C   C506      1.0  0.59369  0.62585  0.24045  1.0000
  Fe  Fe105     1.0  0.54993  0.95510  0.07639  1.0000
  H   H827      1.0  0.67204  0.65511  0.26105  1.0000
  Fe  Fe106     1.0  0.59517  0.98334  0.12387  1.0000
  S   S212      1.0  0.59188  0.94845  0.09076  1.0000
  C   C507      1.0  0.58211  0.62794  0.06246  1.0000
  S   S213      1.0  0.53986  0.95797  0.03268  1.0000
  C   C508      1.0  0.70864  0.97823  0.10472  1.0000
  C   C509      1.0  0.81802  0.98077  0.04680  1.0000
  H   H828      1.0  0.82121  0.75741  0.07771  1.0000
  C   C510      1.0  0.54156  0.66518  0.19383  1.0000
  H   H829      1.0  0.76427  0.97814  0.08768  1.0000
  H   H830      1.0  0.52360  0.55791  0.08921  1.0000
  H   H831      1.0  0.69644  0.74242  0.26311  1.0000
  H   H832      1.0  0.63074  0.64003  0.19566  1.0000
  H   H833      1.0  0.68818  0.98406  0.10272  1.0000
  N   N51       1.0  0.54918  0.60582  0.07297  1.0000
  S   S214      1.0  0.85867  0.73549  0.03775  1.0000
  C   C511      1.0  0.98532  0.66565  0.07903  1.0000
  C   C512      1.0  0.97833  0.66996  0.10567  1.0000
  H   H834      1.0  0.64259  0.67623  0.21593  1.0000
  H   H835      1.0  0.57918  0.61215  0.22265  1.0000
  C   C513      1.0  0.63377  0.85948  0.17368  1.0000
  C   C514      1.0  0.63219  0.88870  0.17138  1.0000
  C   C515      1.0  0.60870  0.89004  0.15499  1.0000
  C   C516      1.0  0.58694  0.86223  0.14055  1.0000
  C   C517      1.0  0.58965  0.83351  0.14179  1.0000
  C   C518      1.0  0.61277  0.83200  0.15851  1.0000
  H   H836      1.0  0.64853  0.91009  0.18295  1.0000
  H   H837      1.0  0.60697  0.91237  0.15403  1.0000
  H   H838      1.0  0.57335  0.81215  0.13018  1.0000
  H   H839      1.0  0.61421  0.80955  0.15982  1.0000
  H   H840      1.0  0.70246  0.96142  0.12178  1.0000
  H   H841      1.0  0.79444  0.75958  0.13379  1.0000
  C   C519      1.0  0.56319  0.63142  0.17326  1.0000
  C   C520      1.0  0.56825  0.66055  0.18642  1.0000
  H   H842      1.0  0.86274  0.72984  0.10316  1.0000
  H   H843      1.0  0.58391  0.62802  0.16747  1.0000
  H   H844      1.0  0.59277  0.67948  0.19077  1.0000
  C   C521      1.0  0.82668  0.65457  0.19002  1.0000
  C   C522      1.0  0.84041  0.68499  0.20323  1.0000
  C   C523      1.0  0.86724  0.71196  0.19198  1.0000
  C   C524      1.0  0.88029  0.70891  0.16723  1.0000
  C   C525      1.0  0.86614  0.67867  0.15367  1.0000
  C   C526      1.0  0.83937  0.65162  0.16503  1.0000
  H   H845      1.0  0.83030  0.68784  0.22208  1.0000
  H   H846      1.0  0.87789  0.73533  0.20250  1.0000
  H   H847      1.0  0.87611  0.67591  0.13468  1.0000
  H   H848      1.0  0.82882  0.62817  0.15463  1.0000
  C   C527      1.0  0.71840  0.72372  0.23400  1.0000
  H   H849      1.0  0.83180  0.70503  0.12652  1.0000
  H   H850      1.0  0.52662  0.77707  0.24653  1.0000
  H   H851      1.0  0.88171  0.77863  0.13193  1.0000
  H   H852      1.0  0.55511  0.56312  0.06561  1.0000
  N   N52       1.0  0.71379  0.96348  0.07977  1.0000
  H   H853      1.0  0.78599  0.90009  0.02849  1.0000
  H   H854      1.0  0.59205  0.64897  0.24230  1.0000
  H   H855      1.0  0.92863  0.62805  0.24564  1.0000
  N   N53       1.0  0.62800  0.63241  0.23799  1.0000
  C   C528      1.0  0.85599  0.76947  0.13887  1.0000
  H   H856      1.0  0.79387  0.72317  0.14545  1.0000
  S   S215      1.0  0.52665  0.57023  0.15158  1.0000
  C   C529      1.0  0.62901  0.60120  0.23484  1.0000
  C   C530      1.0  0.64332  0.65266  0.21441  1.0000
  C   C531      1.0  0.87088  0.62710  0.24108  1.0000
  C   C532      1.0  0.73680  0.70725  0.23013  1.0000
  H   H857      1.0  0.56560  0.84360  0.19754  1.0000
  H   H858      1.0  0.85316  0.79100  0.14557  1.0000
  S   S216      1.0  0.63077  0.72859  0.24848  1.0000
  H   H859      1.0  0.58073  0.81663  0.20762  1.0000
  H   H860      1.0  0.85239  0.92320  0.02619  1.0000
  H   H861      1.0  0.68650  0.92139  0.05437  1.0000
  H   H862      1.0  0.65462  0.60539  0.23282  1.0000
  H   H863      1.0  0.83531  0.79295  0.09939  1.0000
  N   N54       1.0  0.83257  0.75036  0.11762  1.0000
  S   S217      1.0  0.55612  0.99312  0.10750  1.0000
  H   H864      1.0  0.87062  0.60532  0.23109  1.0000
  C   C533      1.0  0.90212  0.68454  0.25226  1.0000
  C   C534      1.0  0.83717  0.72196  0.10969  1.0000
  H   H865      1.0  0.89635  0.66727  0.20005  1.0000
  H   H866      1.0  0.52981  0.58524  0.03431  1.0000
  H   H867      1.0  0.00920  0.64615  0.05254  1.0000
  S   S218      1.0  0.60962  0.78572  0.24281  1.0000
  H   H868      1.0  0.55932  0.62839  0.11216  1.0000
  H   H869      1.0  0.66263  0.93822  0.07030  1.0000
  H   H870      1.0  0.54143  0.64480  0.08971  1.0000
  H   H871      1.0  0.61550  0.58721  0.21675  1.0000
  H   H872      1.0  0.60107  0.63430  0.07800  1.0000
  Fe  Fe107     1.0  0.78534  0.62028  0.24925  1.0000
  H   H873      1.0  0.67644  0.91508  0.08931  1.0000
  H   H874      1.0  0.86346  0.77991  0.08597  1.0000
  C   C535      1.0  0.74079  0.95570  0.08338  1.0000
  H   H875      1.0  0.54493  0.77620  0.17404  1.0000
  Fe  Fe108     1.0  0.52104  0.95081  0.13229  1.0000
  C   C536      1.0  0.81257  0.94841  0.04648  1.0000
  C   C537      1.0  0.91398  0.66287  0.21161  1.0000
  S   S219      1.0  0.55464  0.86181  0.12246  1.0000
  H   H876      1.0  0.76189  0.68445  0.24906  1.0000
  H   H877      1.0  0.52463  0.61994  0.04430  1.0000
  H   H878      1.0  0.66947  0.65877  0.21222  1.0000
  H   H879      1.0  0.85226  0.63153  0.23115  1.0000
  C   C538      1.0  0.00381  0.64964  0.07311  1.0000
  H   H880      1.0  0.78059  0.72402  0.11219  1.0000
  H   H881      1.0  0.82591  0.94150  0.06005  1.0000
  C   C539      1.0  0.52389  0.76879  0.22524  1.0000
  C   C540      1.0  0.52555  0.78311  0.17917  1.0000
  H   H882      1.0  0.74476  0.94379  0.06512  1.0000
  C   C541      1.0  0.68352  0.93320  0.07313  1.0000
  C   C542      1.0  0.92707  0.64953  0.25441  1.0000
  H   H883      1.0  0.58367  0.65116  0.05552  1.0000
  H   H884      1.0  0.74286  0.70249  0.21010  1.0000
  S   S220      1.0  0.54717  0.70128  0.21086  1.0000
  C   C543      1.0  0.79887  0.73879  0.12769  1.0000
  C   C544      1.0  0.83833  0.77113  0.09422  1.0000
  H   H885      1.0  0.98396  0.66127  0.14683  1.0000
  C   C545      1.0  0.53548  0.99099  0.02078  1.0000
  H   H886      1.0  0.56543  0.58037  0.09888  1.0000
  H   H887      1.0  0.82118  0.70783  0.09269  1.0000
  H   H888      1.0  0.72605  0.97642  0.03866  1.0000
  C   C546      1.0  0.71057  0.72970  0.25993  1.0000
  C   C547      1.0  0.56106  0.82345  0.21129  1.0000
  H   H889      1.0  0.54225  0.76026  0.22105  1.0000
  H   H890      1.0  0.70245  0.99344  0.05466  1.0000
  H   H891      1.0  0.85270  0.75436  0.15665  1.0000
  C   C548      1.0  0.98965  0.65814  0.12627  1.0000
  C   C549      1.0  0.53150  0.60667  0.16745  1.0000
  C   C550      1.0  0.79998  0.98940  0.02986  1.0000
  H   H892      1.0  0.92629  0.70689  0.25158  1.0000
  C   C551      1.0  0.54839  0.57551  0.08201  1.0000
  C   C552      1.0  0.54140  0.62197  0.09573  1.0000
  H   H893      1.0  0.56406  0.83347  0.23207  1.0000
  H   H894      1.0  0.93824  0.68497  0.20976  1.0000
  N   N55       1.0  0.90354  0.65602  0.23982  1.0000
  C   C553      1.0  0.74742  0.69688  0.25216  1.0000
  H   H895      1.0  0.90049  0.97672  0.02149  1.0000
  H   H896      1.0  0.73572  0.93877  0.10018  1.0000
  H   H897      1.0  0.58863  0.61643  0.04521  1.0000
  C   C554      1.0  0.00823  0.64221  0.12035  1.0000
  C   C555      1.0  0.52482  0.59772  0.05169  1.0000
  N   N56       1.0  0.52839  0.79514  0.20712  1.0000
  H   H898      1.0  0.58148  0.61112  0.25831  1.0000
  C   C556      1.0  0.54952  0.50824  0.02240  1.0000
  H   H899      1.0  0.51691  0.60566  0.10441  1.0000
  H   H900      1.0  0.95200  0.67085  0.25391  1.0000
  H   H901      1.0  0.86259  0.62067  0.26207  1.0000
  H   H902      1.0  0.52786  0.80207  0.16491  1.0000
  H   H903      1.0  0.90897  0.79718  0.01678  1.0000
  H   H904      1.0  0.61786  0.58539  0.25239  1.0000
  H   H905      1.0  0.73085  0.00136  0.11017  1.0000
  C   C557      1.0  0.64610  0.64996  0.26224  1.0000
  H   H906      1.0  0.80438  0.74322  0.02129  1.0000
  C   C558      1.0  0.85693  0.76716  0.02051  1.0000
  Fe  Fe109     1.0  0.72700  0.93735  0.46107  1.0000
  S   S221      1.0  0.76454  0.97009  0.43185  1.0000
  S   S222      1.0  0.68733  0.94911  0.47449  1.0000
  Fe  Fe110     1.0  0.75755  0.89256  0.46544  1.0000
  S   S223      1.0  0.79754  0.92210  0.43652  1.0000
  S   S224      1.0  0.75395  0.84515  0.47954  1.0000
  Fe  Fe111     1.0  0.80002  0.96588  0.45901  1.0000
  C   C559      1.0  0.61322  0.54685  0.47696  1.0000
  Fe  Fe112     1.0  0.75796  0.92310  0.41236  1.0000
  S   S225      1.0  0.75606  0.91657  0.36725  1.0000
  S   S226      1.0  0.76285  0.93605  0.48980  1.0000
  S   S227      1.0  0.71754  0.89071  0.43971  1.0000
  S   S228      1.0  0.84854  0.00702  0.47292  1.0000
  C   C560      1.0  0.90910  0.94249  0.48219  1.0000
  Fe  Fe113     1.0  0.74531  0.58054  0.29721  1.0000
  S   S229      1.0  0.77388  0.62140  0.32643  1.0000
  H   H907      1.0  0.77395  0.77018  0.35867  1.0000
  Fe  Fe114     1.0  0.76900  0.65303  0.29560  1.0000
  S   S230      1.0  0.75315  0.69091  0.30605  1.0000
  Fe  Fe115     1.0  0.81808  0.62748  0.30295  1.0000
  S   S231      1.0  0.86789  0.63754  0.31788  1.0000
  C   C561      1.0  0.72089  0.71905  0.28189  1.0000
  N   N57       1.0  0.88763  0.94945  0.50037  1.0000
  S   S232      1.0  0.81630  0.66374  0.27515  1.0000
  S   S233      1.0  0.65028  0.78492  0.31186  1.0000
  Fe  Fe116     1.0  0.92787  0.53717  0.39860  1.0000
  S   S234      1.0  0.96617  0.54688  0.36731  1.0000
  S   S235      1.0  0.87840  0.53118  0.38775  1.0000
  Fe  Fe117     1.0  0.97095  0.53517  0.44318  1.0000
  H   H908      1.0  0.97645  0.84723  0.49697  1.0000
  H   H909      1.0  0.00299  0.68789  0.43970  1.0000
  S   S236      1.0  0.96134  0.57484  0.42795  1.0000
  N   N58       1.0  0.59744  0.97572  0.49645  1.0000
  C   C562      1.0  0.61131  0.95303  0.49396  1.0000
  H   H910      1.0  0.97967  0.64450  0.44270  1.0000
  H   H911      1.0  0.62572  0.59116  0.42102  1.0000
  C   C563      1.0  0.00318  0.79087  0.49910  1.0000
  H   H912      1.0  0.91143  0.95369  0.46237  1.0000
  H   H913      1.0  0.60173  0.52039  0.48168  1.0000
  H   H914      1.0  0.83801  0.94121  0.50138  1.0000
  H   H915      1.0  0.79899  0.84839  0.32388  1.0000
  C   C564      1.0  0.87045  0.60752  0.33694  1.0000
  C   C565      1.0  0.84240  0.58037  0.34610  1.0000
  C   C566      1.0  0.84519  0.55723  0.36176  1.0000
  C   C567      1.0  0.87599  0.56095  0.36826  1.0000
  C   C568      1.0  0.90409  0.58783  0.35874  1.0000
  C   C569      1.0  0.90129  0.61109  0.34320  1.0000
  H   H916      1.0  0.81851  0.57740  0.34140  1.0000
  C   C570      1.0  0.74088  0.79736  0.31206  1.0000
  H   H917      1.0  0.92792  0.59068  0.36337  1.0000
  H   H918      1.0  0.92305  0.63187  0.33589  1.0000
  H   H919      1.0  0.74832  0.78810  0.29391  1.0000
  C   C571      1.0  0.73965  0.70299  0.27811  1.0000
  H   H920      1.0  0.91234  0.64102  0.43782  1.0000
  H   H921      1.0  0.84342  0.90905  0.48523  1.0000
  H   H922      1.0  0.63901  0.55837  0.48377  1.0000
  C   C572      1.0  0.62774  0.53617  0.43257  1.0000
  C   C573      1.0  0.63036  0.54721  0.33411  1.0000
  C   C574      1.0  0.66010  0.55150  0.32290  1.0000
  H   H923      1.0  0.62111  0.56375  0.32913  1.0000
  H   H924      1.0  0.67358  0.57116  0.30927  1.0000
  H   H925      1.0  0.71384  0.72281  0.30182  1.0000
  C   C575      1.0  0.71207  0.95270  0.32752  1.0000
  H   H926      1.0  0.65329  0.59920  0.44824  1.0000
  C   C576      1.0  0.67318  0.96324  0.44837  1.0000
  C   C577      1.0  0.64790  0.94089  0.43215  1.0000
  C   C578      1.0  0.63323  0.95200  0.41379  1.0000
  H   H927      1.0  0.60027  0.55754  0.48928  1.0000
  C   C579      1.0  0.61228  0.52129  0.35130  1.0000
  S   S237      1.0  0.97004  0.52458  0.48707  1.0000
  H   H928      1.0  0.63901  0.91495  0.43437  1.0000
  H   H929      1.0  0.73095  0.94597  0.33347  1.0000
  H   H930      1.0  0.71466  0.78015  0.31617  1.0000
  C   C580      1.0  0.72586  0.88023  0.35208  1.0000
  C   C581      1.0  0.72404  0.87746  0.32411  1.0000
  C   C582      1.0  0.70041  0.84871  0.31147  1.0000
  C   C583      1.0  0.67869  0.82236  0.32676  1.0000
  C   C584      1.0  0.68032  0.82529  0.35470  1.0000
  C   C585      1.0  0.70370  0.85412  0.36733  1.0000
  H   H931      1.0  0.74107  0.89753  0.31213  1.0000
  H   H932      1.0  0.69930  0.84679  0.28992  1.0000
  H   H933      1.0  0.66355  0.80503  0.36666  1.0000
  H   H934      1.0  0.70485  0.85582  0.38885  1.0000
  C   C586      1.0  0.60464  0.99494  0.47191  1.0000
  C   C587      1.0  0.57652  0.53640  0.44033  1.0000
  H   H935      1.0  0.72475  0.79723  0.36340  1.0000
  C   C588      1.0  0.97764  0.66725  0.44085  1.0000
  H   H936      1.0  0.60207  0.93678  0.47595  1.0000
  H   H937      1.0  0.65175  0.94621  0.32606  1.0000
  C   C589      1.0  0.90141  0.98517  0.50438  1.0000
  C   C590      1.0  0.97426  0.66062  0.39289  1.0000
  C   C591      1.0  0.71314  0.97594  0.37142  1.0000
  N   N59       1.0  0.76167  0.80077  0.33513  1.0000
  C   C592      1.0  0.00329  0.52260  0.50154  1.0000
  C   C593      1.0  0.75100  0.81337  0.35859  1.0000
  C   C594      1.0  0.79603  0.82387  0.32863  1.0000
  C   C595      1.0  0.75885  0.76862  0.34121  1.0000
  C   C596      1.0  0.51440  0.53221  0.50270  1.0000
  C   C597      1.0  0.64372  0.98547  0.41160  1.0000
  S   S238      1.0  0.73751  0.61170  0.26783  1.0000
  H   H938      1.0  0.69174  0.91219  0.37010  1.0000
  H   H939      1.0  0.69883  0.97620  0.38940  1.0000
  C   C598      1.0  0.62704  0.58690  0.44264  1.0000
  H   H940      1.0  0.54979  0.94011  0.48303  1.0000
  H   H941      1.0  0.77380  0.79750  0.49115  1.0000
  H   H942      1.0  0.80485  0.81504  0.31100  1.0000
  H   H943      1.0  0.96636  0.67074  0.45962  1.0000
  H   H944      1.0  0.76718  0.75855  0.32406  1.0000
  C   C599      1.0  0.56170  0.95691  0.50033  1.0000
  S   S239      1.0  0.78999  0.58444  0.27567  1.0000
  H   H945      1.0  0.99984  0.68048  0.39063  1.0000
  C   C600      1.0  0.77948  0.84428  0.50465  1.0000
  H   H946      1.0  0.76537  0.81532  0.37667  1.0000
  Fe  Fe118     1.0  0.64568  0.77837  0.26688  1.0000
  H   H947      1.0  0.81241  0.82714  0.34563  1.0000
  H   H948      1.0  0.63838  0.96660  0.49225  1.0000
  N   N60       1.0  0.61117  0.55160  0.44814  1.0000
  Fe  Fe119     1.0  0.00037  0.58222  0.39778  1.0000
  H   H949      1.0  0.73316  0.75040  0.34585  1.0000
  N   N61       1.0  0.95849  0.66569  0.41715  1.0000
  H   H950      1.0  0.72631  0.00134  0.36402  1.0000
  H   H951      1.0  0.65975  0.90105  0.34626  1.0000
  H   H952      1.0  0.56327  0.54765  0.45144  1.0000
  H   H953      1.0  0.96081  0.65981  0.37456  1.0000
  H   H954      1.0  0.59532  0.97896  0.45375  1.0000
  C   C601      1.0  0.67184  0.52975  0.32877  1.0000
  H   H955      1.0  0.75403  0.83815  0.35500  1.0000
  H   H956      1.0  0.82334  0.53646  0.36901  1.0000
  C   C602      1.0  0.85485  0.93602  0.48846  1.0000
  H   H957      1.0  0.73183  0.96919  0.37805  1.0000
  H   H958      1.0  0.98215  0.71789  0.41336  1.0000
  C   C603      1.0  0.67442  0.91967  0.36174  1.0000
  H   H959      1.0  0.85609  0.94716  0.46884  1.0000
  N   N62       1.0  0.69187  0.95281  0.35066  1.0000
  H   H960      1.0  0.89926  0.91570  0.47870  1.0000
  H   H961      1.0  0.61508  0.59927  0.45407  1.0000
  H   H962      1.0  0.91971  0.64431  0.27580  1.0000
  H   H963      1.0  0.74239  0.82117  0.30701  1.0000
  S   S240      1.0  0.62437  0.99850  0.38882  1.0000
  H   H964      1.0  0.69703  0.93479  0.31176  1.0000
  H   H965      1.0  0.94291  0.69645  0.39761  1.0000
  C   C604      1.0  0.95720  0.69672  0.41526  1.0000
  H   H966      1.0  0.61322  0.93457  0.40167  1.0000
  H   H967      1.0  0.72511  0.97720  0.31841  1.0000
  C   C605      1.0  0.92494  0.63826  0.41957  1.0000
  H   H968      1.0  0.92495  0.61438  0.42067  1.0000
  H   H969      1.0  0.57388  0.53897  0.41861  1.0000
  H   H970      1.0  0.93408  0.95228  0.49050  1.0000
  H   H971      1.0  0.65191  0.96286  0.35876  1.0000
  C   C606      1.0  0.00256  0.81952  0.49237  1.0000
  S   S241      1.0  0.70688  0.53183  0.31277  1.0000
  H   H972      1.0  0.63522  0.63555  0.28051  1.0000
  H   H973      1.0  0.89424  0.68019  0.27356  1.0000
  C   C607      1.0  0.68407  0.99676  0.44590  1.0000
  C   C608      1.0  0.78487  0.81714  0.50583  1.0000
  C   C609      1.0  0.97708  0.82512  0.50212  1.0000
  H   H974      1.0  0.56380  0.50988  0.44461  1.0000
  H   H975      1.0  0.62579  0.53848  0.41068  1.0000
  H   H976      1.0  0.68015  0.98814  0.33409  1.0000
  H   H977      1.0  0.97530  0.63723  0.39352  1.0000
  H   H978      1.0  0.94556  0.70140  0.43333  1.0000
  S   S242      1.0  0.57424  0.51557  0.36389  1.0000
  H   H979      1.0  0.65763  0.91846  0.37829  1.0000
  C   C610      1.0  0.66790  0.96292  0.34195  1.0000
  H   H980      1.0  0.65415  0.54750  0.43747  1.0000
  H   H981      1.0  0.90977  0.63657  0.40208  1.0000
  H   H982      1.0  0.89278  0.51432  0.30059  1.0000
  H   H983      1.0  0.61677  0.50964  0.43670  1.0000
  H   H984      1.0  0.90592  0.52283  0.33469  1.0000
  H   H985      1.0  0.90421  0.99757  0.48506  1.0000
  H   H986      1.0  0.55054  0.97335  0.50253  1.0000
  Fe  Fe120     1.0  0.97447  0.50916  0.38772  1.0000
  H   H987      1.0  0.86408  0.50931  0.32699  1.0000
  H   H988      1.0  0.64619  0.67383  0.26511  1.0000
  H   H989      1.0  0.92582  0.99622  0.51391  1.0000
  H   H990      1.0  0.60540  0.93729  0.51168  1.0000
  H   H991      1.0  0.75241  0.80799  0.56516  1.0000
  Fe  Fe121     1.0  0.59138  0.60980  0.63043  1.0000
  S   S243      1.0  0.57702  0.63840  0.60334  1.0000
  S   S244      1.0  0.64352  0.62757  0.64289  1.0000
  Fe  Fe122     1.0  0.53954  0.63132  0.63508  1.0000
  H   H992      1.0  0.76915  0.66830  0.72357  1.0000
  Fe  Fe123     1.0  0.54026  0.58869  0.58749  1.0000
  H   H993      1.0  0.89376  0.67342  0.63257  1.0000
  S   S245      1.0  0.55601  0.60565  0.66318  1.0000
  S   S246      1.0  0.55737  0.56058  0.61252  1.0000
  Fe  Fe124     1.0  0.84689  0.79215  0.57502  1.0000
  S   S247      1.0  0.84091  0.75626  0.54187  1.0000
  S   S248      1.0  0.84530  0.83963  0.56936  1.0000
  Fe  Fe125     1.0  0.85134  0.74837  0.61783  1.0000
  S   S249      1.0  0.84447  0.70897  0.58788  1.0000
  S   S250      1.0  0.86230  0.74741  0.66155  1.0000
  Fe  Fe126     1.0  0.88015  0.75025  0.56257  1.0000
  C   C611      1.0  0.95226  0.80213  0.51841  1.0000
  Fe  Fe127     1.0  0.80609  0.71896  0.57045  1.0000
  S   S251      1.0  0.75633  0.68194  0.55555  1.0000
  S   S252      1.0  0.88912  0.78923  0.59359  1.0000
  S   S253      1.0  0.81002  0.75525  0.60249  1.0000
  C   C612      1.0  0.97839  0.76792  0.51537  1.0000
  H   H994      1.0  0.58828  0.82190  0.63027  1.0000
  S   S254      1.0  0.86288  0.62327  0.71030  1.0000
  Fe  Fe128     1.0  0.65730  0.90764  0.73854  1.0000
  S   S255      1.0  0.69697  0.95775  0.72748  1.0000
  Fe  Fe129     1.0  0.63118  0.83507  0.72456  1.0000
  N   N63       1.0  0.78300  0.64496  0.75350  1.0000
  S   S256      1.0  0.64123  0.80119  0.69746  1.0000
  Fe  Fe130     1.0  0.58441  0.86143  0.73871  1.0000
  S   S257      1.0  0.53424  0.85301  0.72722  1.0000
  S   S258      1.0  0.62308  0.87441  0.70713  1.0000
  H   H995      1.0  0.68256  0.76643  0.58488  1.0000
  H   H996      1.0  0.88513  0.99132  0.51719  1.0000
  H   H997      1.0  0.99750  0.64163  0.75065  1.0000
  Fe  Fe131     1.0  0.87909  0.62389  0.75275  1.0000
  C   C613      1.0  0.88511  0.93410  0.52633  1.0000
  H   H998      1.0  0.52622  0.71720  0.68962  1.0000
  H   H999      1.0  0.69601  0.77183  0.55058  1.0000
  H   H1000     1.0  0.00918  0.62072  0.72554  1.0000
  C   C614      1.0  0.95280  0.77339  0.52501  1.0000
  H   H1001     1.0  0.90101  0.72763  0.62145  1.0000
  H   H1002     1.0  0.82370  0.88662  0.55903  1.0000
  C   C615      1.0  0.86101  0.71234  0.67527  1.0000
  C   C616      1.0  0.84486  0.68172  0.66249  1.0000
  C   C617      1.0  0.84512  0.65445  0.67369  1.0000
  C   C618      1.0  0.86167  0.65765  0.69762  1.0000
  C   C619      1.0  0.87752  0.68822  0.71052  1.0000
  C   C620      1.0  0.87703  0.71540  0.69944  1.0000
  H   H1003     1.0  0.83211  0.67900  0.64401  1.0000
  H   H1004     1.0  0.83271  0.63083  0.66363  1.0000
  H   H1005     1.0  0.89071  0.69114  0.72874  1.0000
  H   H1006     1.0  0.88958  0.73905  0.70943  1.0000
  C   C621      1.0  0.67445  0.64239  0.61827  1.0000
  C   C622      1.0  0.66701  0.63838  0.59106  1.0000
  C   C623      1.0  0.69232  0.65012  0.57191  1.0000
  C   C624      1.0  0.72511  0.66634  0.57988  1.0000
  C   C625      1.0  0.73251  0.67062  0.60707  1.0000
  C   C626      1.0  0.70723  0.65851  0.62619  1.0000
  H   H1007     1.0  0.64179  0.62583  0.58481  1.0000
  H   H1008     1.0  0.68650  0.64669  0.55088  1.0000
  H   H1009     1.0  0.75770  0.68289  0.61339  1.0000
  H   H1010     1.0  0.71309  0.66158  0.64721  1.0000
  C   C627      1.0  0.55818  0.70426  0.66663  1.0000
  C   C628      1.0  0.55126  0.72437  0.68408  1.0000
  C   C629      1.0  0.57666  0.75367  0.69443  1.0000
  C   C630      1.0  0.60902  0.76330  0.68689  1.0000
  C   C631      1.0  0.61591  0.74290  0.66980  1.0000
  C   C632      1.0  0.59061  0.71331  0.65987  1.0000
  H   H1011     1.0  0.59920  0.00058  0.75837  1.0000
  H   H1012     1.0  0.57126  0.76899  0.70799  1.0000
  H   H1013     1.0  0.64094  0.75008  0.66411  1.0000
  H   H1014     1.0  0.59619  0.69782  0.64660  1.0000
  C   C633      1.0  0.52461  0.64089  0.72048  1.0000
  H   H1015     1.0  0.55810  0.53824  0.55803  1.0000
  H   H1016     1.0  0.71825  0.71886  0.54954  1.0000
  S   S259      1.0  0.52550  0.57595  0.54412  1.0000
  C   C634      1.0  0.56000  0.91365  0.70455  1.0000
  C   C635      1.0  0.55770  0.93785  0.69000  1.0000
  H   H1017     1.0  0.58333  0.91807  0.71227  1.0000
  H   H1018     1.0  0.57934  0.96087  0.68655  1.0000
  Fe  Fe132     1.0  0.52010  0.55950  0.64245  1.0000
  C   C636      1.0  0.53206  0.88398  0.70930  1.0000
  C   C637      1.0  0.81946  0.84071  0.54459  1.0000
  C   C638      1.0  0.81331  0.86746  0.54390  1.0000
  H   H1019     1.0  0.94088  0.76107  0.61622  1.0000
  C   C639      1.0  0.74882  0.62074  0.75943  1.0000
  H   H1020     1.0  0.91601  0.69642  0.58812  1.0000
  C   C640      1.0  0.52759  0.93244  0.67986  1.0000
  C   C641      1.0  0.92671  0.73894  0.62834  1.0000
  H   H1021     1.0  0.56957  0.85967  0.67214  1.0000
  C   C642      1.0  0.69250  0.75689  0.56854  1.0000
  H   H1022     1.0  0.91729  0.69171  0.66211  1.0000
  S   S260      1.0  0.52572  0.96367  0.66206  1.0000
  N   N64       1.0  0.94001  0.71575  0.62566  1.0000
  H   H1023     1.0  0.53994  0.64071  0.73716  1.0000
  C   C643      1.0  0.55277  0.84600  0.65549  1.0000
  C   C644      1.0  0.70500  0.99137  0.74883  1.0000
  H   H1024     1.0  0.92853  0.66804  0.63951  1.0000
  H   H1025     1.0  0.67354  0.73142  0.56366  1.0000
  H   H1026     1.0  0.79709  0.60868  0.74096  1.0000
  H   H1027     1.0  0.95696  0.72880  0.58531  1.0000
  H   H1028     1.0  0.77851  0.63710  0.71088  1.0000
  H   H1029     1.0  0.98982  0.75386  0.62586  1.0000
  C   C645      1.0  0.94077  0.70700  0.59716  1.0000
  H   H1030     1.0  0.52515  0.00278  0.56698  1.0000
  N   N65       1.0  0.54565  0.81144  0.65432  1.0000
  H   H1031     1.0  0.59404  0.82139  0.66551  1.0000
  S   S261      1.0  0.59023  0.81960  0.75438  1.0000
  H   H1032     1.0  0.73940  0.75893  0.53568  1.0000
  H   H1033     1.0  0.97354  0.73772  0.65812  1.0000
  S   S262      1.0  0.52583  0.66836  0.65316  1.0000
  S   S263      1.0  0.92233  0.74383  0.54543  1.0000
  N   N66       1.0  0.72342  0.75794  0.57643  1.0000
  C   C646      1.0  0.73559  0.74494  0.55422  1.0000
  H   H1034     1.0  0.80934  0.79464  0.52599  1.0000
  C   C647      1.0  0.74796  0.79208  0.58261  1.0000
  C   C648      1.0  0.71759  0.73784  0.60027  1.0000
  H   H1035     1.0  0.51632  0.76783  0.63118  1.0000
  H   H1036     1.0  0.98429  0.71436  0.63472  1.0000
  H   H1037     1.0  0.75937  0.74617  0.55917  1.0000
  C   C649      1.0  0.99935  0.50878  0.52677  1.0000
  H   H1038     1.0  0.74003  0.80257  0.59965  1.0000
  H   H1039     1.0  0.53212  0.80508  0.61297  1.0000
  S   S264      1.0  0.66958  0.86958  0.75300  1.0000
  H   H1040     1.0  0.55523  0.94203  0.51863  1.0000
  H   H1041     1.0  0.77192  0.79388  0.58796  1.0000
  H   H1042     1.0  0.70895  0.74723  0.61762  1.0000
  H   H1043     1.0  0.74017  0.73733  0.60642  1.0000
  H   H1044     1.0  0.69878  0.71204  0.59643  1.0000
  C   C650      1.0  0.54605  0.52918  0.53911  1.0000
  H   H1045     1.0  0.53662  0.63929  0.70151  1.0000
  C   C651      1.0  0.57615  0.80959  0.64908  1.0000
  H   H1046     1.0  0.73215  0.63163  0.75814  1.0000
  H   H1047     1.0  0.60631  0.98464  0.53863  1.0000
  C   C652      1.0  0.91903  0.68593  0.64061  1.0000
  H   H1048     1.0  0.94968  0.68876  0.59431  1.0000
  H   H1049     1.0  0.93259  0.80652  0.52572  1.0000
  H   H1050     1.0  0.81072  0.67605  0.72135  1.0000
  H   H1051     1.0  0.53018  0.84821  0.65906  1.0000
  H   H1052     1.0  0.92670  0.74702  0.64948  1.0000
  H   H1053     1.0  0.97895  0.74572  0.52037  1.0000
  H   H1054     1.0  0.73992  0.59952  0.74517  1.0000
  H   H1055     1.0  0.87542  0.90719  0.52393  1.0000
  C   C653      1.0  0.97343  0.73111  0.63655  1.0000
  H   H1056     1.0  0.86845  0.93825  0.54030  1.0000
  H   H1057     1.0  0.90929  0.94404  0.53615  1.0000
  C   C654      1.0  0.99960  0.70335  0.75518  1.0000
  C   C655      1.0  0.79363  0.86944  0.52384  1.0000
  H   H1058     1.0  0.56430  0.85877  0.63670  1.0000
  H   H1059     1.0  0.52531  0.66515  0.72074  1.0000
  H   H1060     1.0  0.78886  0.89003  0.52349  1.0000
  C   C656      1.0  0.78537  0.65711  0.72616  1.0000
  H   H1061     1.0  0.83006  0.64702  0.75155  1.0000
  C   C657      1.0  0.80495  0.81543  0.52561  1.0000
  H   H1062     1.0  0.54898  0.80774  0.69667  1.0000
  H   H1063     1.0  0.99502  0.57520  0.75678  1.0000
  C   C658      1.0  0.52217  0.79400  0.63268  1.0000
  H   H1064     1.0  0.57145  0.78380  0.64729  1.0000
  C   C659      1.0  0.52930  0.54386  0.52760  1.0000
  C   C660      1.0  0.80405  0.62938  0.75558  1.0000
  H   H1065     1.0  0.97387  0.69014  0.75050  1.0000
  C   C661      1.0  0.53134  0.79607  0.68006  1.0000
  H   H1066     1.0  0.52419  0.76963  0.67955  1.0000
  C   C662      1.0  0.61229  0.99809  0.51959  1.0000
  H   H1067     1.0  0.74237  0.92349  0.76358  1.0000
  Fe  Fe133     1.0  0.85772  0.62816  0.80960  1.0000
  H   H1068     1.0  0.73549  0.89550  0.78990  1.0000
  S   S265      1.0  0.82140  0.63840  0.83317  1.0000
  Fe  Fe134     1.0  0.93001  0.65389  0.79593  1.0000
  S   S266      1.0  0.98143  0.68934  0.80790  1.0000
  Fe  Fe135     1.0  0.88504  0.58147  0.79581  1.0000
  C   C663      1.0  0.90877  0.52933  0.82533  1.0000
  H   H1069     1.0  0.90485  0.83979  0.99082  1.0000
  S   S267      1.0  0.89722  0.62033  0.82749  1.0000
  Fe  Fe136     1.0  0.62372  0.58205  0.89294  1.0000
  S   S268      1.0  0.65408  0.57101  0.92089  1.0000
  S   S269      1.0  0.64033  0.63426  0.88170  1.0000
  Fe  Fe137     1.0  0.60558  0.53373  0.93761  1.0000
  Fe  Fe138     1.0  0.64797  0.53252  0.89008  1.0000
  C   C664      1.0  0.95606  0.52375  0.85596  1.0000
  S   S270      1.0  0.57579  0.54797  0.91193  1.0000
  S   S271      1.0  0.61998  0.54538  0.86108  1.0000
  Fe  Fe139     1.0  0.75161  0.86393  0.97162  1.0000
  S   S272      1.0  0.79237  0.87644  0.94194  1.0000
  H   H1070     1.0  0.99687  0.57990  0.98673  1.0000
  Fe  Fe140     1.0  0.72739  0.79088  0.96384  1.0000
  S   S273      1.0  0.76631  0.79796  0.93378  1.0000
  S   S274      1.0  0.69128  0.73982  0.97565  1.0000
  Fe  Fe141     1.0  0.79952  0.83761  0.96191  1.0000
  S   S275      1.0  0.84994  0.84570  0.97199  1.0000
  Fe  Fe142     1.0  0.75487  0.83564  0.91687  1.0000
  S   S276      1.0  0.75073  0.83761  0.87213  1.0000
  S   S277      1.0  0.76147  0.82811  0.99355  1.0000
  S   S278      1.0  0.71330  0.82549  0.94501  1.0000
  C   C665      1.0  0.55861  0.52072  0.99662  1.0000
  H   H1071     1.0  0.98181  0.51216  0.96212  1.0000
  S   S279      1.0  0.63232  0.85176  0.82601  1.0000
  S   S280      1.0  0.61794  0.89779  0.76899  1.0000
  N   N67       1.0  0.00889  0.56215  0.95028  1.0000
  C   C666      1.0  0.71929  0.84393  0.85921  1.0000
  C   C667      1.0  0.71198  0.83805  0.83191  1.0000
  C   C668      1.0  0.68566  0.84085  0.82138  1.0000
  C   C669      1.0  0.66664  0.84979  0.83809  1.0000
  C   C670      1.0  0.67461  0.85669  0.86519  1.0000
  C   C671      1.0  0.70078  0.85367  0.87576  1.0000
  H   H1072     1.0  0.72620  0.83044  0.81901  1.0000
  H   H1073     1.0  0.67958  0.83524  0.80049  1.0000
  H   H1074     1.0  0.66023  0.86404  0.87815  1.0000
  H   H1075     1.0  0.70656  0.85883  0.89673  1.0000
  C   C672      1.0  0.65578  0.66299  0.90811  1.0000
  C   C673      1.0  0.67591  0.69597  0.90242  1.0000
  C   C674      1.0  0.68737  0.71966  0.92310  1.0000
  C   C675      1.0  0.67836  0.71045  0.94954  1.0000
  C   C676      1.0  0.65868  0.67739  0.95529  1.0000
  C   C677      1.0  0.64760  0.65364  0.93462  1.0000
  H   H1076     1.0  0.68267  0.70309  0.88192  1.0000
  H   H1077     1.0  0.70250  0.74507  0.91847  1.0000
  H   H1078     1.0  0.65178  0.67012  0.97573  1.0000
  H   H1079     1.0  0.63210  0.62817  0.93913  1.0000
  C   C678      1.0  0.68916  0.98727  0.77354  1.0000
  C   C679      1.0  0.00965  0.70722  0.78177  1.0000
  C   C680      1.0  0.78322  0.60609  0.84266  1.0000
  C   C681      1.0  0.76243  0.61280  0.85934  1.0000
  C   C682      1.0  0.73262  0.58733  0.86842  1.0000
  C   C683      1.0  0.72362  0.55494  0.86106  1.0000
  C   C684      1.0  0.74401  0.54835  0.84378  1.0000
  C   C685      1.0  0.77358  0.57386  0.83438  1.0000
  H   H1080     1.0  0.76958  0.63772  0.86559  1.0000
  H   H1081     1.0  0.71694  0.59264  0.88160  1.0000
  H   H1082     1.0  0.73676  0.52336  0.83766  1.0000
  H   H1083     1.0  0.78907  0.56853  0.82108  1.0000
  S   S281      1.0  0.84266  0.58646  0.78030  1.0000
  H   H1084     1.0  0.98405  0.57601  0.85230  1.0000
  C   C686      1.0  0.82389  0.78832  0.99987  1.0000
  H   H1085     1.0  0.75435  0.99329  0.80805  1.0000
  C   C687      1.0  0.88558  0.93112  0.96411  1.0000
  H   H1086     1.0  0.54590  0.54100  0.96367  1.0000
  H   H1087     1.0  0.77768  0.94707  0.83167  1.0000
  H   H1088     1.0  0.99825  0.57549  0.91248  1.0000
  S   S282      1.0  0.59429  0.52284  0.98163  1.0000
  H   H1089     1.0  0.83244  0.57372  0.90067  1.0000
  H   H1090     1.0  0.78240  0.66694  0.93365  1.0000
  C   C688      1.0  0.80462  0.50808  0.89185  1.0000
  H   H1091     1.0  0.76354  0.71233  0.98741  1.0000
  C   C689      1.0  0.85220  0.81555  0.99111  1.0000
  C   C690      1.0  0.96149  0.55441  0.84728  1.0000
  C   C691      1.0  0.93785  0.55724  0.83214  1.0000
  H   H1092     1.0  0.77567  0.92883  0.78437  1.0000
  H   H1093     1.0  0.64691  0.75788  0.93046  1.0000
  C   C692      1.0  0.51971  0.98745  0.99639  1.0000
  H   H1094     1.0  0.94216  0.58095  0.82564  1.0000
  C   C693      1.0  0.88285  0.81877  0.99750  1.0000
  N   N68       1.0  0.62886  0.75545  0.89072  1.0000
  C   C694      1.0  0.62327  0.78408  0.89414  1.0000
  C   C695      1.0  0.62686  0.74093  0.91701  1.0000
  C   C696      1.0  0.66154  0.76586  0.87875  1.0000
  C   C697      1.0  0.60375  0.73094  0.87286  1.0000
  H   H1095     1.0  0.59918  0.77742  0.90369  1.0000
  H   H1096     1.0  0.62362  0.79501  0.87457  1.0000
  H   H1097     1.0  0.64244  0.80349  0.90686  1.0000
  H   H1098     1.0  0.60331  0.73472  0.92737  1.0000
  H   H1099     1.0  0.62858  0.71792  0.91496  1.0000
  H   H1100     1.0  0.66638  0.74485  0.87527  1.0000
  H   H1101     1.0  0.68130  0.78394  0.89183  1.0000
  H   H1102     1.0  0.66406  0.77755  0.85914  1.0000
  H   H1103     1.0  0.60462  0.74117  0.85284  1.0000
  H   H1104     1.0  0.57876  0.72248  0.88124  1.0000
  H   H1105     1.0  0.60739  0.70904  0.86977  1.0000
  H   H1106     1.0  0.69981  0.94735  0.81602  1.0000
  N   N69       1.0  0.76946  0.70412  0.94567  1.0000
  C   C698      1.0  0.75193  0.71081  0.96789  1.0000
  C   C699      1.0  0.76946  0.67283  0.95011  1.0000
  C   C700      1.0  0.80349  0.73084  0.94443  1.0000
  H   H1107     1.0  0.86353  0.91271  0.95337  1.0000
  H   H1108     1.0  0.80262  0.61978  0.77593  1.0000
  H   H1109     1.0  0.74632  0.61108  0.77995  1.0000
  H   H1110     1.0  0.72604  0.69137  0.96927  1.0000
  S   S283      1.0  0.68819  0.52212  0.87428  1.0000
  H   H1111     1.0  0.73761  0.91369  0.83719  1.0000
  H   H1112     1.0  0.78181  0.67361  0.96914  1.0000
  C   C701      1.0  0.82234  0.56414  0.88049  1.0000
  H   H1113     1.0  0.81699  0.73265  0.96304  1.0000
  H   H1114     1.0  0.80441  0.75499  0.94187  1.0000
  H   H1115     1.0  0.75162  0.73436  0.96532  1.0000
  H   H1116     1.0  0.69848  0.93313  0.78208  1.0000
  S   S284      1.0  0.74372  0.90509  0.98906  1.0000
  Fe  Fe143     1.0  0.62797  0.85733  0.78169  1.0000
  H   H1117     1.0  0.81727  0.72705  0.92749  1.0000
  H   H1118     1.0  0.92106  0.98866  0.98984  1.0000
  H   H1119     1.0  0.82671  0.54315  0.83116  1.0000
  H   H1120     1.0  0.92242  0.95647  0.00794  1.0000
  N   N70       1.0  0.74178  0.94253  0.80311  1.0000
  H   H1121     1.0  0.80017  0.78579  0.99529  1.0000
  H   H1122     1.0  0.77871  0.68513  0.77192  1.0000
  H   H1123     1.0  0.75230  0.72506  0.91629  1.0000
  S   S285      1.0  0.87832  0.53184  0.80663  1.0000
  H   H1124     1.0  0.86182  0.51928  0.86912  1.0000
  N   N71       1.0  0.82472  0.53430  0.87319  1.0000
  C   C702      1.0  0.79389  0.67257  0.77296  1.0000
  H   H1125     1.0  0.98349  0.58895  0.94103  1.0000
  C   C703      1.0  0.90651  0.96728  0.00264  1.0000
  H   H1126     1.0  0.89974  0.95138  0.95022  1.0000
  C   C704      1.0  0.75116  0.93943  0.83046  1.0000
  H   H1127     1.0  0.97151  0.52003  0.93000  1.0000
  C   C705      1.0  0.97868  0.53045  0.95052  1.0000
  H   H1128     1.0  0.79238  0.66416  0.79381  1.0000
  H   H1129     1.0  0.75371  0.97980  0.77411  1.0000
  C   C706      1.0  0.53904  0.53099  0.98335  1.0000
  S   S286      1.0  0.89193  0.66616  0.78129  1.0000
  H   H1130     1.0  0.74410  0.65217  0.95117  1.0000
  C   C707      1.0  0.00446  0.59376  0.77333  1.0000
  H   H1131     1.0  0.72709  0.68196  0.92058  1.0000
  H   H1132     1.0  0.76355  0.97282  0.99900  1.0000
  C   C708      1.0  0.85914  0.54127  0.87466  1.0000
  H   H1133     1.0  0.78689  0.98606  0.79537  1.0000
  H   H1134     1.0  0.76531  0.69678  0.90300  1.0000
  C   C709      1.0  0.70645  0.93193  0.80256  1.0000
  N   N72       1.0  0.87660  0.94296  0.98897  1.0000
  C   C710      1.0  0.75285  0.70191  0.92026  1.0000
  H   H1135     1.0  0.83238  0.94024  0.97372  1.0000
  H   H1136     1.0  0.81978  0.69105  0.76927  1.0000
  H   H1137     1.0  0.98338  0.59638  0.78164  1.0000
  S   S287      1.0  0.92013  0.61439  0.76510  1.0000
  H   H1138     1.0  0.83594  0.58402  0.86606  1.0000
  C   C711      1.0  0.74921  0.92169  0.78443  1.0000
  C   C712      1.0  0.82630  0.76423  0.01453  1.0000
  C   C713      1.0  0.76005  0.97693  0.79486  1.0000
  H   H1139     1.0  0.86862  0.97825  0.96795  1.0000
  C   C714      1.0  0.85619  0.95831  0.98247  1.0000
  Fe  Fe144     1.0  0.57509  0.50960  0.88308  1.0000
  H   H1140     1.0  0.86919  0.54947  0.89506  1.0000
  S   S288      1.0  0.98623  0.52103  0.87490  1.0000
  H   H1141     1.0  0.90055  0.91889  0.96833  1.0000
  H   H1142     1.0  0.74570  0.95472  0.84507  1.0000
  H   H1143     1.0  0.87492  0.56070  0.86060  1.0000
  C   C715      1.0  0.77721  0.96593  0.01226  1.0000
  H   H1144     1.0  0.95781  0.53273  0.95956  1.0000
  H   H1145     1.0  0.67002  0.96356  0.77909  1.0000
  H   H1146     1.0  0.69186  0.90629  0.80895  1.0000
  H   H1147     1.0  0.79650  0.55936  0.88071  1.0000
  C   C716      1.0  0.00404  0.58504  0.93344  1.0000
  H   H1148     1.0  0.83474  0.89687  0.99755  1.0000
  C   C717      1.0  0.85819  0.91510  0.00671  1.0000
  H   H1149     1.0  0.85064  0.96928  0.00056  1.0000
  H   H1150     1.0  0.81296  0.51528  0.91281  1.0000
  C   C718      1.0  0.88524  0.79469  0.01223  1.0000
  C   C719      1.0  0.77254  0.93382  0.01131  1.0000
  C   C720      1.0  0.81273  0.52360  0.84570  1.0000
  H   H1151     1.0  0.87229  0.90197  0.01093  1.0000
  H   H1152     1.0  0.78652  0.51698  0.84397  1.0000
