data_image0
_chemical_formula_structural       H2CHNHFeS3FeS2CFeS2FeS2HCFeCFe2S2H4CH2CHC6H4C6H4C2HC3H2CH2CH6FeHNC4H12NCH3CFeH2CHNCH4C2H2C2H3SH3SNCHCSH3SH3CHCHNH2SHSHFeS2FeSH2SHNHFeH2FeS2FeSH4CFeSCSFeSCH3C5H3C6H4C6H12CH3CH3CHCHNH3C2FeSCH3CHSH2CSNC4H4C2HCH6SFeSH5CHCFeNCFeSC2FeSHSHCHCHCFeS2FeS2FeS2FeSFeS3C6H4C2H3C2HNCHC7H11SCH2CSHCHCH6CH3CH5CH2NH6SH2CFeCHCSCH3SH2NCHCHCH2FeCHC2HFeS2FeS2FeS2FeSFeS3CHFeHSCSH2CSH5C3HC7H4C6H5NCH4SH2FeCNC3H13CHCHCH2SH8NCFeSCHNHCSHCH2CH4CHSHSFeC2SH2CFeS2FeSHFeS2FeSFeS3H2S2HFeS2H2C3NC6H2C6H3C6HC2H2CHC5H2C7H6NH3FeSNC4H4SH10CH3FeH3CSCHS2FeHCH2FeHCSH3SHSCH4C2H6CHC2H3FeS2HCH2FeSHS2FeS2FeSFe2SFeS3FeS2H2C6H4C8HSHCHC4H4NH3C6H5CHCH2NSHSHC2FeCH6C2H2C2HNH2CHCNC2H10CH5CH3C2SHNHSCHSHC3HFeS2FeS2FeSFeS4FeS2H2S2FeS2CHC4HC4HFeCHCHC6H4CSH3C3NH3C3SCH2FeH6CNC4H12CH3FeHSH6C3H2CH3CHC4H2C2H2C2HSHCH2NH5SCFeS2FeSHFeS2FeCSFe3HS2FeHSH2SC2HSNH3NC7H2C2FeHC2HCH5C6H4C3H4SCH3NHNCH2SHCH3C3HCH3CHCH3CHSH5CH2SC3HSH3SCH3C2H2CH5CHCH2NH2C3H2CSH2CFeS2CHFeSFeSHS2H2SHCFeS2FeS2FeSFeCS2CHCHNC6H2SH2C5HCHC6H5C7H4NSH3C2H5C3H2CHNH2FeHN2H5CH4CSCHCH2C2H3CHCH2CH4CHCHCH3CH7NH4FeCH3S2HC2H4CH7CH2FeS2H3SHFeS2FeS2FeSFeS3FeHSH2FeSC7H4C6H3SCH2CH2C2H2SNHC2HSHFeC4HC2HCSCH7CH3CNC4H11NC4H6CH4C3HCH3SCH2NCHSHSH2SNFeS2FeS2FeCFeS3FeS2FeS2CHCH3C6H4C2H2C6H4FeC4NCHC6H6CH3CHCHCH2CH3NC4H14NH3CH3NCHCH2CH2C2SNHCH2CH4FeHCHC2SC2H5SH2FeHCHCHSH2CH3SHNHCH2FeSHFeS2FeSFeS3H2S2FeSH2SCFeS2HC3HFeC2H4C2HC2H3C6H4CH2CHC4HCHNCHCHSCH5SH4CH2CHCHSCNC4H13CHCSH3NC2HCFeH3C2HCHCH4C3H2S2NFeS2FeS2FeSFeS3FeS2HFeHSHCH4CHC2HC6H4C6H5CHCH4C2H3FeCHNC4H12NC2H3FeHCH3CSH2CH4CH2CNHCH3CHC2SHSCHCFeS2FeS2FeSFeS3FeS2CFeS2HFeH4C7H5CH2C6H4C6H4C2H3NH2FeCHSH2FeH3SH2SH2C3H2CNC3H10NCH6NC2H9C2HCH3CH4SFeCHFeS2CFeHCSFeS2H2FeSFeHSH3SCH3SH3C6H3C6H6C6H5C2HCH2SH2CH3SH2CHCHCFeH2SHNHNSCNC4H12S2HNCH2SH2CHFeCHNH3C2H3CH3CFeCH3CH2CHCFeHCH2CH3C3SCH4CHFeS2FeSHSH3FeS2FeHSHFeSFeHSCH2SH3C6HCH2C6H4C6H6SH2S2C2H5CFeHCH3FeH4C2HCSCH4CHCH3NH3NC2HCHCH2NC2HCHNH2CH2NH8CH2SHC3FeH2CHSH2NH2C2S
_chemical_formula_sum              "H1152 C720 N72 Fe144 S288"
_cell_length_a       39.5088
_cell_length_b       39.8412
_cell_length_c       80.067
_cell_angle_alpha    88.1471
_cell_angle_beta     90.9347
_cell_angle_gamma    119.507

_space_group_name_H-M_alt    "P 1"
_space_group_IT_number       1

loop_
  _space_group_symop_operation_xyz
  'x, y, z'

loop_
  _atom_site_type_symbol
  _atom_site_label
  _atom_site_symmetry_multiplicity
  _atom_site_fract_x
  _atom_site_fract_y
  _atom_site_fract_z
  _atom_site_occupancy
  H   H1        1.0  0.30029  0.49431  0.19457  1.0000
  H   H2        1.0  0.49858  0.43657  0.18023  1.0000
  C   C1        1.0  0.38252  0.36841  0.21447  1.0000
  H   H3        1.0  0.48891  0.23686  0.13486  1.0000
  N   N1        1.0  0.36176  0.01402  0.00493  1.0000
  H   H4        1.0  0.46657  0.39981  0.19484  1.0000
  Fe  Fe1       1.0  0.10486  0.47223  0.02518  1.0000
  S   S1        1.0  0.07967  0.43181  0.04780  1.0000
  S   S2        1.0  0.11119  0.45876  0.99878  1.0000
  S   S3        1.0  0.03873  0.15308  0.11271  1.0000
  Fe  Fe2       1.0  0.16329  0.07059  0.07889  1.0000
  S   S4        1.0  0.15751  0.05229  0.10589  1.0000
  S   S5        1.0  0.14047  0.10861  0.06794  1.0000
  C   C2        1.0  0.01903  0.29931  0.04897  1.0000
  Fe  Fe3       1.0  0.21853  0.06283  0.10352  1.0000
  S   S6        1.0  0.25817  0.08970  0.12579  1.0000
  S   S7        1.0  0.22610  0.08564  0.07697  1.0000
  Fe  Fe4       1.0  0.41986  0.29121  0.15667  1.0000
  S   S8        1.0  0.40769  0.26374  0.18244  1.0000
  S   S9        1.0  0.38354  0.26655  0.13329  1.0000
  H   H5        1.0  0.40349  0.02764  0.98532  1.0000
  C   C3        1.0  0.45272  0.16144  0.14345  1.0000
  Fe  Fe5       1.0  0.47118  0.28075  0.18259  1.0000
  C   C4        1.0  0.39392  0.04235  0.99420  1.0000
  Fe  Fe6       1.0  0.42757  0.32388  0.19135  1.0000
  Fe  Fe7       1.0  0.20240  0.02352  0.06999  1.0000
  S   S10       1.0  0.48205  0.30414  0.15623  1.0000
  S   S11       1.0  0.43546  0.35033  0.16550  1.0000
  H   H6        1.0  0.41268  0.21798  0.15054  1.0000
  H   H7        1.0  0.20710  0.43543  0.17207  1.0000
  H   H8        1.0  0.37408  0.05436  0.02445  1.0000
  H   H9        1.0  0.49292  0.50218  0.19796  1.0000
  C   C5        1.0  0.37752  0.38603  0.19997  1.0000
  H   H10       1.0  0.35895  0.42517  0.18978  1.0000
  H   H11       1.0  0.38462  0.37958  0.18793  1.0000
  C   C6        1.0  0.42447  0.19837  0.15375  1.0000
  H   H12       1.0  0.40317  0.49332  0.96729  1.0000
  C   C7        1.0  0.29189  0.13925  0.12761  1.0000
  C   C8        1.0  0.30447  0.16463  0.11372  1.0000
  C   C9        1.0  0.33172  0.20386  0.11574  1.0000
  C   C10       1.0  0.34691  0.21791  0.13160  1.0000
  C   C11       1.0  0.33390  0.19263  0.14551  1.0000
  C   C12       1.0  0.30671  0.15342  0.14348  1.0000
  H   H13       1.0  0.29372  0.15393  0.10140  1.0000
  H   H14       1.0  0.34180  0.22325  0.10491  1.0000
  H   H15       1.0  0.34493  0.20319  0.15781  1.0000
  H   H16       1.0  0.29697  0.13395  0.15429  1.0000
  C   C13       1.0  0.06381  0.13814  0.09960  1.0000
  C   C14       1.0  0.07428  0.15346  0.08334  1.0000
  C   C15       1.0  0.09708  0.14348  0.07358  1.0000
  C   C16       1.0  0.10894  0.11768  0.07991  1.0000
  C   C17       1.0  0.09694  0.10103  0.09588  1.0000
  C   C18       1.0  0.07504  0.11177  0.10581  1.0000
  H   H17       1.0  0.06614  0.17417  0.07853  1.0000
  H   H18       1.0  0.10625  0.15644  0.06122  1.0000
  H   H19       1.0  0.10503  0.08040  0.10071  1.0000
  H   H20       1.0  0.06679  0.09969  0.11836  1.0000
  C   C19       1.0  0.24250  0.42090  0.19805  1.0000
  C   C20       1.0  0.02384  0.31946  0.06358  1.0000
  H   H21       1.0  0.46433  0.45994  0.99122  1.0000
  C   C21       1.0  0.05695  0.38086  0.04783  1.0000
  C   C22       1.0  0.05217  0.36074  0.03320  1.0000
  C   C23       1.0  0.04260  0.36005  0.06298  1.0000
  H   H22       1.0  0.17686  0.42548  0.20015  1.0000
  H   H23       1.0  0.24640  0.41628  0.21159  1.0000
  C   C24       1.0  0.48668  0.06086  0.19691  1.0000
  H   H24       1.0  0.06350  0.37649  0.02151  1.0000
  H   H25       1.0  0.21658  0.39439  0.19363  1.0000
  C   C25       1.0  0.39844  0.16091  0.12894  1.0000
  H   H26       1.0  0.41980  0.06174  0.00174  1.0000
  H   H27       1.0  0.32587  0.01378  0.02491  1.0000
  H   H28       1.0  0.26860  0.42372  0.19159  1.0000
  H   H29       1.0  0.47532  0.08103  0.19898  1.0000
  H   H30       1.0  0.37607  0.13656  0.13668  1.0000
  H   H31       1.0  0.48374  0.04471  0.20891  1.0000
  Fe  Fe8       1.0  0.08578  0.49709  0.99177  1.0000
  H   H32       1.0  0.02970  0.30474  0.02242  1.0000
  N   N2        1.0  0.20367  0.17383  0.11841  1.0000
  C   C26       1.0  0.17699  0.14251  0.12997  1.0000
  C   C27       1.0  0.18481  0.19582  0.11200  1.0000
  C   C28       1.0  0.21309  0.15696  0.10426  1.0000
  C   C29       1.0  0.23980  0.19987  0.12740  1.0000
  H   H33       1.0  0.16932  0.15409  0.14087  1.0000
  H   H34       1.0  0.19027  0.12508  0.13486  1.0000
  H   H35       1.0  0.14940  0.12238  0.12363  1.0000
  H   H36       1.0  0.20426  0.21971  0.10327  1.0000
  H   H37       1.0  0.15765  0.17708  0.10501  1.0000
  H   H38       1.0  0.17670  0.20855  0.12232  1.0000
  H   H39       1.0  0.22550  0.13853  0.10867  1.0000
  H   H40       1.0  0.23442  0.17960  0.09557  1.0000
  H   H41       1.0  0.18671  0.13844  0.09684  1.0000
  H   H42       1.0  0.23399  0.21409  0.13784  1.0000
  H   H43       1.0  0.26143  0.22298  0.11893  1.0000
  H   H44       1.0  0.25394  0.18384  0.13288  1.0000
  N   N3        1.0  0.43425  0.18477  0.13857  1.0000
  C   C30       1.0  0.03312  0.32010  0.03377  1.0000
  H   H45       1.0  0.27824  0.48630  0.21460  1.0000
  H   H46       1.0  0.00946  0.18961  0.03705  1.0000
  H   H47       1.0  0.01199  0.43512  0.03191  1.0000
  C   C31       1.0  0.46134  0.21844  0.12812  1.0000
  Fe  Fe9       1.0  0.49667  0.36039  0.16762  1.0000
  H   H48       1.0  0.43268  0.13560  0.15115  1.0000
  H   H49       1.0  0.46751  0.03959  0.18758  1.0000
  C   C32       1.0  0.36286  0.41177  0.20106  1.0000
  H   H50       1.0  0.44839  0.23702  0.12453  1.0000
  N   N4        1.0  0.50216  0.45507  0.20551  1.0000
  C   C33       1.0  0.47981  0.43099  0.19139  1.0000
  H   H51       1.0  0.01311  0.30381  0.07535  1.0000
  H   H52       1.0  0.46892  0.20939  0.11639  1.0000
  H   H53       1.0  0.25898  0.46425  0.16982  1.0000
  H   H54       1.0  0.46131  0.15136  0.13230  1.0000
  C   C34       1.0  0.20413  0.45106  0.20427  1.0000
  C   C35       1.0  0.00605  0.49034  0.96773  1.0000
  H   H55       1.0  0.23513  0.50565  0.02042  1.0000
  H   H56       1.0  0.30371  0.47529  0.97673  1.0000
  C   C36       1.0  0.46920  0.47831  0.98023  1.0000
  C   C37       1.0  0.37323  0.47893  0.97253  1.0000
  H   H57       1.0  0.40442  0.14852  0.11785  1.0000
  H   H58       1.0  0.02270  0.17037  0.02002  1.0000
  H   H59       1.0  0.02747  0.01526  0.07763  1.0000
  S   S12       1.0  0.14024  0.01098  0.06949  1.0000
  H   H60       1.0  0.47947  0.17833  0.15098  1.0000
  H   H61       1.0  0.20052  0.47698  0.20251  1.0000
  H   H62       1.0  0.02843  0.42335  0.00400  1.0000
  S   S13       1.0  0.48993  0.33793  0.19399  1.0000
  N   N5        1.0  0.23840  0.45558  0.19511  1.0000
  C   C38       1.0  0.27366  0.48980  0.20112  1.0000
  H   H63       1.0  0.38512  0.17827  0.12422  1.0000
  C   C39       1.0  0.23351  0.46072  0.17704  1.0000
  S   S14       1.0  0.03735  0.47151  0.97256  1.0000
  H   H64       1.0  0.31892  0.46208  0.99597  1.0000
  H   H65       1.0  0.45049  0.21476  0.16175  1.0000
  H   H66       1.0  0.38507  0.06065  0.98662  1.0000
  S   S15       1.0  0.40219  0.33695  0.21394  1.0000
  H   H67       1.0  0.23059  0.48681  0.17443  1.0000
  H   H68       1.0  0.40236  0.17400  0.16155  1.0000
  H   H69       1.0  0.04619  0.37542  0.07436  1.0000
  C   C40       1.0  0.32476  0.48670  0.98727  1.0000
  H   H70       1.0  0.33848  0.05169  0.00945  1.0000
  C   C41       1.0  0.34955  0.03442  0.01641  1.0000
  H   H71       1.0  0.45564  0.43633  0.18758  1.0000
  N   N6        1.0  0.36545  0.50656  0.98128  1.0000
  H   H72       1.0  0.31802  0.50653  0.99414  1.0000
  H   H73       1.0  0.37048  0.45512  0.98109  1.0000
  S   S16       1.0  0.49317  0.24180  0.19336  1.0000
  H   H74       1.0  0.38909  0.49860  0.00456  1.0000
  S   S17       1.0  0.07680  0.50798  0.01825  1.0000
  H   H75       1.0  0.39951  0.00880  0.02328  1.0000
  Fe  Fe10      1.0  0.04422  0.24484  0.32982  1.0000
  S   S18       1.0  0.06693  0.25191  0.35622  1.0000
  S   S19       1.0  0.06754  0.28737  0.30775  1.0000
  Fe  Fe11      1.0  0.05588  0.19095  0.35390  1.0000
  S   S20       1.0  0.09393  0.16757  0.36451  1.0000
  H   H76       1.0  0.02262  0.49677  0.23137  1.0000
  H   H77       1.0  0.46523  0.41381  0.22424  1.0000
  S   S21       1.0  0.14209  0.06632  0.32204  1.0000
  H   H78       1.0  0.05682  0.48628  0.41720  1.0000
  N   N7        1.0  0.25201  0.12781  0.36187  1.0000
  H   H79       1.0  0.15482  0.21882  0.32312  1.0000
  Fe  Fe12      1.0  0.47698  0.11354  0.44320  1.0000
  H   H80       1.0  0.42375  0.02602  0.40776  1.0000
  H   H81       1.0  0.14475  0.20688  0.27717  1.0000
  Fe  Fe13      1.0  0.45448  0.13308  0.40920  1.0000
  S   S22       1.0  0.41368  0.10757  0.38694  1.0000
  S   S23       1.0  0.44023  0.14034  0.43545  1.0000
  Fe  Fe14      1.0  0.31635  0.46946  0.24107  1.0000
  S   S24       1.0  0.33531  0.47314  0.26795  1.0000
  H   H82       1.0  0.20708  0.44748  0.21798  1.0000
  H   H83       1.0  0.45027  0.49417  0.44763  1.0000
  H   H84       1.0  0.48708  0.34865  0.44232  1.0000
  H   H85       1.0  0.29631  0.11524  0.37085  1.0000
  C   C42       1.0  0.29877  0.06024  0.39901  1.0000
  Fe  Fe15      1.0  0.27188  0.45044  0.27408  1.0000
  S   S25       1.0  0.24631  0.40637  0.29555  1.0000
  C   C43       1.0  0.01672  0.41503  0.40453  1.0000
  S   S26       1.0  0.25264  0.44264  0.24718  1.0000
  Fe  Fe16      1.0  0.26394  0.50370  0.24813  1.0000
  S   S27       1.0  0.22848  0.01739  0.38349  1.0000
  C   C44       1.0  0.35800  0.40244  0.23109  1.0000
  H   H86       1.0  0.37649  0.36325  0.24129  1.0000
  H   H87       1.0  0.35050  0.40853  0.24313  1.0000
  H   H88       1.0  0.25357  0.14598  0.33613  1.0000
  C   C45       1.0  0.36214  0.08263  0.38635  1.0000
  C   C46       1.0  0.34327  0.06380  0.37167  1.0000
  C   C47       1.0  0.30237  0.04327  0.37063  1.0000
  C   C48       1.0  0.27993  0.04146  0.38431  1.0000
  C   C49       1.0  0.33968  0.08093  0.40001  1.0000
  H   H89       1.0  0.36044  0.06504  0.36102  1.0000
  H   H90       1.0  0.12213  0.26395  0.29014  1.0000
  H   H91       1.0  0.35379  0.09597  0.41125  1.0000
  C   C50       1.0  0.10370  0.13664  0.35276  1.0000
  C   C51       1.0  0.09763  0.13387  0.33550  1.0000
  C   C52       1.0  0.10876  0.11149  0.32625  1.0000
  C   C53       1.0  0.12496  0.09086  0.33425  1.0000
  C   C54       1.0  0.12923  0.09206  0.35162  1.0000
  C   C55       1.0  0.11919  0.11538  0.36081  1.0000
  H   H92       1.0  0.08539  0.14979  0.32921  1.0000
  H   H93       1.0  0.10500  0.11027  0.31282  1.0000
  H   H94       1.0  0.14134  0.07600  0.35792  1.0000
  H   H95       1.0  0.12363  0.11715  0.37420  1.0000
  C   C56       1.0  0.11667  0.32376  0.30535  1.0000
  C   C57       1.0  0.14421  0.33089  0.31791  1.0000
  C   C58       1.0  0.18367  0.35772  0.31497  1.0000
  C   C59       1.0  0.19594  0.37743  0.29945  1.0000
  C   C60       1.0  0.16826  0.37102  0.28704  1.0000
  C   C61       1.0  0.12878  0.34429  0.29001  1.0000
  H   H96       1.0  0.13519  0.31546  0.32981  1.0000
  H   H97       1.0  0.20495  0.36272  0.32465  1.0000
  H   H98       1.0  0.17739  0.38599  0.27505  1.0000
  H   H99       1.0  0.10759  0.33895  0.28025  1.0000
  H   H100      1.0  0.23661  0.10011  0.38626  1.0000
  H   H101      1.0  0.03924  0.04806  0.34602  1.0000
  H   H102      1.0  0.28747  0.16866  0.38024  1.0000
  H   H103      1.0  0.02917  0.39979  0.41210  1.0000
  H   H104      1.0  0.43217  0.01830  0.42931  1.0000
  H   H105      1.0  0.13836  0.18471  0.30668  1.0000
  H   H106      1.0  0.28161  0.05920  0.40961  1.0000
  H   H107      1.0  0.20144  0.11157  0.37704  1.0000
  C   C62       1.0  0.23241  0.12735  0.34592  1.0000
  H   H108      1.0  0.30238  0.13264  0.34954  1.0000
  H   H109      1.0  0.29505  0.18776  0.35915  1.0000
  H   H110      1.0  0.25201  0.17848  0.37032  1.0000
  C   C63       1.0  0.37911  0.04112  0.42799  1.0000
  H   H111      1.0  0.18951  0.21486  0.31025  1.0000
  H   H112      1.0  0.09880  0.21360  0.29589  1.0000
  H   H113      1.0  0.26562  0.08417  0.35489  1.0000
  C   C64       1.0  0.22275  0.10188  0.37428  1.0000
  H   H114      1.0  0.02013  0.06657  0.36116  1.0000
  C   C65       1.0  0.48949  0.02755  0.45460  1.0000
  H   H115      1.0  0.45085  0.44835  0.21764  1.0000
  N   N8        1.0  0.49030  0.39403  0.45731  1.0000
  H   H116      1.0  0.21608  0.09768  0.34097  1.0000
  H   H117      1.0  0.04738  0.45049  0.43341  1.0000
  H   H118      1.0  0.35115  0.04014  0.43080  1.0000
  C   C66       1.0  0.27255  0.16747  0.36816  1.0000
  C   C67       1.0  0.03364  0.46366  0.42529  1.0000
  Fe  Fe17      1.0  0.49679  0.19657  0.43468  1.0000
  S   S28       1.0  0.48823  0.10323  0.41701  1.0000
  C   C68       1.0  0.28035  0.11447  0.35914  1.0000
  H   H119      1.0  0.21107  0.13761  0.34744  1.0000
  H   H120      1.0  0.16857  0.25766  0.27201  1.0000
  H   H121      1.0  0.19637  0.23620  0.28016  1.0000
  C   C69       1.0  0.37269  0.37674  0.23000  1.0000
  H   H122      1.0  0.39358  0.06282  0.41771  1.0000
  S   S29       1.0  0.20697  0.01800  0.33414  1.0000
  H   H123      1.0  0.11755  0.24915  0.31172  1.0000
  H   H124      1.0  0.20602  0.07194  0.36971  1.0000
  C   C70       1.0  0.47659  0.44460  0.22029  1.0000
  S   S30       1.0  0.03764  0.18591  0.32707  1.0000
  N   N9        1.0  0.16127  0.24368  0.29831  1.0000
  C   C71       1.0  0.19258  0.28232  0.30296  1.0000
  C   C72       1.0  0.12333  0.24247  0.29903  1.0000
  C   C73       1.0  0.16105  0.21425  0.31011  1.0000
  C   C74       1.0  0.16804  0.23570  0.28115  1.0000
  H   H125      1.0  0.18857  0.28920  0.31589  1.0000
  H   H126      1.0  0.19323  0.30531  0.29443  1.0000
  H   H127      1.0  0.22177  0.28462  0.30237  1.0000
  H   H128      1.0  0.28826  0.02891  0.35926  1.0000
  C   C75       1.0  0.46798  0.49865  0.45868  1.0000
  C   C76       1.0  0.46777  0.35639  0.44924  1.0000
  H   H129      1.0  0.45140  0.33265  0.45858  1.0000
  C   C77       1.0  0.01684  0.03950  0.35596  1.0000
  H   H130      1.0  0.49558  0.26736  0.41276  1.0000
  H   H131      1.0  0.39787  0.05204  0.43923  1.0000
  H   H132      1.0  0.44653  0.35681  0.44005  1.0000
  H   H133      1.0  0.50229  0.04865  0.44446  1.0000
  H   H134      1.0  0.03980  0.43602  0.39592  1.0000
  H   H135      1.0  0.02297  0.47840  0.43362  1.0000
  S   S31       1.0  0.45300  0.06790  0.46408  1.0000
  Fe  Fe18      1.0  0.15018  0.01833  0.33377  1.0000
  S   S32       1.0  0.33438  0.45239  0.21727  1.0000
  H   H136      1.0  0.49208  0.42751  0.43532  1.0000
  H   H137      1.0  0.02399  0.02418  0.36608  1.0000
  H   H138      1.0  0.49222  0.46250  0.23116  1.0000
  H   H139      1.0  0.35821  0.00905  0.39801  1.0000
  H   H140      1.0  0.44309  0.40652  0.45737  1.0000
  C   C78       1.0  0.35295  0.42003  0.21660  1.0000
  H   H141      1.0  0.00638  0.47495  0.39578  1.0000
  C   C79       1.0  0.46483  0.03066  0.46599  1.0000
  Fe  Fe19      1.0  0.47085  0.22336  0.68234  1.0000
  N   N10       1.0  0.20826  0.06189  0.62457  1.0000
  C   C80       1.0  0.35226  0.29536  0.60684  1.0000
  Fe  Fe20      1.0  0.44515  0.13835  0.68974  1.0000
  S   S33       1.0  0.45264  0.12759  0.66294  1.0000
  C   C81       1.0  0.29638  0.30474  0.60600  1.0000
  C   C82       1.0  0.20267  0.43192  0.51117  1.0000
  Fe  Fe21      1.0  0.42351  0.16305  0.65662  1.0000
  S   S34       1.0  0.38020  0.14483  0.63519  1.0000
  H   H142      1.0  0.32202  0.25895  0.57793  1.0000
  S   S35       1.0  0.41211  0.16974  0.68340  1.0000
  H   H143      1.0  0.28000  0.26511  0.57789  1.0000
  C   C83       1.0  0.22536  0.43917  0.53969  1.0000
  H   H144      1.0  0.23292  0.44708  0.50624  1.0000
  C   C84       1.0  0.01280  0.05430  0.58302  1.0000
  H   H145      1.0  0.02968  0.07125  0.59395  1.0000
  C   C85       1.0  0.03403  0.42529  0.71536  1.0000
  Fe  Fe22      1.0  0.33541  0.47481  0.53151  1.0000
  S   S36       1.0  0.30771  0.43297  0.55355  1.0000
  S   S37       1.0  0.31540  0.46319  0.50484  1.0000
  Fe  Fe23      1.0  0.21296  0.18453  0.60613  1.0000
  S   S38       1.0  0.22119  0.17074  0.58012  1.0000
  S   S39       1.0  0.25698  0.20246  0.62713  1.0000
  Fe  Fe24      1.0  0.13211  0.17308  0.59823  1.0000
  S   S40       1.0  0.13460  0.15953  0.57148  1.0000
  S   S41       1.0  0.07847  0.16654  0.61079  1.0000
  Fe  Fe25      1.0  0.15906  0.12311  0.58204  1.0000
  S   S42       1.0  0.13924  0.06414  0.57181  1.0000
  Fe  Fe26      1.0  0.19628  0.20883  0.57209  1.0000
  S   S43       1.0  0.22527  0.25031  0.55010  1.0000
  S   S44       1.0  0.15298  0.13366  0.60881  1.0000
  S   S45       1.0  0.19174  0.22559  0.59811  1.0000
  C   C86       1.0  0.28524  0.38231  0.55233  1.0000
  C   C87       1.0  0.28797  0.36461  0.53802  1.0000
  C   C88       1.0  0.26926  0.32410  0.53750  1.0000
  C   C89       1.0  0.24774  0.30102  0.55125  1.0000
  C   C90       1.0  0.24475  0.31874  0.56550  1.0000
  C   C91       1.0  0.26360  0.35924  0.56606  1.0000
  H   H146      1.0  0.30465  0.38208  0.52739  1.0000
  H   H147      1.0  0.27161  0.31053  0.52642  1.0000
  H   H148      1.0  0.22756  0.30121  0.57600  1.0000
  H   H149      1.0  0.26114  0.37278  0.57713  1.0000
  C   C92       1.0  0.03776  0.15985  0.58161  1.0000
  C   C93       1.0  0.03613  0.14986  0.59860  1.0000
  H   H150      1.0  0.32400  0.33586  0.57542  1.0000
  H   H151      1.0  0.06563  0.17747  0.57560  1.0000
  H   H152      1.0  0.27457  0.30767  0.59806  1.0000
  C   C94       1.0  0.21281  0.38252  0.52476  1.0000
  C   C95       1.0  0.21335  0.08757  0.60996  1.0000
  H   H153      1.0  0.11012  0.05166  0.60595  1.0000
  N   N11       1.0  0.32396  0.29919  0.59576  1.0000
  C   C96       1.0  0.01401  0.42124  0.70020  1.0000
  H   H154      1.0  0.22512  0.42455  0.55183  1.0000
  C   C97       1.0  0.11006  0.02217  0.58392  1.0000
  C   C98       1.0  0.34851  0.16393  0.63263  1.0000
  C   C99       1.0  0.34164  0.18240  0.64563  1.0000
  C   C100      1.0  0.31394  0.19465  0.64364  1.0000
  C   C101      1.0  0.29307  0.18868  0.62865  1.0000
  C   C102      1.0  0.30103  0.17161  0.61540  1.0000
  C   C103      1.0  0.32839  0.15891  0.61747  1.0000
  H   H155      1.0  0.35709  0.18649  0.65733  1.0000
  H   H156      1.0  0.30822  0.20822  0.65388  1.0000
  H   H157      1.0  0.28594  0.16782  0.60363  1.0000
  H   H158      1.0  0.33396  0.14499  0.60731  1.0000
  H   H159      1.0  0.21087  0.36611  0.53658  1.0000
  H   H160      1.0  0.21635  0.46102  0.54208  1.0000
  H   H161      1.0  0.38578  0.04574  0.68795  1.0000
  H   H162      1.0  0.16583  0.01100  0.61215  1.0000
  H   H163      1.0  0.15595  0.46252  0.66697  1.0000
  H   H164      1.0  0.03356  0.05117  0.57483  1.0000
  H   H165      1.0  0.26869  0.07689  0.62491  1.0000
  S   S46       1.0  0.48766  0.27713  0.69685  1.0000
  C   C104      1.0  0.15941  0.39141  0.53319  1.0000
  H   H166      1.0  0.19383  0.45427  0.51257  1.0000
  H   H167      1.0  0.49467  0.29653  0.66136  1.0000
  C   C105      1.0  0.34463  0.33268  0.58412  1.0000
  S   S47       1.0  0.40423  0.48861  0.47578  1.0000
  H   H168      1.0  0.19488  0.36124  0.51521  1.0000
  C   C106      1.0  0.19414  0.02221  0.61888  1.0000
  H   H169      1.0  0.36594  0.32960  0.57631  1.0000
  C   C107      1.0  0.30237  0.26377  0.58609  1.0000
  H   H170      1.0  0.18386  0.41191  0.50140  1.0000
  H   H171      1.0  0.23620  0.08971  0.60133  1.0000
  H   H172      1.0  0.13953  0.36995  0.52408  1.0000
  H   H173      1.0  0.31166  0.33108  0.61356  1.0000
  H   H174      1.0  0.36079  0.36009  0.59095  1.0000
  H   H175      1.0  0.13942  0.44138  0.69662  1.0000
  C   C108      1.0  0.24590  0.07571  0.63332  1.0000
  H   H176      1.0  0.28004  0.27979  0.61483  1.0000
  H   H177      1.0  0.16772  0.47293  0.71274  1.0000
  H   H178      1.0  0.33733  0.27052  0.61590  1.0000
  C   C109      1.0  0.10081  0.02405  0.60052  1.0000
  H   H179      1.0  0.20487  0.47209  0.67066  1.0000
  H   H180      1.0  0.28722  0.23794  0.59453  1.0000
  H   H181      1.0  0.36942  0.32168  0.61426  1.0000
  H   H182      1.0  0.25697  0.10531  0.63805  1.0000
  H   H183      1.0  0.24338  0.05664  0.64425  1.0000
  C   C110      1.0  0.37979  0.03055  0.69993  1.0000
  H   H184      1.0  0.21516  0.02108  0.61014  1.0000
  H   H185      1.0  0.37311  0.29034  0.59960  1.0000
  N   N12       1.0  0.20004  0.41123  0.52719  1.0000
  H   H186      1.0  0.24366  0.39663  0.52058  1.0000
  H   H187      1.0  0.14888  0.41232  0.53509  1.0000
  H   H188      1.0  0.18603  0.07694  0.60258  1.0000
  H   H189      1.0  0.15653  0.37572  0.54531  1.0000
  H   H190      1.0  0.18867  0.45120  0.70049  1.0000
  H   H191      1.0  0.25608  0.45497  0.53541  1.0000
  S   S48       1.0  0.47947  0.21946  0.65506  1.0000
  H   H192      1.0  0.22184  0.11723  0.61387  1.0000
  H   H193      1.0  0.02917  0.43994  0.68961  1.0000
  C   C111      1.0  0.16935  0.46421  0.69992  1.0000
  Fe  Fe27      1.0  0.37880  0.50105  0.49839  1.0000
  C   C112      1.0  0.45223  0.49689  0.47450  1.0000
  H   H194      1.0  0.18927  0.09184  0.64051  1.0000
  C   C113      1.0  0.39811  0.05070  0.71431  1.0000
  S   S49       1.0  0.43145  0.10089  0.71354  1.0000
  C   C114      1.0  0.17959  0.06217  0.63613  1.0000
  H   H195      1.0  0.17511  0.04323  0.64736  1.0000
  H   H196      1.0  0.50289  0.36982  0.47937  1.0000
  H   H197      1.0  0.47975  0.43096  0.47284  1.0000
  S   S50       1.0  0.50318  0.19275  0.69046  1.0000
  H   H198      1.0  0.12759  0.49260  0.68473  1.0000
  H   H199      1.0  0.46320  0.50079  0.50099  1.0000
  N   N13       1.0  0.18406  0.49764  0.68809  1.0000
  C   C115      1.0  0.18538  0.48486  0.67111  1.0000
  H   H200      1.0  0.15083  0.05181  0.62998  1.0000
  C   C116      1.0  0.47526  0.50272  0.48873  1.0000
  H   H201      1.0  0.44583  0.38052  0.47565  1.0000
  C   C117      1.0  0.46353  0.40334  0.46617  1.0000
  H   H202      1.0  0.42877  0.21080  0.71550  1.0000
  H   H203      1.0  0.01191  0.00887  0.60875  1.0000
  Fe  Fe28      1.0  0.46382  0.38972  0.93892  1.0000
  C   C118      1.0  0.00925  0.18912  0.80322  1.0000
  H   H204      1.0  0.43026  0.01357  0.94960  1.0000
  C   C119      1.0  0.06500  0.24784  0.79320  1.0000
  C   C120      1.0  0.26683  0.32196  0.83715  1.0000
  H   H205      1.0  0.24080  0.29264  0.83796  1.0000
  Fe  Fe29      1.0  0.43593  0.35637  0.90440  1.0000
  S   S51       1.0  0.39520  0.34164  0.88207  1.0000
  S   S52       1.0  0.41975  0.33043  0.93035  1.0000
  Fe  Fe30      1.0  0.17477  0.20779  0.86039  1.0000
  S   S53       1.0  0.19223  0.20292  0.83440  1.0000
  S   S54       1.0  0.21353  0.22359  0.88341  1.0000
  Fe  Fe31      1.0  0.09283  0.18879  0.84923  1.0000
  S   S55       1.0  0.10487  0.18416  0.82245  1.0000
  S   S56       1.0  0.03428  0.17949  0.85730  1.0000
  Fe  Fe32      1.0  0.13262  0.15047  0.83286  1.0000
  S   S57       1.0  0.11456  0.09452  0.81990  1.0000
  Fe  Fe33      1.0  0.16243  0.23678  0.82663  1.0000
  S   S58       1.0  0.19101  0.28591  0.80758  1.0000
  S   S59       1.0  0.11736  0.15231  0.85952  1.0000
  S   S60       1.0  0.14839  0.24471  0.85270  1.0000
  C   C121      1.0  0.41894  0.18838  0.72573  1.0000
  H   H206      1.0  0.02918  0.40366  0.74069  1.0000
  Fe  Fe34      1.0  0.14569  0.44433  0.77166  1.0000
  H   H207      1.0  0.42872  0.26004  0.90537  1.0000
  S   S61       1.0  0.12230  0.39803  0.79230  1.0000
  C   C122      1.0  0.22894  0.35341  0.84141  1.0000
  S   S62       1.0  0.15053  0.43427  0.74449  1.0000
  H   H208      1.0  0.30431  0.39909  0.83366  1.0000
  H   H209      1.0  0.40891  0.24074  0.88540  1.0000
  C   C123      1.0  0.40213  0.24911  0.89749  1.0000
  S   S63       1.0  0.11382  0.47778  0.76674  1.0000
  H   H210      1.0  0.47134  0.47628  0.93784  1.0000
  H   H211      1.0  0.22437  0.37380  0.84895  1.0000
  H   H212      1.0  0.17255  0.01291  0.80721  1.0000
  H   H213      1.0  0.40397  0.04590  0.74098  1.0000
  H   H214      1.0  0.49655  0.22726  0.72195  1.0000
  C   C124      1.0  0.11314  0.05484  0.84897  1.0000
  C   C125      1.0  0.09983  0.05267  0.83255  1.0000
  C   C126      1.0  0.10355  0.02088  0.85834  1.0000
  H   H215      1.0  0.13189  0.08268  0.85428  1.0000
  C   C127      1.0  0.39001  0.03052  0.72979  1.0000
  C   C128      1.0  0.17233  0.31753  0.80368  1.0000
  C   C129      1.0  0.14520  0.31834  0.81441  1.0000
  C   C130      1.0  0.13084  0.34390  0.81097  1.0000
  C   C131      1.0  0.14328  0.36857  0.79675  1.0000
  C   C132      1.0  0.17095  0.36825  0.78620  1.0000
  C   C133      1.0  0.18552  0.34288  0.78971  1.0000
  H   H216      1.0  0.13529  0.29933  0.82534  1.0000
  H   H217      1.0  0.10982  0.34449  0.81928  1.0000
  H   H218      1.0  0.18079  0.38724  0.77525  1.0000
  H   H219      1.0  0.20675  0.34260  0.78142  1.0000
  C   C134      1.0  0.34519  0.30716  0.88285  1.0000
  C   C135      1.0  0.32537  0.29160  0.86788  1.0000
  C   C136      1.0  0.28516  0.26526  0.86789  1.0000
  C   C137      1.0  0.26439  0.25467  0.88290  1.0000
  C   C138      1.0  0.28437  0.26959  0.89792  1.0000
  C   C139      1.0  0.32462  0.29579  0.89791  1.0000
  H   H220      1.0  0.34125  0.30002  0.85620  1.0000
  H   H221      1.0  0.27018  0.25329  0.85632  1.0000
  H   H222      1.0  0.26844  0.26147  0.90958  1.0000
  H   H223      1.0  0.33947  0.30795  0.90949  1.0000
  H   H224      1.0  0.24942  0.35350  0.87328  1.0000
  N   N14       1.0  0.03102  0.23155  0.80452  1.0000
  C   C140      1.0  0.45577  0.23615  0.74615  1.0000
  H   H225      1.0  0.29252  0.31922  0.84103  1.0000
  H   H226      1.0  0.41272  0.16072  0.72010  1.0000
  H   H227      1.0  0.08640  0.23853  0.79711  1.0000
  H   H228      1.0  0.46644  0.25969  0.73634  1.0000
  S   S64       1.0  0.47662  0.41669  0.91305  1.0000
  H   H229      1.0  0.23326  0.36416  0.82816  1.0000
  H   H230      1.0  0.39661  0.27359  0.89481  1.0000
  Fe  Fe35      1.0  0.12238  0.47090  0.73956  1.0000
  C   C141      1.0  0.29805  0.38728  0.84673  1.0000
  N   N15       1.0  0.36857  0.21638  0.90592  1.0000
  C   C142      1.0  0.37816  0.18552  0.90990  1.0000
  C   C143      1.0  0.33428  0.20165  0.89477  1.0000
  C   C144      1.0  0.35994  0.22946  0.92155  1.0000
  H   H231      1.0  0.35353  0.16023  0.91624  1.0000
  H   H232      1.0  0.38544  0.17534  0.89842  1.0000
  H   H233      1.0  0.40389  0.19597  0.91838  1.0000
  H   H234      1.0  0.30816  0.17732  0.90081  1.0000
  H   H235      1.0  0.33962  0.19126  0.88289  1.0000
  H   H236      1.0  0.32679  0.22457  0.89139  1.0000
  H   H237      1.0  0.38533  0.24101  0.93021  1.0000
  H   H238      1.0  0.33488  0.20549  0.92830  1.0000
  H   H239      1.0  0.35263  0.25279  0.91902  1.0000
  H   H240      1.0  0.39096  0.18449  0.73055  1.0000
  H   H241      1.0  0.32376  0.38519  0.85134  1.0000
  H   H242      1.0  0.42870  0.14064  0.74704  1.0000
  H   H243      1.0  0.29557  0.40868  0.85448  1.0000
  C   C145      1.0  0.48511  0.20437  0.73199  1.0000
  H   H244      1.0  0.05622  0.23879  0.78011  1.0000
  C   C146      1.0  0.04429  0.24160  0.82194  1.0000
  H   H245      1.0  0.40665  0.16389  0.75777  1.0000
  C   C147      1.0  0.47345  0.48746  0.95018  1.0000
  H   H246      1.0  0.47813  0.24556  0.75620  1.0000
  H   H247      1.0  0.02804  0.17628  0.80643  1.0000
  S   S65       1.0  0.48390  0.34210  0.90166  1.0000
  H   H248      1.0  0.42878  0.23359  0.75153  1.0000
  H   H249      1.0  0.20153  0.32522  0.84180  1.0000
  H   H250      1.0  0.02102  0.27964  0.80064  1.0000
  H   H251      1.0  0.22946  0.30503  0.86623  1.0000
  H   H252      1.0  0.28045  0.33314  0.87052  1.0000
  H   H253      1.0  0.06426  0.23064  0.82593  1.0000
  H   H254      1.0  0.48069  0.17722  0.72645  1.0000
  H   H255      1.0  0.27055  0.33123  0.82372  1.0000
  N   N16       1.0  0.26220  0.34932  0.84763  1.0000
  C   C148      1.0  0.25505  0.33465  0.86516  1.0000
  Fe  Fe36      1.0  0.47054  0.32000  0.92813  1.0000
  S   S66       1.0  0.46681  0.26381  0.93714  1.0000
  C   C149      1.0  0.50140  0.21886  0.93460  1.0000
  H   H256      1.0  0.49986  0.05903  0.94329  1.0000
  N   N17       1.0  0.44854  0.19940  0.73905  1.0000
  H   H257      1.0  0.02593  0.12968  0.83001  1.0000
  C   C150      1.0  0.01415  0.40086  0.72895  1.0000
  S   S67       1.0  0.08348  0.46173  0.71679  1.0000
  H   H258      1.0  0.01540  0.02856  0.85037  1.0000
  C   C151      1.0  0.49204  0.03751  0.95326  1.0000
  H   H259      1.0  0.35279  0.46573  0.96193  1.0000
  H   H260      1.0  0.06504  0.01461  0.81311  1.0000
  C   C152      1.0  0.07566  0.01640  0.82577  1.0000
  H   H261      1.0  0.06001  0.27335  0.82354  1.0000
  H   H262      1.0  0.11488  0.02276  0.87089  1.0000
  H   H263      1.0  0.43588  0.49209  0.74606  1.0000
  H   H264      1.0  0.45598  0.17580  0.76247  1.0000
  C   C153      1.0  0.43435  0.16864  0.75221  1.0000
  H   H265      1.0  0.08059  0.27993  0.79296  1.0000
  S   S68       1.0  0.26089  0.50736  0.72998  1.0000
  H   H266      1.0  0.01946  0.22875  0.83089  1.0000
  S   S69       1.0  0.20469  0.49728  0.77272  1.0000
  Fe  Fe37      1.0  0.20693  0.49055  0.74519  1.0000
  C   C154      1.0  0.45267  0.01175  0.95687  1.0000
  C   C155      1.0  0.46691  0.46349  0.96430  1.0000
  S   S70       1.0  0.45658  0.41527  0.96268  1.0000
  H   H267      1.0  0.48756  0.20584  0.94642  1.0000
  H   H268      1.0  0.28136  0.50372  0.76472  1.0000
  C   C156      1.0  0.49687  0.24899  0.92735  1.0000
  Fe  Fe38      1.0  0.13760  0.55832  0.01648  1.0000
  S   S71       1.0  0.16107  0.61510  0.02936  1.0000
  S   S72       1.0  0.14408  0.55088  0.98931  1.0000
  Fe  Fe39      1.0  0.37059  0.90533  0.99425  1.0000
  S   S73       1.0  0.39209  0.91108  0.02078  1.0000
  H   H269      1.0  0.38188  0.77921  0.98067  1.0000
  Fe  Fe40      1.0  0.30160  0.82488  0.00115  1.0000
  S   S74       1.0  0.31708  0.82537  0.02817  1.0000
  S   S75       1.0  0.25426  0.77298  0.98810  1.0000
  Fe  Fe41      1.0  0.32911  0.88673  0.02774  1.0000
  S   S76       1.0  0.31536  0.91218  0.04995  1.0000
  Fe  Fe42      1.0  0.37806  0.84925  0.01885  1.0000
  S   S77       1.0  0.40811  0.81938  0.03138  1.0000
  S   S78       1.0  0.30825  0.88433  0.00135  1.0000
  S   S79       1.0  0.36210  0.84561  0.99173  1.0000
  H   H270      1.0  0.28509  0.68672  0.04138  1.0000
  H   H271      1.0  0.10732  0.90988  0.05764  1.0000
  S   S80       1.0  0.49203  0.74543  0.99209  1.0000
  S   S81       1.0  0.08749  0.94215  0.10863  1.0000
  H   H272      1.0  0.08891  0.87838  0.08583  1.0000
  Fe  Fe43      1.0  0.43422  0.61318  0.01952  1.0000
  S   S82       1.0  0.44270  0.63266  0.99264  1.0000
  S   S83       1.0  0.37495  0.57842  0.03151  1.0000
  H   H273      1.0  0.45199  0.72597  0.02405  1.0000
  H   H274      1.0  0.42294  0.53833  0.99156  1.0000
  C   C157      1.0  0.26317  0.52766  0.01574  1.0000
  C   C158      1.0  0.00876  0.89521  0.10576  1.0000
  C   C159      1.0  0.00886  0.89936  0.07091  1.0000
  N   N18       1.0  0.13823  0.88629  0.07158  1.0000
  C   C160      1.0  0.37511  0.99073  0.01478  1.0000
  C   C161      1.0  0.17899  0.89585  0.07462  1.0000
  C   C162      1.0  0.47122  0.98145  0.97910  1.0000
  C   C163      1.0  0.04385  0.91990  0.07975  1.0000
  C   C164      1.0  0.04391  0.91778  0.09721  1.0000
  C   C165      1.0  0.11956  0.88492  0.08763  1.0000
  H   H275      1.0  0.07072  0.93692  0.07303  1.0000
  H   H276      1.0  0.02581  0.64417  0.19067  1.0000
  C   C166      1.0  0.42971  0.79820  0.01976  1.0000
  C   C167      1.0  0.44471  0.81194  0.00374  1.0000
  C   C168      1.0  0.46344  0.79528  0.99524  1.0000
  C   C169      1.0  0.46647  0.76435  0.00256  1.0000
  C   C170      1.0  0.45014  0.74983  0.01831  1.0000
  C   C171      1.0  0.43235  0.76705  0.02697  1.0000
  H   H277      1.0  0.44301  0.83618  0.99817  1.0000
  H   H278      1.0  0.38555  0.97589  0.00648  1.0000
  H   H279      1.0  0.42079  0.75636  0.03937  1.0000
  C   C172      1.0  0.28791  0.93631  0.04910  1.0000
  C   C173      1.0  0.28721  0.95623  0.06314  1.0000
  C   C174      1.0  0.26641  0.97652  0.06284  1.0000
  C   C175      1.0  0.24610  0.97699  0.04847  1.0000
  C   C176      1.0  0.24646  0.95675  0.03447  1.0000
  C   C177      1.0  0.26707  0.93625  0.03482  1.0000
  H   H280      1.0  0.30319  0.95627  0.07426  1.0000
  C   C178      1.0  0.44214  0.98363  0.96976  1.0000
  C   C179      1.0  0.29274  0.69914  0.97923  1.0000
  H   H281      1.0  0.26663  0.92019  0.02411  1.0000
  H   H282      1.0  0.11692  0.82514  0.07173  1.0000
  C   C180      1.0  0.47826  0.51688  0.98206  1.0000
  H   H283      1.0  0.46340  0.95995  0.98908  1.0000
  C   C181      1.0  0.33335  0.56634  0.01927  1.0000
  C   C182      1.0  0.33608  0.58353  0.00349  1.0000
  C   C183      1.0  0.30266  0.57178  0.99360  1.0000
  C   C184      1.0  0.26618  0.54371  0.99968  1.0000
  C   C185      1.0  0.48460  0.54076  0.96792  1.0000
  H   H284      1.0  0.36387  0.60557  0.99880  1.0000
  H   H285      1.0  0.30502  0.58430  0.98118  1.0000
  C   C186      1.0  0.32522  0.73907  0.00276  1.0000
  C   C187      1.0  0.18680  0.65854  0.01764  1.0000
  C   C188      1.0  0.18449  0.65964  0.00020  1.0000
  C   C189      1.0  0.20470  0.69501  0.99129  1.0000
  C   C190      1.0  0.22806  0.72930  0.99972  1.0000
  C   C191      1.0  0.23087  0.72799  0.01713  1.0000
  C   C192      1.0  0.21009  0.69279  0.02606  1.0000
  H   H286      1.0  0.16621  0.63348  0.99361  1.0000
  H   H287      1.0  0.31114  0.75709  0.00083  1.0000
  H   H288      1.0  0.24807  0.75420  0.02379  1.0000
  H   H289      1.0  0.21159  0.69223  0.03956  1.0000
  H   H290      1.0  0.13511  0.91306  0.09398  1.0000
  H   H291      1.0  0.15309  0.94500  0.06609  1.0000
  N   N19       1.0  0.33099  0.72509  0.98675  1.0000
  H   H292      1.0  0.30640  0.71487  0.01144  1.0000
  H   H293      1.0  0.27146  0.51654  0.19956  1.0000
  H   H294      1.0  0.18080  0.87409  0.08308  1.0000
  Fe  Fe44      1.0  0.16876  0.51377  0.99877  1.0000
  S   S84       1.0  0.22542  0.52749  0.98656  1.0000
  N   N20       1.0  0.27303  0.62797  0.04407  1.0000
  C   C193      1.0  0.23796  0.61586  0.05439  1.0000
  C   C194      1.0  0.29944  0.66988  0.04568  1.0000
  C   C195      1.0  0.26155  0.61939  0.02638  1.0000
  C   C196      1.0  0.29308  0.60668  0.04986  1.0000
  H   H295      1.0  0.21607  0.58497  0.05261  1.0000
  H   H296      1.0  0.22336  0.63296  0.05103  1.0000
  H   H297      1.0  0.24512  0.61976  0.06793  1.0000
  H   H298      1.0  0.32645  0.68003  0.03821  1.0000
  S   S85       1.0  0.16497  0.52367  0.02583  1.0000
  H   H299      1.0  0.24520  0.63396  0.02172  1.0000
  H   H300      1.0  0.24225  0.58794  0.02469  1.0000
  H   H301      1.0  0.28720  0.62827  0.01820  1.0000
  H   H302      1.0  0.31931  0.61440  0.04217  1.0000
  H   H303      1.0  0.27356  0.57493  0.04912  1.0000
  H   H304      1.0  0.30282  0.61290  0.06307  1.0000
  H   H305      1.0  0.11924  0.86256  0.09642  1.0000
  H   H306      1.0  0.23055  0.95677  0.02334  1.0000
  H   H307      1.0  0.13015  0.84860  0.05146  1.0000
  H   H308      1.0  0.19594  0.92448  0.08047  1.0000
  C   C197      1.0  0.11686  0.84839  0.06365  1.0000
  H   H309      1.0  0.19404  0.89720  0.06275  1.0000
  H   H310      1.0  0.15222  0.91880  0.04825  1.0000
  H   H311      1.0  0.36608  0.56004  0.97583  1.0000
  Fe  Fe45      1.0  0.48782  0.68979  0.00218  1.0000
  H   H312      1.0  0.08595  0.84033  0.06124  1.0000
  H   H313      1.0  0.30837  0.67738  0.05891  1.0000
  H   H314      1.0  0.20206  0.69581  0.97783  1.0000
  C   C198      1.0  0.39208  0.52199  0.99569  1.0000
  S   S86       1.0  0.47625  0.67138  0.02909  1.0000
  C   C199      1.0  0.13756  0.91617  0.06038  1.0000
  H   H315      1.0  0.35331  0.75740  0.00917  1.0000
  S   S87       1.0  0.47846  0.59311  0.01937  1.0000
  S   S88       1.0  0.19919  0.00153  0.09645  1.0000
  Fe  Fe46      1.0  0.49000  0.61686  0.99292  1.0000
  H   H316      1.0  0.03159  0.54296  0.20789  1.0000
  C   C200      1.0  0.29678  0.53865  0.02543  1.0000
  H   H317      1.0  0.47608  0.80671  0.98306  1.0000
  H   H318      1.0  0.00868  0.89317  0.11928  1.0000
  Fe  Fe47      1.0  0.13871  0.99342  0.09637  1.0000
  H   H319      1.0  0.26648  0.99213  0.07367  1.0000
  C   C201      1.0  0.00894  0.63555  0.20209  1.0000
  S   S89       1.0  0.39238  0.95202  0.97380  1.0000
  H   H320      1.0  0.33667  0.67866  0.99837  1.0000
  H   H321      1.0  0.38168  0.72295  0.99546  1.0000
  H   H322      1.0  0.05454  0.59374  0.21166  1.0000
  S   S90       1.0  0.22016  0.00261  0.04737  1.0000
  H   H323      1.0  0.38628  0.54212  0.00282  1.0000
  S   S91       1.0  0.49414  0.58876  0.96939  1.0000
  C   C202      1.0  0.35269  0.70403  0.98978  1.0000
  H   H324      1.0  0.33664  0.97228  0.98563  1.0000
  H   H325      1.0  0.27417  0.67445  0.98781  1.0000
  H   H326      1.0  0.03169  0.53660  0.98508  1.0000
  H   H327      1.0  0.35131  0.96816  0.02263  1.0000
  C   C203      1.0  0.35332  0.75835  0.97520  1.0000
  C   C204      1.0  0.00676  0.98610  0.08292  1.0000
  H   H328      1.0  0.30373  0.96663  0.00199  1.0000
  H   H329      1.0  0.02216  0.97945  0.09317  1.0000
  H   H330      1.0  0.48040  0.52808  0.99440  1.0000
  H   H331      1.0  0.27645  0.71480  0.97625  1.0000
  H   H332      1.0  0.29450  0.52517  0.03763  1.0000
  H   H333      1.0  0.35792  0.69337  0.97794  1.0000
  C   C205      1.0  0.37186  0.53874  0.96965  1.0000
  H   H334      1.0  0.00899  0.90091  0.05738  1.0000
  C   C206      1.0  0.00919  0.52231  0.97583  1.0000
  C   C207      1.0  0.32851  0.98841  0.99433  1.0000
  H   H335      1.0  0.33721  0.77427  0.97235  1.0000
  H   H336      1.0  0.31779  0.00498  0.98662  1.0000
  H   H337      1.0  0.29587  0.68712  0.96736  1.0000
  Fe  Fe48      1.0  0.17156  0.95604  0.32637  1.0000
  S   S92       1.0  0.15871  0.93157  0.35268  1.0000
  S   S93       1.0  0.18895  0.93321  0.30436  1.0000
  H   H338      1.0  0.34095  0.96006  0.40520  1.0000
  C   C208      1.0  0.05506  0.58726  0.24519  1.0000
  H   H339      1.0  0.08938  0.54249  0.22081  1.0000
  H   H340      1.0  0.26422  0.85258  0.25249  1.0000
  Fe  Fe49      1.0  0.10576  0.93893  0.35026  1.0000
  S   S94       1.0  0.04636  0.89363  0.35952  1.0000
  H   H341      1.0  0.09127  0.82632  0.30039  1.0000
  S   S95       1.0  0.11647  0.95895  0.32350  1.0000
  S   S96       1.0  0.38438  0.58571  0.27994  1.0000
  Fe  Fe50      1.0  0.20642  0.73828  0.24878  1.0000
  S   S97       1.0  0.19590  0.71529  0.27518  1.0000
  S   S98       1.0  0.26647  0.77752  0.23816  1.0000
  Fe  Fe51      1.0  0.11905  0.69630  0.24023  1.0000
  S   S99       1.0  0.10276  0.67107  0.26630  1.0000
  Fe  Fe52      1.0  0.19040  0.99376  0.36036  1.0000
  Fe  Fe53      1.0  0.14776  0.73001  0.27474  1.0000
  S   S100      1.0  0.13902  0.75626  0.29794  1.0000
  Fe  Fe54      1.0  0.15266  0.65928  0.26403  1.0000
  S   S101      1.0  0.14820  0.60264  0.27259  1.0000
  S   S102      1.0  0.16076  0.75654  0.24880  1.0000
  S   S103      1.0  0.16645  0.68111  0.23760  1.0000
  Fe  Fe55      1.0  0.47684  0.83608  0.26495  1.0000
  S   S104      1.0  0.47585  0.82189  0.23802  1.0000
  S   S105      1.0  0.42122  0.82096  0.27865  1.0000
  H   H342      1.0  0.48872  0.63708  0.46080  1.0000
  H   H343      1.0  0.07321  0.61706  0.23996  1.0000
  C   C209      1.0  0.30892  0.78511  0.24896  1.0000
  C   C210      1.0  0.34521  0.80812  0.24132  1.0000
  C   C211      1.0  0.37984  0.81804  0.25011  1.0000
  C   C212      1.0  0.37840  0.80557  0.26674  1.0000
  C   C213      1.0  0.34211  0.78200  0.27432  1.0000
  C   C214      1.0  0.30747  0.77131  0.26539  1.0000
  H   H344      1.0  0.04184  0.77145  0.31651  1.0000
  H   H345      1.0  0.40763  0.83647  0.24419  1.0000
  H   H346      1.0  0.34085  0.77225  0.28718  1.0000
  H   H347      1.0  0.27980  0.75328  0.27139  1.0000
  C   C215      1.0  0.32983  0.64853  0.28128  1.0000
  C   C216      1.0  0.34623  0.98884  0.40905  1.0000
  C   C217      1.0  0.41488  0.62704  0.26771  1.0000
  C   C218      1.0  0.43465  0.66281  0.27541  1.0000
  C   C219      1.0  0.45877  0.69648  0.26604  1.0000
  C   C220      1.0  0.46400  0.69451  0.24894  1.0000
  C   C221      1.0  0.44466  0.65866  0.24127  1.0000
  C   C222      1.0  0.41979  0.62505  0.25058  1.0000
  H   H348      1.0  0.43114  0.66450  0.28868  1.0000
  S   S106      1.0  0.27762  0.50939  0.27547  1.0000
  H   H349      1.0  0.40513  0.59754  0.24458  1.0000
  C   C223      1.0  0.21066  0.55029  0.24460  1.0000
  H   H350      1.0  0.33739  0.67561  0.28780  1.0000
  C   C224      1.0  0.18009  0.55564  0.26969  1.0000
  C   C225      1.0  0.17419  0.58441  0.26190  1.0000
  C   C226      1.0  0.18742  0.59667  0.24554  1.0000
  C   C227      1.0  0.20507  0.57926  0.23684  1.0000
  H   H351      1.0  0.34660  0.81894  0.22863  1.0000
  H   H352      1.0  0.18315  0.61879  0.23939  1.0000
  H   H353      1.0  0.10334  0.55852  0.24179  1.0000
  H   H354      1.0  0.23307  0.86185  0.26530  1.0000
  N   N21       1.0  0.37311  0.00295  0.42345  1.0000
  H   H355      1.0  0.32822  0.97280  0.44181  1.0000
  H   H356      1.0  0.20272  0.51652  0.26723  1.0000
  H   H357      1.0  0.11110  0.59293  0.22524  1.0000
  C   C228      1.0  0.17543  0.88410  0.30283  1.0000
  C   C229      1.0  0.16607  0.85971  0.31697  1.0000
  C   C230      1.0  0.15524  0.82063  0.31528  1.0000
  C   C231      1.0  0.15374  0.80568  0.29947  1.0000
  C   C232      1.0  0.16317  0.83009  0.28531  1.0000
  C   C233      1.0  0.17420  0.86923  0.28701  1.0000
  H   H358      1.0  0.16748  0.87102  0.32922  1.0000
  H   H359      1.0  0.14810  0.80188  0.32629  1.0000
  H   H360      1.0  0.16145  0.81869  0.27306  1.0000
  H   H361      1.0  0.18127  0.88797  0.27601  1.0000
  H   H362      1.0  0.16986  0.54591  0.28233  1.0000
  C   C234      1.0  0.25253  0.81398  0.28170  1.0000
  H   H363      1.0  0.40770  0.97795  0.41587  1.0000
  C   C235      1.0  0.28580  0.65662  0.26247  1.0000
  H   H364      1.0  0.33804  0.89647  0.27446  1.0000
  H   H365      1.0  0.32900  0.85427  0.28676  1.0000
  N   N22       1.0  0.27747  0.85594  0.27876  1.0000
  S   S107      1.0  0.23163  0.52804  0.23318  1.0000
  H   H366      1.0  0.05628  0.83438  0.28916  1.0000
  S   S108      1.0  0.49639  0.73590  0.23717  1.0000
  H   H367      1.0  0.31757  0.98630  0.41197  1.0000
  C   C236      1.0  0.07278  0.84017  0.33107  1.0000
  C   C237      1.0  0.09052  0.56325  0.23006  1.0000
  Fe  Fe56      1.0  0.33940  0.53160  0.26745  1.0000
  C   C238      1.0  0.02778  0.64937  0.21744  1.0000
  H   H368      1.0  0.47383  0.72374  0.27215  1.0000
  H   H369      1.0  0.24523  0.86983  0.29598  1.0000
  H   H370      1.0  0.09425  0.87272  0.30076  1.0000
  H   H371      1.0  0.04140  0.87843  0.31496  1.0000
  H   H372      1.0  0.30512  0.62421  0.28809  1.0000
  H   H373      1.0  0.29169  0.68393  0.26836  1.0000
  C   C239      1.0  0.02351  0.84641  0.31535  1.0000
  C   C240      1.0  0.27560  0.87654  0.29344  1.0000
  H   H374      1.0  0.02618  0.58389  0.24831  1.0000
  H   H375      1.0  0.01988  0.64825  0.24401  1.0000
  C   C241      1.0  0.02379  0.78591  0.31612  1.0000
  C   C242      1.0  0.31806  0.86489  0.27609  1.0000
  H   H376      1.0  0.26265  0.80323  0.29260  1.0000
  N   N23       1.0  0.04842  0.82836  0.31585  1.0000
  H   H377      1.0  0.26008  0.63250  0.26887  1.0000
  H   H378      1.0  0.03468  0.92907  0.32915  1.0000
  C   C243      1.0  0.19876  0.53900  0.26116  1.0000
  H   H379      1.0  0.29340  0.90838  0.29156  1.0000
  C   C244      1.0  0.07362  0.84102  0.30089  1.0000
  N   N24       1.0  0.32004  0.65088  0.26354  1.0000
  C   C245      1.0  0.35350  0.68370  0.25505  1.0000
  C   C246      1.0  0.31102  0.61459  0.25541  1.0000
  H   H380      1.0  0.27730  0.65807  0.24925  1.0000
  H   H381      1.0  0.05471  0.83227  0.34260  1.0000
  H   H382      1.0  0.36137  0.71159  0.26096  1.0000
  H   H383      1.0  0.34709  0.68648  0.24165  1.0000
  H   H384      1.0  0.37976  0.68018  0.25553  1.0000
  H   H385      1.0  0.33632  0.60949  0.25589  1.0000
  H   H386      1.0  0.30285  0.61483  0.24205  1.0000
  H   H387      1.0  0.28631  0.58921  0.26169  1.0000
  H   H388      1.0  0.25238  0.79783  0.27062  1.0000
  H   H389      1.0  0.32067  0.85108  0.26468  1.0000
  C   C247      1.0  0.26357  0.86812  0.26374  1.0000
  H   H390      1.0  0.28630  0.86822  0.30492  1.0000
  H   H391      1.0  0.06890  0.58485  0.25708  1.0000
  H   H392      1.0  0.35512  0.64352  0.28253  1.0000
  H   H393      1.0  0.28182  0.89960  0.26101  1.0000
  H   H394      1.0  0.44885  0.65688  0.22807  1.0000
  C   C248      1.0  0.35650  0.97578  0.43790  1.0000
  H   H395      1.0  0.22181  0.80613  0.28413  1.0000
  H   H396      1.0  0.35153  0.94657  0.43497  1.0000
  H   H397      1.0  0.21438  0.58825  0.22405  1.0000
  C   C249      1.0  0.49768  0.99705  0.45633  1.0000
  C   C250      1.0  0.02562  0.51930  0.24007  1.0000
  S   S109      1.0  0.32613  0.53012  0.24026  1.0000
  H   H398      1.0  0.09241  0.87196  0.33110  1.0000
  N   N25       1.0  0.05157  0.55850  0.23312  1.0000
  H   H399      1.0  0.09125  0.82631  0.33215  1.0000
  S   S110      1.0  0.13576  0.99844  0.36042  1.0000
  C   C251      1.0  0.03526  0.56447  0.21727  1.0000
  H   H400      1.0  0.03703  0.51426  0.25216  1.0000
  S   S111      1.0  0.07876  0.68075  0.21760  1.0000
  H   H401      1.0  0.37647  0.98593  0.44890  1.0000
  C   C252      1.0  0.41082  0.00640  0.41889  1.0000
  C   C253      1.0  0.00677  0.91038  0.33484  1.0000
  C   C254      1.0  0.00580  0.63766  0.23213  1.0000
  H   H402      1.0  0.00629  0.56213  0.21925  1.0000
  Fe  Fe57      1.0  0.08364  0.61134  0.49490  1.0000
  S   S112      1.0  0.07028  0.58436  0.52070  1.0000
  S   S113      1.0  0.49432  0.93307  0.47155  1.0000
  Fe  Fe58      1.0  0.15669  0.68323  0.50685  1.0000
  S   S114      1.0  0.14752  0.66162  0.53345  1.0000
  S   S115      1.0  0.20643  0.74186  0.49945  1.0000
  Fe  Fe59      1.0  0.13451  0.60536  0.52240  1.0000
  S   S116      1.0  0.16094  0.57250  0.53543  1.0000
  Fe  Fe60      1.0  0.08466  0.64343  0.52898  1.0000
  S   S117      1.0  0.04626  0.64937  0.54813  1.0000
  S   S118      1.0  0.14710  0.62813  0.49586  1.0000
  S   S119      1.0  0.09469  0.66939  0.50315  1.0000
  S   S120      1.0  0.04220  0.91177  0.61577  1.0000
  Fe  Fe61      1.0  0.42762  0.83466  0.52065  1.0000
  S   S121      1.0  0.43918  0.82799  0.49397  1.0000
  S   S122      1.0  0.37042  0.79496  0.53347  1.0000
  H   H403      1.0  0.45390  0.58860  0.46733  1.0000
  H   H404      1.0  0.21509  0.54746  0.54543  1.0000
  S   S123      1.0  0.47585  0.82605  0.53129  1.0000
  S   S124      1.0  0.46452  0.89953  0.51989  1.0000
  Fe  Fe62      1.0  0.39030  0.56055  0.52382  1.0000
  S   S125      1.0  0.42903  0.61706  0.53613  1.0000
  S   S126      1.0  0.37460  0.55526  0.49672  1.0000
  C   C255      1.0  0.47475  0.73169  0.50714  1.0000
  H   H405      1.0  0.23588  0.55269  0.68449  1.0000
  C   C256      1.0  0.46144  0.69540  0.53343  1.0000
  C   C257      1.0  0.44366  0.66068  0.52489  1.0000
  C   C258      1.0  0.43944  0.66150  0.50755  1.0000
  C   C259      1.0  0.45581  0.69695  0.49863  1.0000
  H   H406      1.0  0.18965  0.00188  0.62957  1.0000
  C   C260      1.0  0.21460  0.54864  0.53191  1.0000
  C   C261      1.0  0.09690  0.98605  0.57688  1.0000
  C   C262      1.0  0.01803  0.69088  0.56367  1.0000
  C   C263      1.0  0.06708  0.95387  0.60320  1.0000
  H   H407      1.0  0.10403  0.98443  0.56405  1.0000
  Fe  Fe63      1.0  0.31334  0.51846  0.50562  1.0000
  C   C264      1.0  0.07517  0.95196  0.58644  1.0000
  H   H408      1.0  0.19632  0.50934  0.66183  1.0000
  C   C265      1.0  0.23841  0.53880  0.52278  1.0000
  H   H409      1.0  0.06590  0.92428  0.58100  1.0000
  C   C266      1.0  0.25256  0.75456  0.50795  1.0000
  C   C267      1.0  0.25634  0.73363  0.52151  1.0000
  C   C268      1.0  0.29271  0.74642  0.52919  1.0000
  C   C269      1.0  0.32583  0.77931  0.52298  1.0000
  C   C270      1.0  0.32243  0.79944  0.50901  1.0000
  C   C271      1.0  0.28572  0.78739  0.50168  1.0000
  H   H410      1.0  0.23114  0.70813  0.52638  1.0000
  H   H411      1.0  0.29517  0.73094  0.54007  1.0000
  H   H412      1.0  0.34783  0.82490  0.50416  1.0000
  H   H413      1.0  0.28302  0.80368  0.49117  1.0000
  C   C272      1.0  0.19030  0.56021  0.52363  1.0000
  S   S127      1.0  0.32872  0.52762  0.53264  1.0000
  H   H414      1.0  0.01221  0.62685  0.49240  1.0000
  H   H415      1.0  0.00981  0.64204  0.51305  1.0000
  H   H416      1.0  0.05723  0.71200  0.52468  1.0000
  C   C273      1.0  0.18972  0.56160  0.50616  1.0000
  C   C274      1.0  0.21327  0.55146  0.49705  1.0000
  C   C275      1.0  0.47631  0.73082  0.52459  1.0000
  N   N26       1.0  0.32832  0.66336  0.51520  1.0000
  H   H417      1.0  0.17067  0.56983  0.49965  1.0000
  H   H418      1.0  0.07355  0.99153  0.62318  1.0000
  H   H419      1.0  0.42472  0.63492  0.50097  1.0000
  C   C276      1.0  0.48121  0.59156  0.49835  1.0000
  C   C277      1.0  0.03572  0.68765  0.54919  1.0000
  C   C278      1.0  0.01629  0.74690  0.55171  1.0000
  S   S128      1.0  0.49965  0.77556  0.49578  1.0000
  C   C279      1.0  0.35357  0.99060  0.70105  1.0000
  H   H420      1.0  0.31217  0.60736  0.52600  1.0000
  H   H421      1.0  0.46474  0.60228  0.50553  1.0000
  Fe  Fe64      1.0  0.48036  0.89213  0.49393  1.0000
  H   H422      1.0  0.01527  0.98890  0.58950  1.0000
  H   H423      1.0  0.33954  0.97524  0.68985  1.0000
  H   H424      1.0  0.04006  0.76401  0.52685  1.0000
  H   H425      1.0  0.43787  0.94957  0.69894  1.0000
  H   H426      1.0  0.32864  0.67052  0.48847  1.0000
  H   H427      1.0  0.38794  0.70895  0.51654  1.0000
  C   C280      1.0  0.23774  0.54015  0.50531  1.0000
  N   N27       1.0  0.17034  0.77820  0.54204  1.0000
  C   C281      1.0  0.15250  0.77025  0.52524  1.0000
  C   C282      1.0  0.18149  0.81809  0.54644  1.0000
  C   C283      1.0  0.20536  0.77376  0.54202  1.0000
  C   C284      1.0  0.14203  0.75077  0.55442  1.0000
  H   H428      1.0  0.14371  0.74035  0.52159  1.0000
  H   H429      1.0  0.17329  0.78987  0.51550  1.0000
  H   H430      1.0  0.12617  0.77361  0.52469  1.0000
  H   H431      1.0  0.19507  0.82506  0.55906  1.0000
  H   H432      1.0  0.20285  0.83947  0.53733  1.0000
  H   H433      1.0  0.15574  0.82248  0.54653  1.0000
  H   H434      1.0  0.19797  0.74400  0.53879  1.0000
  H   H435      1.0  0.21998  0.77981  0.55443  1.0000
  H   H436      1.0  0.22704  0.79351  0.53258  1.0000
  H   H437      1.0  0.15482  0.75508  0.56718  1.0000
  H   H438      1.0  0.13191  0.72026  0.55119  1.0000
  H   H439      1.0  0.11569  0.75408  0.55508  1.0000
  C   C285      1.0  0.45703  0.97286  0.48096  1.0000
  H   H440      1.0  0.28411  0.67765  0.50791  1.0000
  H   H441      1.0  0.35447  0.72399  0.50872  1.0000
  H   H442      1.0  0.36319  0.64133  0.52685  1.0000
  Fe  Fe65      1.0  0.48911  0.82265  0.50462  1.0000
  H   H443      1.0  0.35540  0.71341  0.53054  1.0000
  S   S129      1.0  0.04301  0.58755  0.47267  1.0000
  H   H444      1.0  0.45413  0.69755  0.48513  1.0000
  H   H445      1.0  0.01165  0.67040  0.57398  1.0000
  H   H446      1.0  0.38924  0.93250  0.70622  1.0000
  H   H447      1.0  0.26597  0.62835  0.51470  1.0000
  H   H448      1.0  0.31098  0.62162  0.49589  1.0000
  H   H449      1.0  0.44425  0.95176  0.49109  1.0000
  C   C286      1.0  0.33373  0.63832  0.52774  1.0000
  C   C287      1.0  0.03403  0.74371  0.53719  1.0000
  C   C288      1.0  0.07995  0.98999  0.61023  1.0000
  H   H450      1.0  0.46418  0.69487  0.54689  1.0000
  H   H451      1.0  0.24394  0.51529  0.69363  1.0000
  C   C289      1.0  0.04384  0.71429  0.53594  1.0000
  H   H452      1.0  0.21239  0.55228  0.48352  1.0000
  H   H453      1.0  0.28418  0.66574  0.52971  1.0000
  H   H454      1.0  0.33031  0.64558  0.54069  1.0000
  C   C290      1.0  0.33274  0.65234  0.49826  1.0000
  H   H455      1.0  0.36216  0.65571  0.49649  1.0000
  C   C291      1.0  0.28896  0.65857  0.51695  1.0000
  C   C292      1.0  0.35783  0.70412  0.51785  1.0000
  C   C293      1.0  0.15787  0.51429  0.68820  1.0000
  C   C294      1.0  0.47393  0.61817  0.47189  1.0000
  H   H456      1.0  0.15619  0.52414  0.70088  1.0000
  H   H457      1.0  0.25697  0.52996  0.52928  1.0000
  C   C295      1.0  0.48168  0.96974  0.46955  1.0000
  C   C296      1.0  0.44862  0.00323  0.47915  1.0000
  H   H458      1.0  0.45558  0.62882  0.47750  1.0000
  H   H459      1.0  0.16784  0.53952  0.67939  1.0000
  C   C297      1.0  0.22357  0.52711  0.69318  1.0000
  C   C298      1.0  0.42047  0.94829  0.70996  1.0000
  H   H460      1.0  0.42754  0.97834  0.71266  1.0000
  S   S130      1.0  0.26632  0.52713  0.49338  1.0000
  H   H461      1.0  0.02354  0.51917  0.49373  1.0000
  C   C299      1.0  0.00854  0.72046  0.56498  1.0000
  H   H462      1.0  0.45980  0.56229  0.49408  1.0000
  H   H463      1.0  0.49031  0.75742  0.53124  1.0000
  N   N28       1.0  0.50229  0.61781  0.48408  1.0000
  H   H464      1.0  0.22349  0.53745  0.70593  1.0000
  H   H465      1.0  0.48283  0.52803  0.71406  1.0000
  H   H466      1.0  0.50138  0.58831  0.50726  1.0000
  H   H467      1.0  0.42940  0.00546  0.48798  1.0000
  H   H468      1.0  0.43254  0.88737  0.70994  1.0000
  S   S131      1.0  0.39932  0.50891  0.52513  1.0000
  C   C300      1.0  0.00885  0.53811  0.47063  1.0000
  Fe  Fe66      1.0  0.03324  0.82778  0.82632  1.0000
  S   S132      1.0  0.05643  0.83979  0.85257  1.0000
  S   S133      1.0  0.06233  0.82182  0.80327  1.0000
  Fe  Fe67      1.0  0.03648  0.88394  0.85190  1.0000
  S   S134      1.0  0.07159  0.94277  0.86304  1.0000
  H   H469      1.0  0.35252  0.71909  0.76054  1.0000
  Fe  Fe68      1.0  0.26436  0.85465  0.77513  1.0000
  S   S135      1.0  0.23717  0.84247  0.74960  1.0000
  S   S136      1.0  0.23961  0.86548  0.79841  1.0000
  Fe  Fe69      1.0  0.33200  0.84356  0.76407  1.0000
  C   C301      1.0  0.08015  0.98460  0.85145  1.0000
  S   S137      1.0  0.38744  0.84449  0.77245  1.0000
  Fe  Fe70      1.0  0.29833  0.88030  0.74010  1.0000
  Fe  Fe71      1.0  0.48744  0.72795  0.74452  1.0000
  Fe  Fe72      1.0  0.25135  0.79419  0.74993  1.0000
  H   H470      1.0  0.18534  0.99727  0.82647  1.0000
  S   S138      1.0  0.32474  0.89600  0.76569  1.0000
  S   S139      1.0  0.27442  0.80385  0.77609  1.0000
  Fe  Fe73      1.0  0.46939  0.65062  0.75973  1.0000
  H   H471      1.0  0.09398  0.68424  0.79953  1.0000
  S   S140      1.0  0.42124  0.59281  0.76901  1.0000
  H   H472      1.0  0.35249  0.52827  0.95855  1.0000
  H   H473      1.0  0.42017  0.50981  0.72833  1.0000
  S   S141      1.0  0.19840  0.58768  0.77815  1.0000
  C   C302      1.0  0.37668  0.57066  0.75808  1.0000
  C   C303      1.0  0.34289  0.54369  0.76654  1.0000
  H   H474      1.0  0.08514  0.71860  0.78796  1.0000
  S   S142      1.0  0.17947  0.52653  0.73830  1.0000
  N   N29       1.0  0.14409  0.72959  0.78696  1.0000
  H   H475      1.0  0.42124  0.87381  0.73161  1.0000
  H   H476      1.0  0.34434  0.53730  0.77969  1.0000
  H   H477      1.0  0.15173  0.73807  0.81347  1.0000
  N   N30       1.0  0.33330  0.65854  0.75881  1.0000
  C   C304      1.0  0.20876  0.69436  0.75019  1.0000
  C   C305      1.0  0.34389  0.66135  0.74099  1.0000
  C   C306      1.0  0.15660  0.75486  0.80153  1.0000
  C   C307      1.0  0.20297  0.62819  0.76673  1.0000
  C   C308      1.0  0.22859  0.66509  0.77254  1.0000
  C   C309      1.0  0.23211  0.69809  0.76410  1.0000
  C   C310      1.0  0.12478  0.92495  0.82689  1.0000
  H   H478      1.0  0.24563  0.66812  0.78368  1.0000
  H   H479      1.0  0.25211  0.72630  0.76865  1.0000
  C   C311      1.0  0.40294  0.81606  0.76202  1.0000
  C   C312      1.0  0.38696  0.79997  0.74663  1.0000
  Fe  Fe74      1.0  0.17366  0.53010  0.76572  1.0000
  H   H480      1.0  0.48716  0.54427  0.94100  1.0000
  C   C313      1.0  0.44753  0.79033  0.76030  1.0000
  C   C314      1.0  0.43307  0.81092  0.76888  1.0000
  H   H481      1.0  0.49831  0.53541  0.76009  1.0000
  C   C315      1.0  0.18086  0.62441  0.75238  1.0000
  H   H482      1.0  0.32021  0.65949  0.73269  1.0000
  H   H483      1.0  0.44552  0.82323  0.78080  1.0000
  H   H484      1.0  0.10464  0.93087  0.83414  1.0000
  H   H485      1.0  0.14477  0.73540  0.76011  1.0000
  H   H486      1.0  0.35719  0.97550  0.74291  1.0000
  C   C316      1.0  0.19046  0.85374  0.79957  1.0000
  C   C317      1.0  0.17420  0.85235  0.81522  1.0000
  C   C318      1.0  0.13476  0.84198  0.81663  1.0000
  C   C319      1.0  0.11148  0.83343  0.80233  1.0000
  C   C320      1.0  0.12777  0.83487  0.78669  1.0000
  C   C321      1.0  0.16714  0.84507  0.78529  1.0000
  H   H487      1.0  0.19209  0.85884  0.82633  1.0000
  H   H488      1.0  0.12240  0.84046  0.82878  1.0000
  H   H489      1.0  0.10995  0.82848  0.77556  1.0000
  H   H490      1.0  0.17948  0.84649  0.77316  1.0000
  C   C322      1.0  0.49755  0.56033  0.75378  1.0000
  C   C323      1.0  0.06542  0.98246  0.83528  1.0000
  C   C324      1.0  0.43257  0.77571  0.74459  1.0000
  H   H491      1.0  0.04665  0.95476  0.82999  1.0000
  H   H492      1.0  0.37063  0.68921  0.73796  1.0000
  H   H493      1.0  0.14815  0.92751  0.83558  1.0000
  H   H494      1.0  0.27267  0.61826  0.75462  1.0000
  S   S143      1.0  0.48048  0.70589  0.77111  1.0000
  C   C325      1.0  0.15300  0.75341  0.77141  1.0000
  H   H495      1.0  0.18815  0.77670  0.80082  1.0000
  H   H496      1.0  0.16528  0.65434  0.73349  1.0000
  H   H497      1.0  0.47603  0.93662  0.73998  1.0000
  N   N31       1.0  0.14068  0.95161  0.81225  1.0000
  H   H498      1.0  0.08714  0.95166  0.80709  1.0000
  N   N32       1.0  0.47713  0.54961  0.73755  1.0000
  C   C326      1.0  0.10848  0.94567  0.80085  1.0000
  H   H499      1.0  0.09145  0.68326  0.77709  1.0000
  H   H500      1.0  0.18206  0.96422  0.79256  1.0000
  S   S144      1.0  0.01767  0.87496  0.82515  1.0000
  H   H501      1.0  0.04788  0.64503  0.90993  1.0000
  C   C327      1.0  0.10176  0.70269  0.78794  1.0000
  H   H502      1.0  0.30210  0.59637  0.75953  1.0000
  H   H503      1.0  0.15904  0.68892  0.79840  1.0000
  H   H504      1.0  0.01072  0.57368  0.91430  1.0000
  C   C328      1.0  0.16077  0.99184  0.81792  1.0000
  C   C329      1.0  0.32604  0.69051  0.76263  1.0000
  C   C330      1.0  0.29775  0.62121  0.76227  1.0000
  H   H505      1.0  0.14027  0.77091  0.80229  1.0000
  C   C331      1.0  0.47657  0.58346  0.72978  1.0000
  H   H506      1.0  0.09227  0.91528  0.79661  1.0000
  H   H507      1.0  0.49922  0.51144  0.73194  1.0000
  H   H508      1.0  0.28873  0.61804  0.77560  1.0000
  C   C332      1.0  0.16504  0.70744  0.78691  1.0000
  H   H509      1.0  0.18464  0.77430  0.77038  1.0000
  C   C333      1.0  0.36565  0.66121  0.76929  1.0000
  H   H510      1.0  0.40027  0.59903  0.73434  1.0000
  H   H511      1.0  0.41389  0.95950  0.74261  1.0000
  H   H512      1.0  0.39042  0.76911  0.72569  1.0000
  C   C334      1.0  0.16849  0.94380  0.80337  1.0000
  H   H513      1.0  0.15653  0.68828  0.77599  1.0000
  S   S145      1.0  0.45166  0.75246  0.73272  1.0000
  H   H514      1.0  0.31716  0.68882  0.77589  1.0000
  H   H515      1.0  0.19705  0.72702  0.78617  1.0000
  H   H516      1.0  0.33755  0.56451  0.71927  1.0000
  H   H517      1.0  0.38455  0.87228  0.71764  1.0000
  H   H518      1.0  0.37196  0.63752  0.76676  1.0000
  C   C335      1.0  0.48238  0.52596  0.95200  1.0000
  H   H519      1.0  0.40885  0.91420  0.75017  1.0000
  H   H520      1.0  0.36360  0.80336  0.74127  1.0000
  S   S146      1.0  0.47271  0.67148  0.73332  1.0000
  C   C336      1.0  0.37451  0.57850  0.74105  1.0000
  C   C337      1.0  0.41609  0.88893  0.72075  1.0000
  C   C338      1.0  0.30508  0.53202  0.74101  1.0000
  H   H521      1.0  0.19228  0.94617  0.81177  1.0000
  S   S147      1.0  0.20836  0.73487  0.74085  1.0000
  H   H522      1.0  0.13736  0.77023  0.77085  1.0000
  H   H523      1.0  0.03740  0.65100  0.93105  1.0000
  H   H524      1.0  0.47959  0.98079  0.73173  1.0000
  S   S148      1.0  0.30956  0.83049  0.73790  1.0000
  C   C339      1.0  0.30712  0.52477  0.75809  1.0000
  H   H525      1.0  0.16087  0.59601  0.74788  1.0000
  H   H526      1.0  0.48297  0.57063  0.76244  1.0000
  H   H527      1.0  0.30245  0.68999  0.75464  1.0000
  C   C340      1.0  0.18341  0.65744  0.74426  1.0000
  C   C341      1.0  0.33891  0.55885  0.73250  1.0000
  H   H528      1.0  0.34977  0.63777  0.73770  1.0000
  H   H529      1.0  0.35881  0.65930  0.78283  1.0000
  C   C342      1.0  0.40217  0.78046  0.73783  1.0000
  H   H530      1.0  0.39295  0.68901  0.76687  1.0000
  H   H531      1.0  0.47104  0.78687  0.76559  1.0000
  H   H532      1.0  0.10808  0.89444  0.82303  1.0000
  H   H533      1.0  0.37367  0.91514  0.73597  1.0000
  H   H534      1.0  0.15385  0.91416  0.79839  1.0000
  C   C343      1.0  0.02626  0.64700  0.91798  1.0000
  H   H535      1.0  0.02519  0.67353  0.91398  1.0000
  C   C344      1.0  0.43671  0.51826  0.74027  1.0000
  H   H536      1.0  0.42069  0.52730  0.74876  1.0000
  H   H537      1.0  0.46098  0.59363  0.73784  1.0000
  N   N33       1.0  0.42792  0.92928  0.72461  1.0000
  H   H538      1.0  0.11932  0.96494  0.78954  1.0000
  H   H539      1.0  0.46175  0.57675  0.71742  1.0000
  C   C345      1.0  0.46975  0.95017  0.72884  1.0000
  C   C346      1.0  0.49761  0.53660  0.72639  1.0000
  C   C347      1.0  0.40519  0.92958  0.73900  1.0000
  H   H540      1.0  0.35906  0.74905  0.96312  1.0000
  H   H541      1.0  0.48782  0.95015  0.71832  1.0000
  C   C348      1.0  0.36360  0.99060  0.73091  1.0000
  S   S149      1.0  0.31313  0.92001  0.71710  1.0000
  H   H542      1.0  0.14072  0.99850  0.82490  1.0000
  H   H543      1.0  0.40253  0.55459  0.96508  1.0000
  C   C349      1.0  0.34529  0.97046  0.71652  1.0000
  Fe  Fe75      1.0  0.93236  0.18831  0.10616  1.0000
  S   S150      1.0  0.91162  0.17799  0.07952  1.0000
  S   S151      1.0  0.90620  0.20354  0.12769  1.0000
  C   C350      1.0  0.87002  0.02704  0.08081  1.0000
  H   H544      1.0  0.98635  0.38437  0.03625  1.0000
  Fe  Fe76      1.0  0.97533  0.21113  0.07297  1.0000
  S   S152      1.0  0.80214  0.48752  0.19402  1.0000
  Fe  Fe77      1.0  0.91998  0.12613  0.08175  1.0000
  S   S153      1.0  0.87976  0.06965  0.06957  1.0000
  H   H545      1.0  0.70155  0.41088  0.19253  1.0000
  S   S154      1.0  0.93525  0.13362  0.10889  1.0000
  S   S155      1.0  0.54878  0.41613  0.15879  1.0000
  H   H546      1.0  0.86133  0.05131  0.12658  1.0000
  H   H547      1.0  0.88211  0.26489  0.15185  1.0000
  S   S156      1.0  0.80264  0.43468  0.15281  1.0000
  H   H548      1.0  0.68949  0.50122  0.16449  1.0000
  C   C351      1.0  0.51713  0.49617  0.20085  1.0000
  Fe  Fe78      1.0  0.70244  0.15777  0.15711  1.0000
  S   S157      1.0  0.72483  0.16758  0.18352  1.0000
  S   S158      1.0  0.72485  0.13773  0.13592  1.0000
  Fe  Fe79      1.0  0.64282  0.18358  0.16393  1.0000
  S   S159      1.0  0.66056  0.19521  0.19068  1.0000
  S   S160      1.0  0.59865  0.19690  0.15174  1.0000
  Fe  Fe80      1.0  0.72151  0.22239  0.18095  1.0000
  S   S161      1.0  0.76792  0.27919  0.19099  1.0000
  Fe  Fe81      1.0  0.66155  0.13912  0.19075  1.0000
  C   C352      1.0  0.98072  0.01368  0.10180  1.0000
  S   S162      1.0  0.70378  0.21454  0.15404  1.0000
  S   S163      1.0  0.63914  0.12541  0.16446  1.0000
  C   C353      1.0  0.88427  0.02852  0.09702  1.0000
  H   H549      1.0  0.92144  0.10921  0.00484  1.0000
  C   C354      1.0  0.83811  0.31376  0.13576  1.0000
  H   H550      1.0  0.63094  0.04663  0.18830  1.0000
  N   N34       1.0  0.84678  0.29204  0.14885  1.0000
  C   C355      1.0  0.79202  0.39183  0.16395  1.0000
  C   C356      1.0  0.77289  0.35679  0.15566  1.0000
  C   C357      1.0  0.76364  0.32195  0.16412  1.0000
  C   C358      1.0  0.77497  0.32200  0.18075  1.0000
  C   C359      1.0  0.79440  0.35709  0.18903  1.0000
  C   C360      1.0  0.80234  0.39189  0.18074  1.0000
  H   H551      1.0  0.76487  0.35660  0.14265  1.0000
  H   H552      1.0  0.74857  0.29526  0.15759  1.0000
  S   S164      1.0  0.63362  0.09939  0.21343  1.0000
  H   H553      1.0  0.81734  0.41883  0.18722  1.0000
  H   H554      1.0  0.92200  0.36050  0.99887  1.0000
  C   C361      1.0  0.52723  0.23463  0.18234  1.0000
  C   C362      1.0  0.55944  0.23638  0.15649  1.0000
  C   C363      1.0  0.57471  0.21452  0.16411  1.0000
  C   C364      1.0  0.56792  0.20451  0.18110  1.0000
  C   C365      1.0  0.54360  0.21389  0.19011  1.0000
  H   H555      1.0  0.63136  0.43074  0.20775  1.0000
  C   C366      1.0  0.53034  0.10305  0.17533  1.0000
  H   H556      1.0  0.58022  0.18834  0.18714  1.0000
  C   C367      1.0  0.59339  0.43433  0.16964  1.0000
  C   C368      1.0  0.62766  0.46269  0.16188  1.0000
  C   C369      1.0  0.66331  0.47911  0.17052  1.0000
  C   C370      1.0  0.66464  0.46804  0.18717  1.0000
  C   C371      1.0  0.63045  0.43952  0.19489  1.0000
  C   C372      1.0  0.59510  0.42218  0.18607  1.0000
  H   H557      1.0  0.62658  0.47224  0.14917  1.0000
  H   H558      1.0  0.94614  0.43993  0.01326  1.0000
  H   H559      1.0  0.89140  0.34310  0.16037  1.0000
  H   H560      1.0  0.56908  0.40019  0.19215  1.0000
  H   H561      1.0  0.78906  0.26420  0.15898  1.0000
  C   C373      1.0  0.86377  0.31637  0.16357  1.0000
  C   C374      1.0  0.85565  0.18462  0.12967  1.0000
  C   C375      1.0  0.83095  0.17267  0.11579  1.0000
  C   C376      1.0  0.79081  0.15832  0.11784  1.0000
  C   C377      1.0  0.77529  0.15651  0.13371  1.0000
  C   C378      1.0  0.80000  0.16847  0.14757  1.0000
  C   C379      1.0  0.84005  0.18250  0.14554  1.0000
  H   H562      1.0  0.84281  0.17485  0.10346  1.0000
  H   H563      1.0  0.77175  0.14906  0.10707  1.0000
  H   H564      1.0  0.78813  0.16639  0.15988  1.0000
  H   H565      1.0  0.85900  0.19147  0.15634  1.0000
  N   N35       1.0  0.96173  0.15269  0.02125  1.0000
  S   S165      1.0  0.70812  0.48968  0.19884  1.0000
  H   H566      1.0  0.90310  0.05592  0.10249  1.0000
  H   H567      1.0  0.56099  0.11998  0.17089  1.0000
  H   H568      1.0  0.86991  0.30057  0.17383  1.0000
  C   C380      1.0  0.84205  0.05950  0.13320  1.0000
  C   C381      1.0  0.93193  0.14393  0.03416  1.0000
  H   H569      1.0  0.56507  0.24464  0.14338  1.0000
  H   H570      1.0  0.73628  0.41391  0.17749  1.0000
  H   H571      1.0  0.57243  0.06886  0.18485  1.0000
  H   H572      1.0  0.66041  0.31078  0.17683  1.0000
  H   H573      1.0  0.76478  0.07173  0.12306  1.0000
  C   C382      1.0  0.99922  0.39731  0.00328  1.0000
  C   C383      1.0  0.68374  0.36985  0.15449  1.0000
  C   C384      1.0  0.83102  0.08734  0.10792  1.0000
  H   H574      1.0  0.90296  0.13537  0.02854  1.0000
  H   H575      1.0  0.97466  0.21153  0.01761  1.0000
  C   C385      1.0  0.54130  0.05393  0.18862  1.0000
  H   H576      1.0  0.93764  0.17803  0.00407  1.0000
  N   N36       1.0  0.67717  0.37063  0.17256  1.0000
  H   H577      1.0  0.93362  0.34091  0.01723  1.0000
  H   H578      1.0  0.63315  0.38678  0.16841  1.0000
  Fe  Fe82      1.0  0.81295  0.48745  0.16670  1.0000
  H   H579      1.0  0.71387  0.37589  0.15199  1.0000
  N   N37       1.0  0.81199  0.05931  0.12190  1.0000
  N   N38       1.0  0.97044  0.40192  0.01305  1.0000
  H   H580      1.0  0.63181  0.36568  0.18868  1.0000
  H   H581      1.0  0.84845  0.07890  0.10011  1.0000
  H   H582      1.0  0.71118  0.34396  0.17988  1.0000
  H   H583      1.0  0.92841  0.11985  0.04272  1.0000
  H   H584      1.0  0.80460  0.09914  0.13681  1.0000
  C   C386      1.0  0.78710  0.07026  0.13127  1.0000
  H   H585      1.0  0.99573  0.46225  0.00634  1.0000
  H   H586      1.0  0.66328  0.34129  0.14924  1.0000
  H   H587      1.0  0.67652  0.33963  0.19515  1.0000
  H   H588      1.0  0.61490  0.33570  0.17074  1.0000
  C   C387      1.0  0.93221  0.36649  0.01206  1.0000
  S   S166      1.0  0.98165  0.15793  0.07305  1.0000
  C   C388      1.0  0.70605  0.40857  0.17901  1.0000
  H   H589      1.0  0.86097  0.08868  0.13833  1.0000
  C   C389      1.0  0.81045  0.25689  0.15381  1.0000
  H   H590      1.0  0.90229  0.30679  0.13819  1.0000
  H   H591      1.0  0.70437  0.43255  0.17226  1.0000
  C   C390      1.0  0.63750  0.36436  0.17521  1.0000
  C   C391      1.0  0.68145  0.33986  0.18149  1.0000
  H   H592      1.0  0.81727  0.32258  0.14035  1.0000
  H   H593      1.0  0.84351  0.32532  0.16876  1.0000
  H   H594      1.0  0.79636  0.23790  0.14302  1.0000
  C   C392      1.0  0.98315  0.40866  0.03069  1.0000
  H   H595      1.0  0.85118  0.11663  0.11256  1.0000
  C   C393      1.0  0.78796  0.02033  0.11519  1.0000
  H   H596      1.0  0.86487  0.34052  0.13169  1.0000
  H   H597      1.0  0.99764  0.13997  0.03783  1.0000
  C   C394      1.0  0.53510  0.44839  0.20942  1.0000
  H   H598      1.0  0.82490  0.29607  0.12453  1.0000
  H   H599      1.0  0.93978  0.16937  0.04197  1.0000
  H   H600      1.0  0.86244  0.26214  0.13130  1.0000
  H   H601      1.0  0.98796  0.19257  0.00047  1.0000
  C   C395      1.0  0.87463  0.28106  0.14226  1.0000
  H   H602      1.0  0.81577  0.23975  0.16370  1.0000
  C   C396      1.0  0.53646  0.24712  0.16568  1.0000
  H   H603      1.0  0.53710  0.20472  0.20309  1.0000
  C   C397      1.0  0.61139  0.04863  0.21300  1.0000
  H   H604      1.0  0.82879  0.03879  0.14395  1.0000
  H   H605      1.0  0.80941  0.08961  0.09957  1.0000
  H   H606      1.0  0.55524  0.45668  0.19858  1.0000
  C   C398      1.0  0.96723  0.43511  0.00612  1.0000
  H   H607      1.0  0.67992  0.39226  0.14738  1.0000
  H   H608      1.0  0.95764  0.43087  0.99282  1.0000
  H   H609      1.0  0.80340  0.35738  0.20190  1.0000
  H   H610      1.0  0.54171  0.13019  0.20675  1.0000
  H   H611      1.0  0.59852  0.47414  0.97583  1.0000
  H   H612      1.0  0.96223  0.41229  0.03852  1.0000
  H   H613      1.0  0.90971  0.36906  0.01921  1.0000
  N   N39       1.0  0.52755  0.08183  0.19121  1.0000
  H   H614      1.0  0.80590  0.01128  0.10799  1.0000
  H   H615      1.0  0.52497  0.26405  0.15975  1.0000
  H   H616      1.0  0.51957  0.12389  0.17673  1.0000
  H   H617      1.0  0.58274  0.12658  0.19990  1.0000
  Fe  Fe83      1.0  0.99681  0.16884  0.10004  1.0000
  C   C399      1.0  0.55192  0.10942  0.20402  1.0000
  H   H618      1.0  0.96927  0.02092  0.06900  1.0000
  H   H619      1.0  0.77151  0.04929  0.14168  1.0000
  H   H620      1.0  0.99129  0.39326  0.98979  1.0000
  S   S167      1.0  0.99597  0.22502  0.09956  1.0000
  S   S168      1.0  0.99521  0.24826  0.04909  1.0000
  H   H621      1.0  0.53881  0.03680  0.20026  1.0000
  C   C400      1.0  0.61441  0.02992  0.19911  1.0000
  C   C401      1.0  0.96563  0.18505  0.01033  1.0000
  H   H622      1.0  0.54898  0.44836  0.96859  1.0000
  H   H623      1.0  0.99985  0.04337  0.09660  1.0000
  H   H624      1.0  0.76504  0.01927  0.10660  1.0000
  H   H625      1.0  0.94642  0.09323  0.01912  1.0000
  C   C402      1.0  0.94982  0.11819  0.01117  1.0000
  H   H626      1.0  0.52437  0.03320  0.17872  1.0000
  H   H627      1.0  0.97169  0.12363  0.00134  1.0000
  H   H628      1.0  0.51319  0.08315  0.16522  1.0000
  H   H629      1.0  0.00213  0.37226  0.00796  1.0000
  H   H630      1.0  0.53609  0.50469  0.18957  1.0000
  H   H631      1.0  0.95420  0.01288  0.10679  1.0000
  H   H632      1.0  0.52481  0.41740  0.21256  1.0000
  C   C403      1.0  0.99951  0.16356  0.02937  1.0000
  H   H633      1.0  0.99629  0.00900  0.11255  1.0000
  H   H634      1.0  0.55206  0.09433  0.21597  1.0000
  Fe  Fe84      1.0  0.59818  0.46550  0.41857  1.0000
  S   S169      1.0  0.62004  0.47188  0.44493  1.0000
  S   S170      1.0  0.56057  0.40826  0.40640  1.0000
  H   H635      1.0  0.58307  0.39207  0.43914  1.0000
  H   H636      1.0  0.67645  0.21724  0.45758  1.0000
  H   H637      1.0  0.51510  0.32918  0.39715  1.0000
  S   S171      1.0  0.65637  0.50661  0.40759  1.0000
  H   H638      1.0  0.63715  0.26483  0.39867  1.0000
  Fe  Fe85      1.0  0.81966  0.38962  0.41662  1.0000
  S   S172      1.0  0.81276  0.37064  0.44353  1.0000
  S   S173      1.0  0.78277  0.41255  0.40461  1.0000
  Fe  Fe86      1.0  0.87130  0.35448  0.40900  1.0000
  S   S174      1.0  0.86704  0.33150  0.43525  1.0000
  S   S175      1.0  0.90841  0.35145  0.38830  1.0000
  Fe  Fe87      1.0  0.80384  0.31475  0.43383  1.0000
  S   S176      1.0  0.75634  0.26172  0.44686  1.0000
  Fe  Fe88      1.0  0.87646  0.38927  0.44288  1.0000
  S   S177      1.0  0.91521  0.41117  0.46569  1.0000
  S   S178      1.0  0.80695  0.33237  0.40682  1.0000
  S   S179      1.0  0.88467  0.41383  0.41663  1.0000
  Fe  Fe89      1.0  0.97747  0.16313  0.33722  1.0000
  H   H639      1.0  0.81593  0.46117  0.43350  1.0000
  S   S180      1.0  0.92739  0.11081  0.32574  1.0000
  H   H640      1.0  0.58691  0.04083  0.23765  1.0000
  H   H641      1.0  0.89288  0.16426  0.38844  1.0000
  Fe  Fe90      1.0  0.54044  0.16262  0.41791  1.0000
  S   S181      1.0  0.59848  0.18100  0.40587  1.0000
  C   C404      1.0  0.72323  0.46480  0.41934  1.0000
  C   C405      1.0  0.92665  0.31879  0.38788  1.0000
  C   C406      1.0  0.94669  0.31833  0.37361  1.0000
  C   C407      1.0  0.96257  0.29355  0.37292  1.0000
  C   C408      1.0  0.95881  0.26921  0.38659  1.0000
  C   C409      1.0  0.93885  0.26975  0.40087  1.0000
  C   C410      1.0  0.92275  0.29434  0.40152  1.0000
  H   H642      1.0  0.94997  0.33726  0.36301  1.0000
  H   H643      1.0  0.65583  0.01959  0.23310  1.0000
  H   H644      1.0  0.93576  0.25094  0.41149  1.0000
  H   H645      1.0  0.90744  0.29443  0.41258  1.0000
  C   C411      1.0  0.71234  0.23921  0.43555  1.0000
  C   C412      1.0  0.71249  0.24103  0.41809  1.0000
  C   C413      1.0  0.67738  0.22252  0.40919  1.0000
  C   C414      1.0  0.64178  0.20264  0.41766  1.0000
  C   C415      1.0  0.64151  0.20098  0.43515  1.0000
  C   C416      1.0  0.67678  0.21892  0.44407  1.0000
  H   H646      1.0  0.73970  0.25589  0.41138  1.0000
  H   H647      1.0  0.67782  0.22368  0.39566  1.0000
  H   H648      1.0  0.61423  0.18541  0.44179  1.0000
  S   S182      1.0  0.50808  0.19193  0.40776  1.0000
  C   C417      1.0  0.50684  0.50728  0.45703  1.0000
  H   H649      1.0  0.93683  0.47897  0.44400  1.0000
  H   H650      1.0  0.69189  0.04770  0.24824  1.0000
  C   C418      1.0  0.74596  0.48806  0.43231  1.0000
  H   H651      1.0  0.69729  0.46537  0.41538  1.0000
  H   H652      1.0  0.88063  0.03705  0.37883  1.0000
  C   C419      1.0  0.76814  0.44011  0.41613  1.0000
  C   C420      1.0  0.79003  0.46203  0.42958  1.0000
  H   H653      1.0  0.91544  0.21584  0.35780  1.0000
  H   H654      1.0  0.87456  0.03287  0.31702  1.0000
  S   S183      1.0  0.53216  0.17040  0.44479  1.0000
  N   N40       1.0  0.97724  0.01497  0.34930  1.0000
  H   H655      1.0  0.71057  0.01391  0.27046  1.0000
  C   C421      1.0  0.54986  0.36494  0.41722  1.0000
  C   C422      1.0  0.52578  0.32954  0.40972  1.0000
  H   H656      1.0  0.53149  0.41756  0.43719  1.0000
  S   S184      1.0  0.97749  0.23693  0.38627  1.0000
  H   H657      1.0  0.98336  0.39070  0.43486  1.0000
  Fe  Fe91      1.0  0.00371  0.22457  0.36369  1.0000
  C   C423      1.0  0.87940  0.03610  0.36533  1.0000
  C   C424      1.0  0.90178  0.06993  0.35569  1.0000
  C   C425      1.0  0.90009  0.06891  0.33824  1.0000
  C   C426      1.0  0.87615  0.03384  0.33051  1.0000
  H   H658      1.0  0.91998  0.09675  0.36178  1.0000
  C   C427      1.0  0.51195  0.42431  0.44443  1.0000
  C   C428      1.0  0.77923  0.48640  0.43750  1.0000
  H   H659      1.0  0.97791  0.29349  0.36185  1.0000
  C   C429      1.0  0.56376  0.36512  0.43340  1.0000
  S   S185      1.0  0.98165  0.22140  0.33745  1.0000
  C   C430      1.0  0.95576  0.48755  0.45480  1.0000
  H   H660      1.0  0.96008  0.43172  0.39689  1.0000
  H   H661      1.0  0.82929  0.26594  0.46201  1.0000
  H   H662      1.0  0.70210  0.02173  0.23296  1.0000
  H   H663      1.0  0.87978  0.11953  0.37844  1.0000
  H   H664      1.0  0.86817  0.20872  0.35227  1.0000
  H   H665      1.0  0.92221  0.16335  0.37195  1.0000
  H   H666      1.0  0.99036  0.04559  0.32556  1.0000
  C   C431      1.0  0.55192  0.33023  0.44235  1.0000
  H   H667      1.0  0.64716  0.01260  0.27165  1.0000
  H   H668      1.0  0.65382  0.36396  0.40491  1.0000
  H   H669      1.0  0.88355  0.21445  0.37374  1.0000
  C   C432      1.0  0.73474  0.44155  0.41107  1.0000
  N   N41       1.0  0.63687  0.30694  0.41470  1.0000
  C   C433      1.0  0.60672  0.27754  0.42590  1.0000
  C   C434      1.0  0.67590  0.31839  0.42162  1.0000
  C   C435      1.0  0.63152  0.34112  0.41323  1.0000
  C   C436      1.0  0.63325  0.29067  0.39801  1.0000
  H   H670      1.0  0.60977  0.25128  0.42729  1.0000
  H   H671      1.0  0.57696  0.26808  0.42097  1.0000
  H   H672      1.0  0.60813  0.28869  0.43861  1.0000
  H   H673      1.0  0.69942  0.34038  0.41340  1.0000
  H   H674      1.0  0.67978  0.33100  0.43417  1.0000
  H   H675      1.0  0.68080  0.29321  0.42298  1.0000
  H   H676      1.0  0.63379  0.35403  0.42561  1.0000
  H   H677      1.0  0.60243  0.33353  0.40796  1.0000
  H   H678      1.0  0.65549  0.31201  0.38920  1.0000
  H   H679      1.0  0.60400  0.28133  0.39249  1.0000
  H   H680      1.0  0.56190  0.33059  0.45505  1.0000
  N   N42       1.0  0.86824  0.15915  0.36384  1.0000
  C   C437      1.0  0.86937  0.14296  0.34763  1.0000
  C   C438      1.0  0.82759  0.14124  0.36971  1.0000
  C   C439      1.0  0.88444  0.20132  0.36179  1.0000
  C   C440      1.0  0.89164  0.15107  0.37623  1.0000
  H   H681      1.0  0.89965  0.15590  0.34284  1.0000
  H   H682      1.0  0.85210  0.14844  0.33791  1.0000
  H   H683      1.0  0.85773  0.11120  0.34869  1.0000
  H   H684      1.0  0.82582  0.15268  0.38199  1.0000
  H   H685      1.0  0.80917  0.14701  0.36070  1.0000
  H   H686      1.0  0.81445  0.10935  0.37129  1.0000
  C   C441      1.0  0.58970  0.02653  0.22692  1.0000
  H   H687      1.0  0.71793  0.42489  0.40059  1.0000
  H   H688      1.0  0.94712  0.38248  0.41934  1.0000
  H   H689      1.0  0.99322  0.39309  0.39663  1.0000
  H   H690      1.0  0.93952  0.01893  0.33065  1.0000
  C   C442      1.0  0.97147  0.40530  0.42653  1.0000
  C   C443      1.0  0.52715  0.29489  0.43500  1.0000
  C   C444      1.0  0.96913  0.03665  0.33600  1.0000
  H   H691      1.0  0.97074  0.06332  0.34082  1.0000
  C   C445      1.0  0.98454  0.45314  0.40458  1.0000
  H   H692      1.0  0.94920  0.02959  0.36830  1.0000
  H   H693      1.0  0.95902  0.41868  0.43464  1.0000
  H   H694      1.0  0.55235  0.46547  0.22022  1.0000
  S   S186      1.0  0.99522  0.16433  0.36387  1.0000
  C   C446      1.0  0.67917  0.02034  0.24131  1.0000
  H   H695      1.0  0.97290  0.46805  0.41221  1.0000
  H   H696      1.0  0.53052  0.45279  0.45013  1.0000
  N   N43       1.0  0.00163  0.43430  0.41523  1.0000
  C   C447      1.0  0.51477  0.29453  0.41852  1.0000
  H   H697      1.0  0.53869  0.38520  0.46315  1.0000
  S   S187      1.0  0.51066  0.25209  0.44710  1.0000
  H   H698      1.0  0.79688  0.50424  0.44755  1.0000
  S   S188      1.0  0.56506  0.20225  0.65067  1.0000
  H   H699      1.0  0.69320  0.36648  0.66107  1.0000
  H   H700      1.0  0.53338  0.35840  0.64573  1.0000
  S   S189      1.0  0.58584  0.43481  0.65606  1.0000
  N   N44       1.0  0.57280  0.01835  0.50783  1.0000
  Fe  Fe92      1.0  0.83550  0.28901  0.65527  1.0000
  S   S190      1.0  0.82351  0.26290  0.68124  1.0000
  S   S191      1.0  0.84476  0.26223  0.63236  1.0000
  Fe  Fe93      1.0  0.82510  0.35697  0.66559  1.0000
  S   S192      1.0  0.81291  0.33591  0.69223  1.0000
  S   S193      1.0  0.81930  0.40757  0.65550  1.0000
  Fe  Fe94      1.0  0.86263  0.32387  0.68952  1.0000
  C   C448      1.0  0.00317  0.14842  0.57254  1.0000
  Fe  Fe95      1.0  0.77545  0.27773  0.68142  1.0000
  S   S194      1.0  0.71592  0.23731  0.69223  1.0000
  S   S195      1.0  0.87780  0.34941  0.66342  1.0000
  S   S196      1.0  0.78472  0.29953  0.65487  1.0000
  Fe  Fe96      1.0  0.80302  0.05725  0.60556  1.0000
  S   S197      1.0  0.81235  0.07844  0.57874  1.0000
  S   S198      1.0  0.78894  0.08352  0.62739  1.0000
  Fe  Fe97      1.0  0.86564  0.07156  0.58020  1.0000
  S   S199      1.0  0.92400  0.11419  0.56894  1.0000
  S   S200      1.0  0.85853  0.05499  0.60736  1.0000
  C   C449      1.0  0.96689  0.12615  0.58029  1.0000
  H   H701      1.0  0.60372  0.06021  0.48818  1.0000
  C   C450      1.0  0.96548  0.11496  0.59710  1.0000
  H   H702      1.0  0.59267  0.28314  0.66272  1.0000
  H   H703      1.0  0.93790  0.09733  0.60313  1.0000
  H   H704      1.0  0.73865  0.46815  0.66230  1.0000
  C   C451      1.0  0.82784  0.21226  0.63117  1.0000
  C   C452      1.0  0.82562  0.19644  0.61549  1.0000
  C   C453      1.0  0.81345  0.15697  0.61411  1.0000
  C   C454      1.0  0.80373  0.13307  0.62844  1.0000
  C   C455      1.0  0.80567  0.14882  0.64411  1.0000
  C   C456      1.0  0.81777  0.18829  0.64549  1.0000
  H   H705      1.0  0.83331  0.21483  0.60435  1.0000
  H   H706      1.0  0.81150  0.14502  0.60195  1.0000
  H   H707      1.0  0.79832  0.13048  0.65526  1.0000
  H   H708      1.0  0.82001  0.20030  0.65765  1.0000
  C   C457      1.0  0.97449  0.39313  0.69863  1.0000
  C   C458      1.0  0.82225  0.25729  0.47542  1.0000
  H   H709      1.0  0.58568  0.32313  0.65675  1.0000
  H   H710      1.0  0.95953  0.39030  0.68689  1.0000
  C   C459      1.0  0.79373  0.42416  0.66748  1.0000
  C   C460      1.0  0.77201  0.43907  0.65939  1.0000
  C   C461      1.0  0.75545  0.45688  0.66857  1.0000
  C   C462      1.0  0.76222  0.46161  0.68575  1.0000
  C   C463      1.0  0.78256  0.44528  0.69392  1.0000
  C   C464      1.0  0.79764  0.42598  0.68485  1.0000
  H   H711      1.0  0.76843  0.43724  0.64596  1.0000
  H   H712      1.0  0.83913  0.26105  0.50820  1.0000
  H   H713      1.0  0.81362  0.41392  0.69120  1.0000
  H   H714      1.0  0.53591  0.42046  0.47554  1.0000
  Fe  Fe98      1.0  0.63349  0.48729  0.66853  1.0000
  C   C465      1.0  0.90026  0.15935  0.60697  1.0000
  C   C466      1.0  0.55798  0.39168  0.66775  1.0000
  C   C467      1.0  0.55907  0.39048  0.68523  1.0000
  C   C468      1.0  0.95448  0.36898  0.71230  1.0000
  N   N45       1.0  0.92883  0.18185  0.61996  1.0000
  C   C469      1.0  0.87880  0.31546  0.48446  1.0000
  H   H715      1.0  0.57659  0.41666  0.69192  1.0000
  C   C470      1.0  0.60647  0.21453  0.66303  1.0000
  C   C471      1.0  0.60357  0.20058  0.67950  1.0000
  C   C472      1.0  0.63745  0.20874  0.68857  1.0000
  C   C473      1.0  0.67429  0.23156  0.68136  1.0000
  C   C474      1.0  0.67704  0.24692  0.66516  1.0000
  C   C475      1.0  0.64327  0.23783  0.65593  1.0000
  H   H716      1.0  0.57525  0.18232  0.68502  1.0000
  H   H717      1.0  0.89512  0.17826  0.59798  1.0000
  H   H718      1.0  0.70504  0.26495  0.65952  1.0000
  H   H719      1.0  0.64562  0.24872  0.64320  1.0000
  H   H720      1.0  0.55379  0.02704  0.48357  1.0000
  H   H721      1.0  0.66097  0.31940  0.65324  1.0000
  C   C476      1.0  0.53698  0.35531  0.69410  1.0000
  H   H722      1.0  0.63009  0.38829  0.66729  1.0000
  H   H723      1.0  0.56552  0.06518  0.49772  1.0000
  H   H724      1.0  0.79363  0.26039  0.50518  1.0000
  C   C477      1.0  0.90465  0.42992  0.69644  1.0000
  H   H725      1.0  0.89395  0.29938  0.48863  1.0000
  C   C478      1.0  0.82571  0.27852  0.50363  1.0000
  H   H726      1.0  0.83573  0.30357  0.51194  1.0000
  C   C479      1.0  0.57412  0.04391  0.49374  1.0000
  H   H727      1.0  0.64585  0.29286  0.68234  1.0000
  H   H728      1.0  0.94169  0.13656  0.62648  1.0000
  C   C480      1.0  0.95366  0.02207  0.59928  1.0000
  H   H729      1.0  0.53784  0.35459  0.70761  1.0000
  H   H730      1.0  0.90323  0.13563  0.63839  1.0000
  H   H731      1.0  0.97776  0.18952  0.60553  1.0000
  N   N46       1.0  0.70210  0.15822  0.65191  1.0000
  C   C481      1.0  0.72684  0.19997  0.64831  1.0000
  C   C482      1.0  0.71671  0.14730  0.66707  1.0000
  C   C483      1.0  0.70330  0.13638  0.63756  1.0000
  C   C484      1.0  0.66161  0.14943  0.65476  1.0000
  H   H732      1.0  0.75738  0.20763  0.64556  1.0000
  H   H733      1.0  0.72783  0.21700  0.65919  1.0000
  H   H734      1.0  0.71594  0.20986  0.63739  1.0000
  H   H735      1.0  0.71635  0.16359  0.67810  1.0000
  H   H736      1.0  0.69877  0.11598  0.67024  1.0000
  H   H737      1.0  0.74722  0.15368  0.66542  1.0000
  H   H738      1.0  0.68564  0.10468  0.63995  1.0000
  H   H739      1.0  0.73353  0.14290  0.63488  1.0000
  H   H740      1.0  0.69201  0.14369  0.62599  1.0000
  H   H741      1.0  0.65007  0.15893  0.64391  1.0000
  H   H742      1.0  0.65956  0.16438  0.66588  1.0000
  H   H743      1.0  0.64181  0.11800  0.65698  1.0000
  H   H744      1.0  0.96572  0.22720  0.60265  1.0000
  H   H745      1.0  0.62865  0.31402  0.69707  1.0000
  N   N47       1.0  0.83610  0.29135  0.48602  1.0000
  H   H746      1.0  0.91182  0.22566  0.61946  1.0000
  H   H747      1.0  0.82471  0.32397  0.46728  1.0000
  H   H748      1.0  0.65446  0.35960  0.64701  1.0000
  C   C485      1.0  0.66238  0.34625  0.65770  1.0000
  H   H749      1.0  0.52321  0.01770  0.51894  1.0000
  H   H750      1.0  0.93993  0.03708  0.59244  1.0000
  H   H751      1.0  0.78725  0.44823  0.70727  1.0000
  N   N48       1.0  0.98002  0.01635  0.58830  1.0000
  C   C486      1.0  0.95128  0.46012  0.46719  1.0000
  H   H752      1.0  0.78524  0.29698  0.48131  1.0000
  C   C487      1.0  0.63873  0.37431  0.67750  1.0000
  H   H753      1.0  0.99857  0.11932  0.61942  1.0000
  H   H754      1.0  0.79003  0.23874  0.47612  1.0000
  C   C488      1.0  0.91590  0.20599  0.62845  1.0000
  H   H755      1.0  0.57510  0.30346  0.67769  1.0000
  H   H756      1.0  0.96938  0.03958  0.61024  1.0000
  C   C489      1.0  0.97590  0.47174  0.48120  1.0000
  C   C490      1.0  0.81756  0.31422  0.48051  1.0000
  S   S201      1.0  0.90383  0.33585  0.71161  1.0000
  N   N49       1.0  0.63613  0.33796  0.67207  1.0000
  H   H757      1.0  0.66883  0.39558  0.68139  1.0000
  C   C491      1.0  0.64778  0.32049  0.68599  1.0000
  H   H758      1.0  0.63067  0.05760  0.51627  1.0000
  H   H759      1.0  0.95301  0.17110  0.64244  1.0000
  C   C492      1.0  0.60029  0.04146  0.52104  1.0000
  H   H760      1.0  0.63505  0.19670  0.70109  1.0000
  H   H761      1.0  0.67828  0.34006  0.68999  1.0000
  H   H762      1.0  0.59279  0.06276  0.52599  1.0000
  H   H763      1.0  0.87821  0.42390  0.68907  1.0000
  Fe  Fe99      1.0  0.50787  0.18494  0.66333  1.0000
  H   H764      1.0  0.98958  0.22409  0.62152  1.0000
  C   C493      1.0  0.51283  0.32246  0.66808  1.0000
  H   H765      1.0  0.61915  0.36914  0.68828  1.0000
  C   C494      1.0  0.59569  0.31076  0.66709  1.0000
  C   C495      1.0  0.53461  0.35761  0.65924  1.0000
  S   S202      1.0  0.65012  0.48979  0.69548  1.0000
  C   C496      1.0  0.96717  0.20682  0.61209  1.0000
  C   C497      1.0  0.93187  0.15516  0.63237  1.0000
  H   H766      1.0  0.93719  0.22414  0.63806  1.0000
  H   H767      1.0  0.88763  0.18787  0.63491  1.0000
  H   H768      1.0  0.82758  0.34052  0.48801  1.0000
  H   H769      1.0  0.89014  0.34194  0.49197  1.0000
  H   H770      1.0  0.59991  0.02267  0.53177  1.0000
  S   S203      1.0  0.74851  0.49014  0.69715  1.0000
  H   H771      1.0  0.87176  0.13812  0.61256  1.0000
  H   H772      1.0  0.91029  0.14276  0.59958  1.0000
  Fe  Fe100     1.0  0.77988  0.01518  0.57268  1.0000
  H   H773      1.0  0.97273  0.45064  0.49079  1.0000
  C   C498      1.0  0.99992  0.12730  0.60630  1.0000
  H   H774      1.0  0.00238  0.07206  0.57598  1.0000
  C   C499      1.0  0.51402  0.32115  0.68554  1.0000
  H   H775      1.0  0.88756  0.32545  0.47129  1.0000
  S   S204      1.0  0.83460  0.01067  0.57162  1.0000
  H   H776      1.0  0.90680  0.40314  0.69667  1.0000
  H   H777      1.0  0.93028  0.45244  0.68942  1.0000
  C   C500      1.0  0.51812  0.39226  0.46939  1.0000
  H   H778      1.0  0.83555  0.23922  0.47915  1.0000
  H   H779      1.0  0.87077  0.47037  0.70590  1.0000
  H   H780      1.0  0.92267  0.50090  0.70590  1.0000
  S   S205      1.0  0.69359  0.50711  0.65894  1.0000
  H   H781      1.0  0.77530  0.50821  0.63968  1.0000
  N   N50       1.0  0.90300  0.44197  0.71355  1.0000
  H   H782      1.0  0.00455  0.15714  0.55951  1.0000
  C   C501      1.0  0.89800  0.47640  0.71264  1.0000
  H   H783      1.0  0.94639  0.01151  0.56620  1.0000
  H   H784      1.0  0.96552  0.47375  0.71562  1.0000
  Fe  Fe101     1.0  0.59364  0.11020  0.93672  1.0000
  S   S206      1.0  0.56949  0.10404  0.91058  1.0000
  H   H785      1.0  0.63136  0.28435  0.90629  1.0000
  Fe  Fe102     1.0  0.66698  0.18562  0.92784  1.0000
  S   S207      1.0  0.64874  0.18453  0.90126  1.0000
  S   S208      1.0  0.72318  0.23325  0.93797  1.0000
  Fe  Fe103     1.0  0.59025  0.16783  0.91196  1.0000
  S   S209      1.0  0.56546  0.20288  0.89963  1.0000
  Fe  Fe104     1.0  0.63041  0.12159  0.90236  1.0000
  S   S210      1.0  0.64381  0.09652  0.87989  1.0000
  S   S211      1.0  0.60971  0.17261  0.93870  1.0000
  S   S212      1.0  0.65332  0.12386  0.92827  1.0000
  H   H786      1.0  0.50814  0.21268  0.74168  1.0000
  H   H787      1.0  0.87246  0.38358  0.72337  1.0000
  S   S213      1.0  0.88250  0.50218  0.90907  1.0000
  S   S214      1.0  0.88683  0.05720  0.81801  1.0000
  Fe  Fe105     1.0  0.52297  0.39939  0.91278  1.0000
  S   S215      1.0  0.58266  0.43804  0.90181  1.0000
  H   H788      1.0  0.72545  0.37588  0.91081  1.0000
  H   H789      1.0  0.97405  0.44723  0.94947  1.0000
  S   S216      1.0  0.51285  0.37642  0.93920  1.0000
  C   C502      1.0  0.65216  0.35967  0.90444  1.0000
  Fe  Fe106     1.0  0.82435  0.44805  0.91114  1.0000
  S   S217      1.0  0.80698  0.39290  0.89774  1.0000
  S   S218      1.0  0.81828  0.45275  0.93862  1.0000
  H   H790      1.0  0.71653  0.35298  0.93116  1.0000
  C   C503      1.0  0.99323  0.14224  0.84754  1.0000
  C   C504      1.0  0.62384  0.44400  0.91309  1.0000
  C   C505      1.0  0.70535  0.04291  0.89403  1.0000
  H   H791      1.0  0.54932  0.26391  0.89184  1.0000
  Fe  Fe107     1.0  0.78807  0.48586  0.93063  1.0000
  C   C506      1.0  0.65350  0.43439  0.93827  1.0000
  C   C507      1.0  0.62021  0.42658  0.92890  1.0000
  H   H792      1.0  0.63512  0.49875  0.94058  1.0000
  H   H793      1.0  0.99493  0.24068  0.78664  1.0000
  H   H794      1.0  0.51187  0.28888  0.90637  1.0000
  H   H795      1.0  0.59187  0.40750  0.93402  1.0000
  C   C508      1.0  0.92709  0.08802  0.83021  1.0000
  C   C509      1.0  0.96445  0.09703  0.82509  1.0000
  H   H796      1.0  0.64123  0.35554  0.93761  1.0000
  C   C510      1.0  0.95581  0.13271  0.85286  1.0000
  C   C511      1.0  0.92274  0.10516  0.84438  1.0000
  H   H797      1.0  0.96795  0.08370  0.81417  1.0000
  H   H798      1.0  0.95240  0.14700  0.86344  1.0000
  H   H799      1.0  0.89397  0.09834  0.84840  1.0000
  C   C512      1.0  0.74469  0.27792  0.92695  1.0000
  C   C513      1.0  0.77018  0.31168  0.93525  1.0000
  C   C514      1.0  0.78880  0.34738  0.92651  1.0000
  C   C515      1.0  0.78279  0.34923  0.90932  1.0000
  C   C516      1.0  0.75744  0.31547  0.90102  1.0000
  C   C517      1.0  0.73799  0.28005  0.90986  1.0000
  H   H800      1.0  0.77564  0.31022  0.94847  1.0000
  H   H801      1.0  0.80865  0.37324  0.93296  1.0000
  H   H802      1.0  0.75275  0.31683  0.88772  1.0000
  H   H803      1.0  0.71858  0.25437  0.90333  1.0000
  C   C518      1.0  0.54054  0.22117  0.91101  1.0000
  H   H804      1.0  0.71379  0.03400  0.90554  1.0000
  H   H805      1.0  0.52661  0.18177  0.93213  1.0000
  C   C519      1.0  0.71596  0.03466  0.87864  1.0000
  H   H806      1.0  0.58631  0.44406  0.95802  1.0000
  C   C520      1.0  0.67231  0.07345  0.87983  1.0000
  C   C521      1.0  0.68314  0.06548  0.86445  1.0000
  C   C522      1.0  0.70521  0.04653  0.86383  1.0000
  C   C523      1.0  0.86986  0.41023  0.72268  1.0000
  H   H807      1.0  0.65050  0.42161  0.95067  1.0000
  C   C524      1.0  0.68392  0.06251  0.89465  1.0000
  H   H808      1.0  0.67455  0.07418  0.85292  1.0000
  N   N51       1.0  0.58710  0.49787  0.95331  1.0000
  C   C525      1.0  0.97666  0.47204  0.95576  1.0000
  H   H809      1.0  0.67599  0.06862  0.90658  1.0000
  C   C526      1.0  0.66180  0.30501  0.91005  1.0000
  H   H810      1.0  0.89636  0.48616  0.72532  1.0000
  S   S219      1.0  0.57087  0.06536  0.95791  1.0000
  C   C527      1.0  0.52358  0.20525  0.92655  1.0000
  H   H811      1.0  0.93998  0.46188  0.73524  1.0000
  H   H812      1.0  0.53870  0.02628  0.92643  1.0000
  H   H813      1.0  0.62136  0.34067  0.90065  1.0000
  H   H814      1.0  0.65436  0.38653  0.90932  1.0000
  H   H815      1.0  0.92811  0.47137  0.94256  1.0000
  S   S220      1.0  0.79083  0.47773  0.90329  1.0000
  H   H816      1.0  0.68055  0.31193  0.89881  1.0000
  H   H817      1.0  0.60863  0.30959  0.92882  1.0000
  H   H818      1.0  0.98808  0.05344  0.85215  1.0000
  H   H819      1.0  0.58822  0.03937  0.90457  1.0000
  C   C528      1.0  0.93953  0.45130  0.72249  1.0000
  H   H820      1.0  0.94319  0.42545  0.72408  1.0000
  H   H821      1.0  0.56730  0.46409  0.93129  1.0000
  C   C529      1.0  0.95060  0.48564  0.95182  1.0000
  H   H822      1.0  0.56503  0.50787  0.92999  1.0000
  C   C530      1.0  0.00543  0.24760  0.79974  1.0000
  H   H823      1.0  0.71389  0.04108  0.85194  1.0000
  S   S221      1.0  0.73161  0.46849  0.94396  1.0000
  C   C531      1.0  0.69067  0.45849  0.93164  1.0000
  N   N52       1.0  0.76245  0.19420  0.88855  1.0000
  C   C532      1.0  0.77610  0.16890  0.88172  1.0000
  C   C533      1.0  0.73784  0.20010  0.87601  1.0000
  C   C534      1.0  0.79621  0.23188  0.89269  1.0000
  C   C535      1.0  0.73947  0.17582  0.90383  1.0000
  H   H824      1.0  0.79441  0.16344  0.89091  1.0000
  H   H825      1.0  0.79370  0.18186  0.87019  1.0000
  H   H826      1.0  0.75121  0.14030  0.87842  1.0000
  H   H827      1.0  0.72709  0.21912  0.88072  1.0000
  H   H828      1.0  0.75411  0.21367  0.86424  1.0000
  H   H829      1.0  0.71181  0.17225  0.87275  1.0000
  H   H830      1.0  0.78680  0.25147  0.89805  1.0000
  H   H831      1.0  0.81414  0.24688  0.88145  1.0000
  H   H832      1.0  0.81537  0.22850  0.90214  1.0000
  H   H833      1.0  0.71356  0.14752  0.90113  1.0000
  H   H834      1.0  0.72896  0.19424  0.90940  1.0000
  H   H835      1.0  0.75692  0.17075  0.91361  1.0000
  H   H836      1.0  0.98388  0.17574  0.81189  1.0000
  C   C536      1.0  0.69441  0.47471  0.91556  1.0000
  H   H837      1.0  0.99793  0.18026  0.79036  1.0000
  C   C537      1.0  0.56128  0.48379  0.93860  1.0000
  S   S222      1.0  0.77236  0.01101  0.82989  1.0000
  H   H838      1.0  0.86816  0.41804  0.73574  1.0000
  H   H839      1.0  0.70901  0.39351  0.92738  1.0000
  H   H840      1.0  0.95935  0.35449  0.73808  1.0000
  N   N53       1.0  0.66484  0.34027  0.91707  1.0000
  C   C538      1.0  0.66104  0.46779  0.90639  1.0000
  C   C539      1.0  0.63967  0.32962  0.93199  1.0000
  H   H841      1.0  0.67048  0.36803  0.89299  1.0000
  C   C540      1.0  0.70567  0.36676  0.92182  1.0000
  Fe  Fe108     1.0  0.83106  0.01457  0.83104  1.0000
  H   H842      1.0  0.53019  0.46734  0.94237  1.0000
  H   H843      1.0  0.67099  0.28956  0.91930  1.0000
  H   H844      1.0  0.64848  0.31495  0.94178  1.0000
  C   C541      1.0  0.97458  0.37293  0.72741  1.0000
  C   C542      1.0  0.99737  0.12334  0.83397  1.0000
  H   H845      1.0  0.91650  0.01852  0.84688  1.0000
  C   C543      1.0  0.52113  0.03524  0.96256  1.0000
  H   H846      1.0  0.97945  0.23581  0.80802  1.0000
  C   C544      1.0  0.53635  0.25155  0.90388  1.0000
  H   H847      1.0  0.99635  0.04036  0.83201  1.0000
  H   H848      1.0  0.60565  0.04011  0.93404  1.0000
  H   H849      1.0  0.72301  0.49350  0.91039  1.0000
  H   H850      1.0  0.66410  0.48125  0.89413  1.0000
  C   C545      1.0  0.57996  0.46470  0.96445  1.0000
  C   C546      1.0  0.51499  0.26569  0.91209  1.0000
  C   C547      1.0  0.98991  0.03045  0.84533  1.0000
  H   H851      1.0  0.84168  0.40259  0.71648  1.0000
  H   H852      1.0  0.91757  0.94322  0.10131  1.0000
  S   S223      1.0  0.53667  0.67643  0.99996  1.0000
  S   S224      1.0  0.56243  0.66950  0.04899  1.0000
  N   N54       1.0  0.92065  0.68591  0.17937  1.0000
  Fe  Fe109     1.0  0.82631  0.86259  0.09860  1.0000
  S   S225      1.0  0.83869  0.86191  0.07150  1.0000
  S   S226      1.0  0.83677  0.91642  0.11157  1.0000
  Fe  Fe110     1.0  0.80878  0.77962  0.10499  1.0000
  S   S227      1.0  0.82073  0.77294  0.07829  1.0000
  S   S228      1.0  0.78359  0.73099  0.12460  1.0000
  Fe  Fe111     1.0  0.87208  0.83271  0.08041  1.0000
  S   S229      1.0  0.93022  0.85350  0.06789  1.0000
  Fe  Fe112     1.0  0.78602  0.80247  0.07175  1.0000
  S   S230      1.0  0.74549  0.78285  0.04923  1.0000
  S   S231      1.0  0.86304  0.83698  0.10765  1.0000
  S   S232      1.0  0.77074  0.80563  0.09831  1.0000
  Fe  Fe113     1.0  0.82784  0.56983  0.16098  1.0000
  S   S233      1.0  0.81684  0.57552  0.18795  1.0000
  S   S234      1.0  0.85160  0.61869  0.14144  1.0000
  H   H853      1.0  0.56522  0.73152  0.02691  1.0000
  Fe  Fe114     1.0  0.85363  0.54774  0.19364  1.0000
  H   H854      1.0  0.94669  0.73643  0.19436  1.0000
  S   S235      1.0  0.86757  0.54528  0.16678  1.0000
  H   H855      1.0  0.93435  0.73575  0.16359  1.0000
  C   C548      1.0  0.60136  0.78272  0.05037  1.0000
  H   H856      1.0  0.63078  0.78621  0.04831  1.0000
  H   H857      1.0  0.97692  0.71512  0.19107  1.0000
  H   H858      1.0  0.59873  0.97503  0.18846  1.0000
  H   H859      1.0  0.61198  0.76644  0.01895  1.0000
  C   C549      1.0  0.94641  0.70855  0.19313  1.0000
  H   H860      1.0  0.94255  0.97003  0.06504  1.0000
  C   C550      1.0  0.58262  0.76180  0.02213  1.0000
  C   C551      1.0  0.59615  0.98937  0.19923  1.0000
  H   H861      1.0  0.95450  0.59901  0.18957  1.0000
  C   C552      1.0  0.80341  0.70059  0.12937  1.0000
  C   C553      1.0  0.78500  0.67069  0.14143  1.0000
  C   C554      1.0  0.79931  0.64523  0.14526  1.0000
  C   C555      1.0  0.83212  0.64949  0.13698  1.0000
  C   C556      1.0  0.85057  0.67943  0.12494  1.0000
  C   C557      1.0  0.83631  0.70492  0.12114  1.0000
  H   H862      1.0  0.75950  0.66717  0.14784  1.0000
  H   H863      1.0  0.78488  0.62226  0.15455  1.0000
  H   H864      1.0  0.87600  0.68288  0.11849  1.0000
  H   H865      1.0  0.85074  0.72786  0.11184  1.0000
  C   C558      1.0  0.61329  0.70100  0.04874  1.0000
  C   C559      1.0  0.63443  0.71325  0.03384  1.0000
  C   C560      1.0  0.67487  0.73852  0.03422  1.0000
  C   C561      1.0  0.69452  0.75182  0.04945  1.0000
  C   C562      1.0  0.67324  0.74017  0.06433  1.0000
  C   C563      1.0  0.63287  0.71454  0.06398  1.0000
  H   H866      1.0  0.61976  0.70282  0.02205  1.0000
  H   H867      1.0  0.69116  0.74750  0.02264  1.0000
  H   H868      1.0  0.68788  0.75102  0.07609  1.0000
  H   H869      1.0  0.61662  0.70546  0.07556  1.0000
  H   H870      1.0  0.53463  0.51525  0.21114  1.0000
  C   C564      1.0  0.97360  0.87739  0.07946  1.0000
  H   H871      1.0  0.60409  0.80321  0.06010  1.0000
  C   C565      1.0  0.97362  0.87533  0.09692  1.0000
  H   H872      1.0  0.52560  0.75289  0.04259  1.0000
  H   H873      1.0  0.94667  0.85801  0.10362  1.0000
  H   H874      1.0  0.95100  0.65423  0.17615  1.0000
  H   H875      1.0  0.96459  0.71434  0.16045  1.0000
  C   C566      1.0  0.83719  0.95674  0.08279  1.0000
  C   C567      1.0  0.85015  0.95840  0.09926  1.0000
  H   H876      1.0  0.59834  0.83455  0.01635  1.0000
  H   H877      1.0  0.95915  0.93829  0.10686  1.0000
  H   H878      1.0  0.81888  0.92904  0.07726  1.0000
  Fe  Fe115     1.0  0.76654  0.51500  0.18595  1.0000
  C   C568      1.0  0.87366  0.99436  0.10634  1.0000
  H   H879      1.0  0.54567  0.80294  0.04729  1.0000
  N   N55       1.0  0.72132  0.66127  0.08568  1.0000
  C   C569      1.0  0.70625  0.64036  0.10183  1.0000
  C   C570      1.0  0.69772  0.63687  0.07184  1.0000
  C   C571      1.0  0.76224  0.67075  0.08367  1.0000
  C   C572      1.0  0.71906  0.69721  0.08536  1.0000
  H   H880      1.0  0.72339  0.65822  0.11251  1.0000
  H   H881      1.0  0.70787  0.61324  0.10261  1.0000
  H   H882      1.0  0.67545  0.63276  0.10380  1.0000
  H   H883      1.0  0.70829  0.65210  0.05951  1.0000
  H   H884      1.0  0.69879  0.60949  0.07162  1.0000
  H   H885      1.0  0.66666  0.62928  0.07297  1.0000
  H   H886      1.0  0.76524  0.64439  0.08419  1.0000
  H   H887      1.0  0.78089  0.68971  0.09378  1.0000
  H   H888      1.0  0.77451  0.68626  0.07155  1.0000
  H   H889      1.0  0.73046  0.71396  0.07339  1.0000
  H   H890      1.0  0.73632  0.71635  0.09566  1.0000
  H   H891      1.0  0.68857  0.69109  0.08683  1.0000
  N   N56       1.0  0.58483  0.78916  0.03468  1.0000
  C   C573      1.0  0.54534  0.78287  0.03787  1.0000
  C   C574      1.0  0.60992  0.82906  0.02829  1.0000
  H   H892      1.0  0.90257  0.63153  0.16803  1.0000
  H   H893      1.0  0.88397  0.99575  0.11905  1.0000
  H   H894      1.0  0.93684  0.69235  0.20532  1.0000
  Fe  Fe116     1.0  0.52196  0.65396  0.02652  1.0000
  H   H895      1.0  0.91008  0.63145  0.19015  1.0000
  C   C575      1.0  0.93450  0.70790  0.16337  1.0000
  H   H896      1.0  0.00033  0.96488  0.07298  1.0000
  H   H897      1.0  0.61196  0.85054  0.03738  1.0000
  H   H898      1.0  0.98575  0.56075  0.97816  1.0000
  C   C576      1.0  0.96851  0.61021  0.20140  1.0000
  S   S236      1.0  0.55360  0.91652  0.21299  1.0000
  H   H899      1.0  0.86920  0.66142  0.19464  1.0000
  H   H900      1.0  0.92332  0.99063  0.07904  1.0000
  C   C577      1.0  0.92113  0.64920  0.17840  1.0000
  H   H901      1.0  0.56872  0.76456  0.01032  1.0000
  H   H902      1.0  0.64001  0.83475  0.02585  1.0000
  H   H903      1.0  0.83566  0.98960  0.06109  1.0000
  H   H904      1.0  0.53299  0.00527  0.98271  1.0000
  C   C578      1.0  0.84670  0.99104  0.07366  1.0000
  H   H905      1.0  0.87888  0.70481  0.18314  1.0000
  H   H906      1.0  0.86030  0.66018  0.17256  1.0000
  C   C579      1.0  0.88054  0.67779  0.18261  1.0000
  N   N57       1.0  0.97075  0.98430  0.08900  1.0000
  H   H907      1.0  0.77333  0.99828  0.12537  1.0000
  C   C580      1.0  0.95066  0.99188  0.07488  1.0000
  H   H908      1.0  0.58272  0.75293  0.05561  1.0000
  H   H909      1.0  0.53206  0.78737  0.02623  1.0000
  H   H910      1.0  0.93607  0.92269  0.08693  1.0000
  C   C581      1.0  0.57496  0.96727  0.21323  1.0000
  H   H911      1.0  0.91559  0.69136  0.15277  1.0000
  C   C582      1.0  0.94481  0.94549  0.09636  1.0000
  C   C583      1.0  0.98314  0.53592  0.97189  1.0000
  S   S237      1.0  0.77446  0.51170  0.15852  1.0000
  H   H912      1.0  0.59854  0.53678  0.97335  1.0000
  S   S238      1.0  0.89521  0.56874  0.21588  1.0000
  C   C584      1.0  0.94637  0.59920  0.21605  1.0000
  H   H913      1.0  0.54854  0.51005  0.96722  1.0000
  C   C585      1.0  0.51059  0.00716  0.97547  1.0000
  Fe  Fe117     1.0  0.75347  0.83417  0.33721  1.0000
  S   S239      1.0  0.75373  0.84729  0.36432  1.0000
  S   S240      1.0  0.69487  0.80325  0.32395  1.0000
  Fe  Fe118     1.0  0.84011  0.85831  0.33818  1.0000
  S   S241      1.0  0.84563  0.87172  0.36532  1.0000
  S   S242      1.0  0.89390  0.87338  0.32306  1.0000
  Fe  Fe119     1.0  0.78831  0.81680  0.36831  1.0000
  S   S243      1.0  0.77500  0.77635  0.39102  1.0000
  Fe  Fe120     1.0  0.81074  0.90072  0.35865  1.0000
  S   S244      1.0  0.82997  0.95866  0.37008  1.0000
  S   S245      1.0  0.78548  0.80079  0.34150  1.0000
  S   S246      1.0  0.80782  0.89015  0.33117  1.0000
  Fe  Fe121     1.0  0.64115  0.55313  0.41148  1.0000
  S   S247      1.0  0.66572  0.56573  0.43745  1.0000
  S   S248      1.0  0.65681  0.59604  0.38962  1.0000
  C   C586      1.0  0.69606  0.98743  0.26294  1.0000
  Fe  Fe122     1.0  0.56316  0.86084  0.26911  1.0000
  S   S249      1.0  0.56758  0.84721  0.24256  1.0000
  S   S250      1.0  0.61952  0.89052  0.28382  1.0000
  H   H914      1.0  0.72498  0.88444  0.31446  1.0000
  Fe  Fe123     1.0  0.53329  0.87707  0.23615  1.0000
  H   H915      1.0  0.61642  0.75148  0.23537  1.0000
  H   H916      1.0  0.63283  0.72516  0.24870  1.0000
  H   H917      1.0  0.94840  0.60424  0.24281  1.0000
  H   H918      1.0  0.83039  0.62797  0.40251  1.0000
  C   C587      1.0  0.55856  0.70392  0.25601  1.0000
  C   C588      1.0  0.93608  0.88066  0.33391  1.0000
  C   C589      1.0  0.93389  0.86297  0.34954  1.0000
  C   C590      1.0  0.96799  0.86773  0.35745  1.0000
  C   C591      1.0  0.00453  0.89126  0.35009  1.0000
  C   C592      1.0  0.85615  0.00082  0.35759  1.0000
  C   C593      1.0  0.97261  0.90417  0.32655  1.0000
  H   H919      1.0  0.90584  0.84463  0.35528  1.0000
  H   H920      1.0  0.96599  0.85289  0.36927  1.0000
  H   H921      1.0  0.81238  0.65393  0.38986  1.0000
  H   H922      1.0  0.97448  0.91802  0.31448  1.0000
  H   H923      1.0  0.62049  0.94820  0.23561  1.0000
  C   C594      1.0  0.57150  0.98597  0.22703  1.0000
  H   H924      1.0  0.66756  0.70309  0.35669  1.0000
  H   H925      1.0  0.83654  0.97287  0.33405  1.0000
  C   C595      1.0  0.74420  0.72585  0.39040  1.0000
  C   C596      1.0  0.73190  0.70419  0.40548  1.0000
  C   C597      1.0  0.70554  0.66424  0.40548  1.0000
  C   C598      1.0  0.69127  0.64570  0.39037  1.0000
  C   C599      1.0  0.70420  0.66720  0.37529  1.0000
  C   C600      1.0  0.73072  0.70706  0.37529  1.0000
  H   H926      1.0  0.74229  0.71855  0.41723  1.0000
  H   H927      1.0  0.69573  0.64802  0.41717  1.0000
  H   H928      1.0  0.69356  0.65293  0.36354  1.0000
  H   H929      1.0  0.74053  0.72334  0.36361  1.0000
  C   C601      1.0  0.67400  0.82835  0.31344  1.0000
  C   C602      1.0  0.63530  0.80755  0.30790  1.0000
  C   C603      1.0  0.61816  0.82612  0.29876  1.0000
  C   C604      1.0  0.63958  0.86582  0.29530  1.0000
  C   C605      1.0  0.67799  0.88675  0.30117  1.0000
  C   C606      1.0  0.69522  0.86810  0.31017  1.0000
  H   H930      1.0  0.61848  0.77697  0.31076  1.0000
  H   H931      1.0  0.58827  0.80995  0.29466  1.0000
  H   H932      1.0  0.69464  0.91753  0.29869  1.0000
  H   H933      1.0  0.56392  0.67900  0.25661  1.0000
  C   C607      1.0  0.75617  0.60389  0.41056  1.0000
  C   C608      1.0  0.76942  0.55730  0.39800  1.0000
  H   H934      1.0  0.55448  0.96913  0.23771  1.0000
  H   H935      1.0  0.71852  0.98681  0.25495  1.0000
  H   H936      1.0  0.82242  0.61932  0.38052  1.0000
  N   N58       1.0  0.59374  0.74030  0.26038  1.0000
  H   H937      1.0  0.98012  0.96250  0.35205  1.0000
  H   H938      1.0  0.53399  0.69714  0.26462  1.0000
  Fe  Fe124     1.0  0.51006  0.79375  0.24706  1.0000
  C   C609      1.0  0.81072  0.62535  0.39191  1.0000
  H   H939      1.0  0.91829  0.98485  0.35829  1.0000
  S   S251      1.0  0.53176  0.89388  0.26251  1.0000
  H   H940      1.0  0.78742  0.55776  0.40895  1.0000
  H   H941      1.0  0.00503  0.77598  0.30481  1.0000
  Fe  Fe125     1.0  0.60588  0.51998  0.44579  1.0000
  H   H942      1.0  0.98745  0.54761  0.44702  1.0000
  H   H943      1.0  0.74505  0.61986  0.37879  1.0000
  H   H944      1.0  0.78024  0.54936  0.38689  1.0000
  S   S252      1.0  0.58005  0.51082  0.41998  1.0000
  H   H945      1.0  0.51681  0.99479  0.44747  1.0000
  H   H946      1.0  0.55995  0.76622  0.26787  1.0000
  S   S253      1.0  0.50840  0.80495  0.27419  1.0000
  H   H947      1.0  0.63479  0.92454  0.25123  1.0000
  H   H948      1.0  0.77342  0.60445  0.42180  1.0000
  C   C610      1.0  0.98441  0.52642  0.45655  1.0000
  C   C611      1.0  0.60638  0.73653  0.27747  1.0000
  C   C612      1.0  0.62518  0.74859  0.24841  1.0000
  H   H949      1.0  0.63346  0.76318  0.28099  1.0000
  H   H950      1.0  0.72551  0.58192  0.41319  1.0000
  C   C613      1.0  0.66629  0.72986  0.35367  1.0000
  N   N59       1.0  0.64523  0.73779  0.36667  1.0000
  C   C614      1.0  0.60592  0.70407  0.36882  1.0000
  C   C615      1.0  0.66672  0.74503  0.38265  1.0000
  C   C616      1.0  0.64199  0.77208  0.36153  1.0000
  H   H951      1.0  0.60740  0.67771  0.37273  1.0000
  H   H952      1.0  0.58903  0.69771  0.35695  1.0000
  H   H953      1.0  0.58915  0.70906  0.37852  1.0000
  H   H954      1.0  0.69710  0.76936  0.38134  1.0000
  H   H955      1.0  0.66866  0.71929  0.38714  1.0000
  H   H956      1.0  0.65253  0.75247  0.39264  1.0000
  H   H957      1.0  0.67114  0.79795  0.35971  1.0000
  H   H958      1.0  0.62629  0.77908  0.37100  1.0000
  H   H959      1.0  0.62642  0.76785  0.34939  1.0000
  H   H960      1.0  0.65214  0.72636  0.34123  1.0000
  N   N60       1.0  0.66389  0.98624  0.25280  1.0000
  C   C617      1.0  0.96529  0.61276  0.23141  1.0000
  H   H961      1.0  0.69675  0.75396  0.35228  1.0000
  H   H962      1.0  0.75727  0.63230  0.40920  1.0000
  H   H963      1.0  0.00457  0.83806  0.32662  1.0000
  H   H964      1.0  0.58365  0.73135  0.28684  1.0000
  H   H965      1.0  0.75488  0.58516  0.36935  1.0000
  H   H966      1.0  0.99581  0.98690  0.33208  1.0000
  N   N61       1.0  0.77040  0.59467  0.39537  1.0000
  C   C618      1.0  0.74521  0.59221  0.38105  1.0000
  C   C619      1.0  0.64574  0.95077  0.24298  1.0000
  H   H967      1.0  0.54833  0.70571  0.24313  1.0000
  H   H968      1.0  0.71444  0.56951  0.38330  1.0000
  H   H969      1.0  0.60974  0.98529  0.25682  1.0000
  H   H970      1.0  0.57661  0.77677  0.24670  1.0000
  H   H971      1.0  0.00444  0.77549  0.32728  1.0000
  H   H972      1.0  0.73936  0.53355  0.40055  1.0000
  H   H973      1.0  0.51893  0.50953  0.44475  1.0000
  H   H974      1.0  0.61251  0.71213  0.27866  1.0000
  H   H975      1.0  0.68532  0.96219  0.27185  1.0000
  C   C620      1.0  0.85470  0.99978  0.34014  1.0000
  C   C621      1.0  0.97445  0.97979  0.34234  1.0000
  H   H976      1.0  0.94490  0.96063  0.33714  1.0000
  C   C622      1.0  0.58484  0.77227  0.25960  1.0000
  H   H977      1.0  0.99594  0.51481  0.24245  1.0000
  H   H978      1.0  0.66663  0.95010  0.23405  1.0000
  H   H979      1.0  0.61019  0.80000  0.26346  1.0000
  C   C623      1.0  0.63453  0.98632  0.26400  1.0000
  H   H980      1.0  0.62225  0.96084  0.27279  1.0000
  H   H981      1.0  0.65205  0.77605  0.25129  1.0000
  H   H982      1.0  0.95379  0.98763  0.37320  1.0000
  H   H983      1.0  0.00422  0.83789  0.30419  1.0000
  S   S254      1.0  0.73490  0.52135  0.44133  1.0000
  Fe  Fe126     1.0  0.67717  0.51637  0.43405  1.0000
  C   C624      1.0  0.94844  0.00385  0.36288  1.0000
  H   H984      1.0  0.54425  0.62441  0.46556  1.0000
  Fe  Fe127     1.0  0.70256  0.56719  0.66026  1.0000
  S   S255      1.0  0.72477  0.57535  0.68670  1.0000
  S   S256      1.0  0.72971  0.60717  0.63759  1.0000
  C   C625      1.0  0.91110  0.78928  0.53854  1.0000
  Fe  Fe128     1.0  0.66174  0.55124  0.69393  1.0000
  H   H985      1.0  0.91741  0.85522  0.50896  1.0000
  C   C626      1.0  0.94687  0.80694  0.51264  1.0000
  S   S257      1.0  0.64030  0.54688  0.66744  1.0000
  Fe  Fe129     1.0  0.93538  0.77441  0.60887  1.0000
  S   S258      1.0  0.91590  0.76705  0.58203  1.0000
  S   S259      1.0  0.90795  0.73323  0.63105  1.0000
  H   H986      1.0  0.55581  0.76951  0.54222  1.0000
  H   H987      1.0  0.58775  0.78213  0.55996  1.0000
  Fe  Fe130     1.0  0.92469  0.82716  0.58356  1.0000
  S   S260      1.0  0.88523  0.84606  0.57064  1.0000
  Fe  Fe131     1.0  0.97997  0.79642  0.57598  1.0000
  H   H988      1.0  0.53121  0.97869  0.52572  1.0000
  S   S261      1.0  0.93877  0.83192  0.61081  1.0000
  H   H989      1.0  0.56382  0.97267  0.49163  1.0000
  H   H990      1.0  0.97920  0.87862  0.52458  1.0000
  H   H991      1.0  0.61868  0.88619  0.55791  1.0000
  S   S262      1.0  0.55626  0.92735  0.54792  1.0000
  C   C627      1.0  0.96345  0.85437  0.53377  1.0000
  H   H992      1.0  0.89908  0.79857  0.54876  1.0000
  H   H993      1.0  0.78241  0.54119  0.66702  1.0000
  H   H994      1.0  0.57190  0.86735  0.53283  1.0000
  S   S263      1.0  0.84091  0.95280  0.61144  1.0000
  H   H995      1.0  0.95762  0.56866  0.48114  1.0000
  H   H996      1.0  0.90914  0.56293  0.52158  1.0000
  H   H997      1.0  0.68313  0.95762  0.52426  1.0000
  C   C628      1.0  0.60735  0.94652  0.54808  1.0000
  C   C629      1.0  0.62745  0.94513  0.53412  1.0000
  C   C630      1.0  0.66778  0.95896  0.53507  1.0000
  C   C631      1.0  0.68847  0.97437  0.54991  1.0000
  C   C632      1.0  0.66848  0.97618  0.56379  1.0000
  C   C633      1.0  0.62812  0.96246  0.56283  1.0000
  H   H998      1.0  0.61208  0.93316  0.52264  1.0000
  H   H999      1.0  0.51182  0.97877  0.50526  1.0000
  H   H1000     1.0  0.61286  0.96372  0.57369  1.0000
  C   C634      1.0  0.87506  0.87797  0.58150  1.0000
  C   C635      1.0  0.85163  0.89171  0.57408  1.0000
  C   C636      1.0  0.84183  0.91574  0.58292  1.0000
  C   C637      1.0  0.85470  0.92534  0.59936  1.0000
  C   C638      1.0  0.87851  0.91198  0.60667  1.0000
  C   C639      1.0  0.88924  0.88905  0.59767  1.0000
  H   H1001     1.0  0.84066  0.88349  0.56154  1.0000
  H   H1002     1.0  0.82336  0.92586  0.57719  1.0000
  H   H1003     1.0  0.88884  0.91961  0.61933  1.0000
  H   H1004     1.0  0.90817  0.87972  0.60335  1.0000
  H   H1005     1.0  0.98515  0.84708  0.53935  1.0000
  H   H1006     1.0  0.95231  0.53538  0.51657  1.0000
  C   C640      1.0  0.77871  0.64387  0.63623  1.0000
  C   C641      1.0  0.79424  0.66024  0.62047  1.0000
  C   C642      1.0  0.83377  0.68795  0.61868  1.0000
  C   C643      1.0  0.85795  0.69973  0.63272  1.0000
  C   C644      1.0  0.84227  0.68391  0.64854  1.0000
  C   C645      1.0  0.80271  0.65625  0.65032  1.0000
  H   H1007     1.0  0.77576  0.65070  0.60953  1.0000
  H   H1008     1.0  0.84569  0.69956  0.60642  1.0000
  H   H1009     1.0  0.86084  0.69308  0.65946  1.0000
  H   H1010     1.0  0.79086  0.64431  0.66256  1.0000
  H   H1011     1.0  0.86283  0.54359  0.64331  1.0000
  C   C646      1.0  0.59757  0.63984  0.69944  1.0000
  C   C647      1.0  0.61464  0.61602  0.69980  1.0000
  H   H1012     1.0  0.54663  0.60112  0.48481  1.0000
  C   C648      1.0  0.84707  0.60175  0.63780  1.0000
  H   H1013     1.0  0.59245  0.65028  0.68755  1.0000
  H   H1014     1.0  0.62255  0.60822  0.68827  1.0000
  S   S264      1.0  0.56618  0.68059  0.71321  1.0000
  H   H1015     1.0  0.93130  0.78033  0.54436  1.0000
  H   H1016     1.0  0.92579  0.58796  0.48451  1.0000
  C   C649      1.0  0.58338  0.79276  0.54753  1.0000
  H   H1017     1.0  0.64433  0.86643  0.54748  1.0000
  H   H1018     1.0  0.55368  0.81354  0.57284  1.0000
  H   H1019     1.0  0.54975  0.81886  0.52590  1.0000
  S   S265      1.0  0.98680  0.85604  0.57553  1.0000
  H   H1020     1.0  0.86785  0.56840  0.66239  1.0000
  H   H1021     1.0  0.96247  0.82986  0.50288  1.0000
  C   C650      1.0  0.57606  0.84182  0.53210  1.0000
  H   H1022     1.0  0.60751  0.79678  0.53922  1.0000
  C   C651      1.0  0.84643  0.54840  0.65325  1.0000
  H   H1023     1.0  0.82855  0.52025  0.65996  1.0000
  C   C652      1.0  0.99528  0.99376  0.59745  1.0000
  Fe  Fe132     1.0  0.71080  0.51328  0.68586  1.0000
  H   H1024     1.0  0.58176  0.96987  0.51207  1.0000
  H   H1025     1.0  0.77508  0.54788  0.62862  1.0000
  S   S266      1.0  0.53186  0.88588  0.50204  1.0000
  H   H1026     1.0  0.80993  0.53322  0.62331  1.0000
  N   N62       1.0  0.58216  0.82906  0.54888  1.0000
  H   H1027     1.0  0.89098  0.84177  0.52834  1.0000
  N   N63       1.0  0.93115  0.82052  0.52584  1.0000
  S   S267      1.0  0.99922  0.79989  0.60286  1.0000
  C   C653      1.0  0.79998  0.56871  0.65983  1.0000
  N   N64       1.0  0.82017  0.78623  0.62587  1.0000
  C   C654      1.0  0.83439  0.77710  0.61065  1.0000
  C   C655      1.0  0.79590  0.75026  0.63568  1.0000
  C   C656      1.0  0.79679  0.80474  0.62105  1.0000
  C   C657      1.0  0.85373  0.81280  0.63609  1.0000
  H   H1028     1.0  0.85131  0.80330  0.60257  1.0000
  H   H1029     1.0  0.80998  0.75565  0.60300  1.0000
  H   H1030     1.0  0.85383  0.76500  0.61383  1.0000
  H   H1031     1.0  0.81305  0.73628  0.63993  1.0000
  H   H1032     1.0  0.78378  0.75584  0.64705  1.0000
  H   H1033     1.0  0.77100  0.72878  0.62822  1.0000
  H   H1034     1.0  0.81419  0.83185  0.61351  1.0000
  H   H1035     1.0  0.78590  0.81247  0.63221  1.0000
  H   H1036     1.0  0.77115  0.78537  0.61338  1.0000
  H   H1037     1.0  0.87230  0.79985  0.63975  1.0000
  H   H1038     1.0  0.84415  0.82004  0.64778  1.0000
  H   H1039     1.0  0.87253  0.84038  0.62915  1.0000
  S   S268      1.0  0.00340  0.78363  0.55254  1.0000
  S   S269      1.0  0.76714  0.99408  0.59953  1.0000
  H   H1040     1.0  0.95263  0.86521  0.54390  1.0000
  N   N65       1.0  0.95992  0.58897  0.50592  1.0000
  C   C658      1.0  0.79443  0.53713  0.63390  1.0000
  H   H1041     1.0  0.77940  0.57808  0.65487  1.0000
  H   H1042     1.0  0.94961  0.60562  0.52975  1.0000
  S   S270      1.0  0.73895  0.99032  0.55044  1.0000
  H   H1043     1.0  0.99584  0.56272  0.50458  1.0000
  H   H1044     1.0  0.92335  0.78138  0.50637  1.0000
  C   C659      1.0  0.52644  0.60427  0.47585  1.0000
  H   H1045     1.0  0.68410  0.98804  0.57527  1.0000
  Fe  Fe133     1.0  0.00069  0.85715  0.60269  1.0000
  C   C660      1.0  0.97574  0.56519  0.51339  1.0000
  H   H1046     1.0  0.60119  0.84979  0.52368  1.0000
  N   N66       1.0  0.82199  0.56398  0.64620  1.0000
  H   H1047     1.0  0.96793  0.79839  0.51795  1.0000
  H   H1048     1.0  0.62571  0.84975  0.56826  1.0000
  H   H1049     1.0  0.53182  0.51572  0.49813  1.0000
  C   C661      1.0  0.61933  0.85905  0.55591  1.0000
  C   C662      1.0  0.53301  0.99750  0.51477  1.0000
  H   H1050     1.0  0.54346  0.67795  0.47975  1.0000
  H   H1051     1.0  0.82942  0.61328  0.63159  1.0000
  H   H1052     1.0  0.97141  0.96488  0.60161  1.0000
  C   C663      1.0  0.58358  0.99021  0.50182  1.0000
  H   H1053     1.0  0.91398  0.54114  0.49310  1.0000
  H   H1054     1.0  0.98149  0.64706  0.49636  1.0000
  H   H1055     1.0  0.54949  0.65775  0.49927  1.0000
  C   C664      1.0  0.53002  0.51357  0.47124  1.0000
  Fe  Fe134     1.0  0.82422  0.99421  0.59875  1.0000
  C   C665      1.0  0.93827  0.57090  0.49051  1.0000
  H   H1056     1.0  0.86686  0.62365  0.64680  1.0000
  H   H1057     1.0  0.86546  0.59961  0.62798  1.0000
  H   H1058     1.0  0.88651  0.76324  0.53304  1.0000
  C   C666      1.0  0.51406  0.51111  0.48708  1.0000
  H   H1059     1.0  0.81958  0.59048  0.66888  1.0000
  H   H1060     1.0  0.87843  0.80669  0.51245  1.0000
  C   C667      1.0  0.93373  0.59189  0.51804  1.0000
  H   H1061     1.0  0.92122  0.60966  0.51284  1.0000
  C   C668      1.0  0.90327  0.83152  0.51853  1.0000
  Fe  Fe135     1.0  0.51422  0.89010  0.52791  1.0000
  H   H1062     1.0  0.93315  0.96657  0.57700  1.0000
  C   C669      1.0  0.99225  0.62799  0.50176  1.0000
  H   H1063     1.0  0.99227  0.57796  0.52508  1.0000
  H   H1064     1.0  0.54785  0.84951  0.56107  1.0000
  C   C670      1.0  0.52757  0.65716  0.49019  1.0000
  H   H1065     1.0  0.92954  0.99414  0.60412  1.0000
  H   H1066     1.0  0.61374  0.00473  0.49680  1.0000
  H   H1067     1.0  0.97715  0.99018  0.56486  1.0000
  C   C671      1.0  0.95826  0.99521  0.57342  1.0000
  C   C672      1.0  0.54984  0.82266  0.55999  1.0000
  C   C673      1.0  0.62168  0.60258  0.71509  1.0000
  S   S271      1.0  0.57897  0.52483  0.46979  1.0000
  C   C674      1.0  0.58708  0.65017  0.71431  1.0000
  H   H1068     1.0  0.51043  0.66816  0.49668  1.0000
  H   H1069     1.0  0.50808  0.57571  0.47023  1.0000
  H   H1070     1.0  0.52132  0.80000  0.55520  1.0000
  H   H1071     1.0  0.99493  0.72257  0.57622  1.0000
  C   C675      1.0  0.00466  0.51058  0.48291  1.0000
  H   H1072     1.0  0.72349  0.77414  0.76622  1.0000
  Fe  Fe136     1.0  0.80139  0.93945  0.85070  1.0000
  S   S272      1.0  0.80845  0.95355  0.82325  1.0000
  S   S273      1.0  0.82498  0.90495  0.86448  1.0000
  Fe  Fe137     1.0  0.74918  0.94811  0.82445  1.0000
  S   S274      1.0  0.70325  0.92424  0.80399  1.0000
  H   H1073     1.0  0.86751  0.68997  0.88048  1.0000
  S   S275      1.0  0.73987  0.92869  0.85150  1.0000
  H   H1074     1.0  0.52803  0.55989  0.72389  1.0000
  H   H1075     1.0  0.50650  0.60797  0.72776  1.0000
  H   H1076     1.0  0.66062  0.98293  0.83733  1.0000
  Fe  Fe138     1.0  0.84841  0.53274  0.90360  1.0000
  S   S276      1.0  0.86623  0.57492  0.88138  1.0000
  S   S277      1.0  0.84272  0.54367  0.93046  1.0000
  Fe  Fe139     1.0  0.95976  0.83058  0.83536  1.0000
  H   H1077     1.0  0.95795  0.64245  0.92429  1.0000
  S   S278      1.0  0.90487  0.82730  0.82482  1.0000
  H   H1078     1.0  0.65452  0.71888  0.73230  1.0000
  Fe  Fe140     1.0  0.53638  0.69077  0.73491  1.0000
  S   S279      1.0  0.92244  0.53642  0.95505  1.0000
  Fe  Fe141     1.0  0.54411  0.72363  0.76938  1.0000
  H   H1079     1.0  0.51810  0.98213  0.93846  1.0000
  S   S280      1.0  0.58835  0.74678  0.79044  1.0000
  C   C676      1.0  0.95740  0.96351  0.83782  1.0000
  H   H1080     1.0  0.61680  0.60283  0.74185  1.0000
  H   H1081     1.0  0.68638  0.95974  0.83017  1.0000
  S   S281      1.0  0.53204  0.66552  0.76063  1.0000
  H   H1082     1.0  0.68148  0.96336  0.85216  1.0000
  H   H1083     1.0  0.97297  0.63423  0.89453  1.0000
  H   H1084     1.0  0.94128  0.69934  0.90909  1.0000
  C   C677      1.0  0.89701  0.62533  0.88215  1.0000
  C   C678      1.0  0.90763  0.64450  0.89728  1.0000
  C   C679      1.0  0.93309  0.68463  0.89734  1.0000
  C   C680      1.0  0.94764  0.70590  0.88229  1.0000
  C   C681      1.0  0.93659  0.68676  0.86717  1.0000
  C   C682      1.0  0.91133  0.64665  0.86712  1.0000
  H   H1085     1.0  0.89610  0.62839  0.90889  1.0000
  C   C683      1.0  0.71042  0.76567  0.75356  1.0000
  H   H1086     1.0  0.94782  0.70274  0.85551  1.0000
  H   H1087     1.0  0.90315  0.63195  0.85537  1.0000
  C   C684      1.0  0.84715  0.88385  0.85315  1.0000
  C   C685      1.0  0.87123  0.87232  0.86163  1.0000
  C   C686      1.0  0.88984  0.85590  0.85296  1.0000
  C   C687      1.0  0.88359  0.84981  0.83582  1.0000
  C   C688      1.0  0.85911  0.86089  0.82736  1.0000
  C   C689      1.0  0.84132  0.87834  0.83595  1.0000
  H   H1088     1.0  0.87572  0.87640  0.87495  1.0000
  H   H1089     1.0  0.90835  0.84731  0.85963  1.0000
  H   H1090     1.0  0.85399  0.85608  0.81411  1.0000
  H   H1091     1.0  0.82245  0.88670  0.82934  1.0000
  C   C690      1.0  0.61956  0.79626  0.79418  1.0000
  C   C691      1.0  0.64752  0.80670  0.80695  1.0000
  C   C692      1.0  0.67367  0.84577  0.81001  1.0000
  C   C693      1.0  0.67198  0.87472  0.80032  1.0000
  C   C694      1.0  0.64400  0.86428  0.78756  1.0000
  C   C695      1.0  0.61789  0.82521  0.78448  1.0000
  H   H1092     1.0  0.64907  0.78443  0.81447  1.0000
  H   H1093     1.0  0.69515  0.85345  0.81984  1.0000
  H   H1094     1.0  0.64251  0.88654  0.78001  1.0000
  H   H1095     1.0  0.59650  0.81754  0.77461  1.0000
  H   H1096     1.0  0.96338  0.97168  0.82433  1.0000
  H   H1097     1.0  0.98156  0.95940  0.84290  1.0000
  S   S282      1.0  0.55216  0.75006  0.74345  1.0000
  H   H1098     1.0  0.96854  0.61785  0.94106  1.0000
  H   H1099     1.0  0.82741  0.67624  0.86642  1.0000
  S   S283      1.0  0.97745  0.84274  0.86211  1.0000
  S   S284      1.0  0.97898  0.75627  0.88297  1.0000
  C   C696      1.0  0.62810  0.51807  0.94772  1.0000
  C   C697      1.0  0.61126  0.61302  0.72998  1.0000
  H   H1100     1.0  0.65793  0.73062  0.77844  1.0000
  H   H1101     1.0  0.00049  0.58002  0.93542  1.0000
  H   H1102     1.0  0.53913  0.93414  0.93361  1.0000
  H   H1103     1.0  0.58653  0.64481  0.74114  1.0000
  H   H1104     1.0  0.94368  0.58322  0.89803  1.0000
  C   C698      1.0  0.95374  0.51762  0.95991  1.0000
  Fe  Fe142     1.0  0.87355  0.50965  0.93607  1.0000
  H   H1105     1.0  0.64934  0.69706  0.76213  1.0000
  C   C699      1.0  0.64721  0.72290  0.76540  1.0000
  H   H1106     1.0  0.62156  0.73649  0.73608  1.0000
  H   H1107     1.0  0.99280  0.60318  0.89079  1.0000
  H   H1108     1.0  0.90714  0.75784  0.88874  1.0000
  Fe  Fe143     1.0  0.99486  0.79711  0.86032  1.0000
  H   H1109     1.0  0.60281  0.00430  0.90081  1.0000
  H   H1110     1.0  0.91104  0.74079  0.85995  1.0000
  H   H1111     1.0  0.89816  0.77540  0.85180  1.0000
  H   H1112     1.0  0.94363  0.00318  0.87221  1.0000
  C   C700      1.0  0.95991  0.61616  0.92766  1.0000
  C   C701      1.0  0.88262  0.76259  0.88474  1.0000
  H   H1113     1.0  0.66834  0.76822  0.72717  1.0000
  C   C702      1.0  0.65277  0.74435  0.73653  1.0000
  S   S285      1.0  0.97295  0.78187  0.83403  1.0000
  C   C703      1.0  0.59398  0.63666  0.72961  1.0000
  H   H1114     1.0  0.52640  0.93333  0.91192  1.0000
  H   H1115     1.0  0.86410  0.75743  0.89590  1.0000
  H   H1116     1.0  0.89550  0.79358  0.88090  1.0000
  H   H1117     1.0  0.61585  0.71433  0.76552  1.0000
  C   C704      1.0  0.66573  0.78918  0.75854  1.0000
  H   H1118     1.0  0.57457  0.94323  0.91776  1.0000
  C   C705      1.0  0.66604  0.95838  0.83994  1.0000
  H   H1119     1.0  0.65187  0.89240  0.85629  1.0000
  H   H1120     1.0  0.50571  0.98189  0.91674  1.0000
  H   H1121     1.0  0.55489  0.99512  0.89496  1.0000
  N   N67       1.0  0.66906  0.75554  0.75350  1.0000
  H   H1122     1.0  0.80811  0.73910  0.87659  1.0000
  H   H1123     1.0  0.57540  0.89293  0.85337  1.0000
  H   H1124     1.0  0.72781  0.79031  0.74475  1.0000
  N   N68       1.0  0.62953  0.92097  0.83998  1.0000
  C   C706      1.0  0.61078  0.91528  0.82339  1.0000
  C   C707      1.0  0.63822  0.88942  0.84375  1.0000
  H   H1125     1.0  0.67747  0.79828  0.77135  1.0000
  C   C708      1.0  0.82817  0.74451  0.86599  1.0000
  H   H1126     1.0  0.81075  0.72580  0.85558  1.0000
  C   C709      1.0  0.97372  0.60803  0.89928  1.0000
  H   H1127     1.0  0.83954  0.77498  0.86153  1.0000
  H   H1128     1.0  0.58329  0.88716  0.82288  1.0000
  N   N69       1.0  0.56313  0.98994  0.92139  1.0000
  C   C710      1.0  0.88605  0.74511  0.85653  1.0000
  C   C711      1.0  0.84402  0.69634  0.87657  1.0000
  H   H1129     1.0  0.61966  0.00423  0.93118  1.0000
  C   C712      1.0  0.92058  0.99680  0.84010  1.0000
  H   H1130     1.0  0.82417  0.68911  0.88743  1.0000
  N   N70       1.0  0.86016  0.73710  0.87097  1.0000
  H   H1131     1.0  0.63008  0.91537  0.81338  1.0000
  H   H1132     1.0  0.68175  0.81445  0.74987  1.0000
  C   C713      1.0  0.60316  0.92086  0.85289  1.0000
  H   H1133     1.0  0.87050  0.72607  0.84593  1.0000
  H   H1134     1.0  0.92505  0.00604  0.82667  1.0000
  N   N71       1.0  0.98754  0.61224  0.91677  1.0000
  H   H1135     1.0  0.96151  0.55113  0.92171  1.0000
  H   H1136     1.0  0.59595  0.94428  0.85037  1.0000
  H   H1137     1.0  0.71394  0.74089  0.74978  1.0000
  H   H1138     1.0  0.58403  0.99710  0.94676  1.0000
  H   H1139     1.0  0.93014  0.59086  0.92673  1.0000
  H   H1140     1.0  0.91843  0.95356  0.86661  1.0000
  H   H1141     1.0  0.63482  0.78240  0.75870  1.0000
  H   H1142     1.0  0.61683  0.92551  0.86551  1.0000
  C   C714      1.0  0.57889  0.52476  0.96242  1.0000
  H   H1143     1.0  0.61154  0.86061  0.84343  1.0000
  H   H1144     1.0  0.65883  0.88934  0.83447  1.0000
  S   S286      1.0  0.64341  0.57288  0.71626  1.0000
  H   H1145     1.0  0.60392  0.93862  0.82007  1.0000
  C   C715      1.0  0.94615  0.98125  0.86487  1.0000
  C   C716      1.0  0.55024  0.94829  0.92113  1.0000
  C   C717      1.0  0.99030  0.57785  0.92223  1.0000
  Fe  Fe144     1.0  0.76642  0.99185  0.85692  1.0000
  H   H1146     1.0  0.89270  0.96900  0.84111  1.0000
  H   H1147     1.0  0.63444  0.54333  0.93935  1.0000
  C   C718      1.0  0.52992  0.99518  0.92591  1.0000
  H   H1148     1.0  0.52815  0.58389  0.75221  1.0000
  S   S287      1.0  0.82737  0.00083  0.85847  1.0000
  H   H1149     1.0  0.93030  0.93506  0.83864  1.0000
  H   H1150     1.0  0.58244  0.54941  0.95422  1.0000
  N   N72       1.0  0.95353  0.99303  0.84702  1.0000
  H   H1151     1.0  0.96998  0.97727  0.87047  1.0000
  H   H1152     1.0  0.64856  0.52854  0.95849  1.0000
  C   C719      1.0  0.57785  0.00782  0.90470  1.0000
  C   C720      1.0  0.59451  0.00849  0.93386  1.0000
  S   S288      1.0  0.74144  0.00845  0.87869  1.0000
