data_image0
_chemical_formula_structural       FeS2FeS2FeSFeS3FeS2FeS2FeSFeS3FeS2FeS2FeSFeS3FeS2FeS2FeSFeS3FeS2FeS2FeSFeS3FeS2FeS2FeSFeS3FeS2FeS2FeSFeS3FeS2FeS2FeSFeS3FeS2FeS2FeSFeS3FeS2FeS2FeSFeS3FeS2FeS2FeSFeS3FeS2FeS2FeSFeS3FeS2FeS2FeSFeS3FeS2FeS2FeSFeS3FeS2FeS2FeSFeS3FeS2FeS2FeSFeS3FeS2FeS2FeSFeS3FeS2FeS2FeSFeS3FeS2FeS2FeSFeS3FeS2FeS2FeSFeS3FeS2FeS2FeSFeS3FeS2FeS2FeSFeS3FeS2FeS2FeSFeS3FeS2FeS2FeSFeS3C6H4C6H4C6H4C6H4C6H4C6H4C6H4C6H4C6H4C6H4C6H4C6H4C6H4C6H4C6H4C6H4C6H4C6H4C6H4C6H4C6H4C6H4C6H4C6H4C6H4C6H4C6H4C6H4C6H4C6H4C6H4C6H4C6H4C6H4C6H4C6H4C6H4C6H4C6H4C6H4C6H4C6H4C6H4C6H4C6H4C6H4C6H4C6H4NC4H12NC4H12NC4H12NC4H12NC4H12NC4H12NC4H12NC4H12NC4H12NC4H12NC4H12NC4H12NC4H12NC4H12NC4H12NC4H12NC4H12NC4H12NC4H12NC4H12NC4H12NC4H12NC4H12NC4H12NC4H12NC4H12NC4H12NC4H12NC4H12NC4H12NC4H12NC4H12NC4H12NC4H12NC4H12NC4H12NC4H12NC4H12NC4H12NC4H12NC4H12NC4H12NC4H12NC4H12NC4H12NC4H12NC4H12NC4H12
_chemical_formula_sum              "Fe96 S192 C480 H768 N48"
_cell_length_a       35.153622020609575
_cell_length_b       37.08217112747649
_cell_length_c       37.137433872698736
_cell_angle_alpha    90.35945938986075
_cell_angle_beta     90.28448526175475
_cell_angle_gamma    89.82847696280372

_space_group_name_H-M_alt    "P 1"
_space_group_IT_number       1

loop_
  _space_group_symop_operation_xyz
  'x, y, z'

loop_
  _atom_site_type_symbol
  _atom_site_label
  _atom_site_symmetry_multiplicity
  _atom_site_fract_x
  _atom_site_fract_y
  _atom_site_fract_z
  _atom_site_occupancy
  Fe  Fe1       1.0  0.5232039350309098  0.9747625929921143  0.4403576073487005  1.0000
  S   S1        1.0  0.5421583750662338  0.005623327886023821  0.3917709762734135  1.0000
  S   S2        1.0  0.5372606075946355  0.9166065635028147  0.45001591636215094  1.0000
  Fe  Fe2       1.0  0.4869319906183236  0.039677442290556586  0.4752499014786273  1.0000
  S   S3        1.0  0.5032497179298988  0.07656499356579083  0.4307286757392418  1.0000
  S   S4        1.0  0.4521745226670296  0.06250815512719754  0.5200538789271405  1.0000
  Fe  Fe3       1.0  0.48448962030822845  0.03144338817087111  0.3946475559303923  1.0000
  S   S5        1.0  0.44886645863832236  0.0462415091316184  0.3467285906914789  1.0000
  Fe  Fe4       1.0  0.5590423574803598  0.047632352746251216  0.43244050575239923  1.0000
  S   S6        1.0  0.6131916402639707  0.07863326237241375  0.42786166446691787  1.0000
  S   S7        1.0  0.4634892710546252  0.9964842211153981  0.43924354085539025  1.0000
  S   S8        1.0  0.5447467760090373  0.014874265416426669  0.48090084157485496  1.0000
  Fe  Fe5       1.0  0.6282295143749759  0.1803017874398668  0.6026238779032557  1.0000
  S   S9        1.0  0.6864859147482265  0.18287428507804834  0.6266485178442815  1.0000
  S   S10       1.0  0.6182592117693283  0.20077755166349606  0.5468325345372154  1.0000
  Fe  Fe6       1.0  0.5934907088446342  0.15449827942310151  0.6715750742153581  1.0000
  S   S11       1.0  0.648715713881389  0.1557666744581642  0.7024047046589295  1.0000
  S   S12       1.0  0.5386878168140543  0.1383780339704239  0.6973769040278479  1.0000
  Fe  Fe7       1.0  0.6577319244755676  0.20846493253455595  0.6741180996297647  1.0000
  S   S13       1.0  0.6849622063002909  0.2603534323668976  0.6920634957388511  1.0000
  Fe  Fe8       1.0  0.6722727133649372  0.13020184600713797  0.6521927410569768  1.0000
  S   S14       1.0  0.7167285819017236  0.08650186437577932  0.6530741126218766  1.0000
  S   S15       1.0  0.6002122657021141  0.2095727014718358  0.6480972383974708  1.0000
  S   S16       1.0  0.6164193411883029  0.1250108680587549  0.623373903380138  1.0000
  Fe  Fe9       1.0  0.7895868476692951  0.8810472694949046  0.5682745622657752  1.0000
  S   S17       1.0  0.7497708861170134  0.8605550588494099  0.6104284017346521  1.0000
  S   S18       1.0  0.8506399178407471  0.8900409371833197  0.58381935393243  1.0000
  Fe  Fe10      1.0  0.7297008167637975  0.8793590814020159  0.5097590141053454  1.0000
  S   S19       1.0  0.6855008057857437  0.8567113974041095  0.5462027055770047  1.0000
  S   S20       1.0  0.7152546742029469  0.897340707098828  0.453852105759877  1.0000
  Fe  Fe11      1.0  0.7068073469844871  0.8977059741464082  0.5857315631315642  1.0000
  S   S21       1.0  0.6608973100404756  0.929376043967169  0.6137149513966534  1.0000
  Fe  Fe12      1.0  0.7323931199810411  0.8215168791467794  0.5673094521953309  1.0000
  S   S22       1.0  0.7272980237495669  0.7635999429656648  0.5833416651871202  1.0000
  S   S23       1.0  0.7485637567567912  0.9227455993825325  0.5480554721596483  1.0000
  S   S24       1.0  0.7744338031479165  0.8395721748895245  0.5264275108181619  1.0000
  Fe  Fe13      1.0  0.638836378415029  0.182117819633328  0.9753875044648215  1.0000
  S   S25       1.0  0.6989656328521169  0.1799020287314762  0.9950587922920521  1.0000
  S   S26       1.0  0.6228728424651733  0.16642250636354733  0.9192069327012905  1.0000
  Fe  Fe14      1.0  0.6090766984390605  0.21249809558746455  0.04509092137182379  1.0000
  S   S27       1.0  0.666495926128498  0.2127160369633973  0.07164831660824311  1.0000
  S   S28       1.0  0.5564485227418877  0.2344520724398924  0.0714092240844788  1.0000
  Fe  Fe15      1.0  0.686884686021476  0.2340754035134916  0.018974952410109266  1.0000
  S   S29       1.0  0.7290505604936831  0.27922401739896674  0.0192697937814108  1.0000
  Fe  Fe16      1.0  0.6735416100010598  0.1583231354587188  0.04569042139634605  1.0000
  S   S30       1.0  0.7085529869319228  0.11442501674105862  0.07066254201888866  1.0000
  S   S31       1.0  0.6289952592290262  0.2385638384502705  0.9942349662209896  1.0000
  S   S32       1.0  0.6138969518618127  0.1557424071267203  0.023919765699991435  1.0000
  Fe  Fe17      1.0  0.5624829716993753  0.9808426506527234  0.13728690815479783  1.0000
  S   S33       1.0  0.5351800090020048  0.9266738432612608  0.14129769730575667  1.0000
  S   S34       1.0  0.6255212554302311  0.9836144201227974  0.14460848730834425  1.0000
  Fe  Fe18      1.0  0.48762534001373287  0.018847854504756123  0.12515215571703736  1.0000
  S   S35       1.0  0.45303095043155284  0.9681798022600329  0.1279392587136642  1.0000
  S   S36       1.0  0.4633922180238192  0.07450706769418858  0.12165486278272634  1.0000
  Fe  Fe19      1.0  0.4911809574276831  0.9548087456537572  0.17452319578968087  1.0000
  S   S37       1.0  0.4724088376556422  0.9287953035774671  0.22557562770229256  1.0000
  Fe  Fe20      1.0  0.5000439126347449  0.9446536730312014  0.09448772842828575  1.0000
  S   S38       1.0  0.49190197299075566  0.9057926132389268  0.04878999260830862  1.0000
  S   S39       1.0  0.5217916648927157  0.007563271018158124  0.17494390810605168  1.0000
  S   S40       1.0  0.5313897802298211  0.9967563900522183  0.08716819593662632  1.0000
  Fe  Fe21      1.0  0.5200294175406686  0.9751907843998112  0.873777778672674  1.0000
  S   S41       1.0  0.5658056333979754  0.9451595127464512  0.9028614630173096  1.0000
  S   S42       1.0  0.4740626264950702  0.9981314135076239  0.9084396669052757  1.0000
  Fe  Fe22      1.0  0.5590814398424936  0.966985226753743  0.802234008272817  1.0000
  S   S43       1.0  0.6084584753438554  0.9361291346674026  0.8251314214591631  1.0000
  S   S44       1.0  0.559259948604419  0.9763038141085592  0.7427485993894895  1.0000
  Fe  Fe23      1.0  0.5636974102506785  0.9069881095765259  0.8561448989866122  1.0000
  S   S45       1.0  0.5627570827754225  0.8469977908312243  0.8629264676764234  1.0000
  Fe  Fe24      1.0  0.6058497434212212  0.9770757679605822  0.869559485912273  1.0000
  S   S46       1.0  0.655751821317197  0.0006764040843358909  0.8988092343631255  1.0000
  S   S47       1.0  0.5141014734924088  0.9343446924102753  0.829437868124556  1.0000
  S   S48       1.0  0.5601751450464361  0.010718687969176077  0.8441510999337634  1.0000
  Fe  Fe25      1.0  0.9625346752322588  0.1758319887096385  0.06931689717719758  1.0000
  S   S49       1.0  0.9728378250069679  0.1752855610649154  0.009904962627868663  1.0000
  S   S50       1.0  0.9495565501187795  0.12533814380750888  0.09916399508919102  1.0000
  Fe  Fe26      1.0  0.9706480496596305  0.2558683024161493  0.07602238129526495  1.0000
  S   S51       1.0  0.9808388727474747  0.2633414350354586  0.016974587072401404  1.0000
  S   S52       1.0  0.9701386645097104  0.30356311984272616  0.1130691450632979  1.0000
  Fe  Fe27      1.0  0.9339372771428818  0.22313709085571562  0.00971425294714745  1.0000
  S   S53       1.0  0.8889464424841461  0.22316558494138136  0.9668408830492901  1.0000
  Fe  Fe28      1.0  0.019055204570588735  0.2150140933817375  0.02245416901270625  1.0000
  S   S54       1.0  0.07593690252870022  0.2154338115130243  0.9947897869910127  1.0000
  S   S55       1.0  0.9198078999829932  0.22048357264952753  0.06837253203778504  1.0000
  S   S56       1.0  0.012639151226406797  0.2110046330593396  0.08220056057957947  1.0000
  Fe  Fe29      1.0  0.1158483254342102  0.017909511537816947  0.21418898988736876  1.0000
  S   S57       1.0  0.06722089380488394  0.0006757205543923561  0.17933127913138996  1.0000
  S   S58       1.0  0.10022281743413908  0.05910775547302327  0.2560086131900441  1.0000
  Fe  Fe30      1.0  0.17041645976142616  0.9659443663278519  0.17839591411516784  1.0000
  S   S59       1.0  0.12644547454886834  0.94440920362191  0.14016212414279985  1.0000
  S   S60       1.0  0.22812920154296215  0.9402458442587585  0.178587058434527  1.0000
  Fe  Fe31      1.0  0.10936094298297783  0.0022608064179934217  0.13458221023952688  1.0000
  S   S61       1.0  0.09542314994576184  0.02820303657714973  0.08188020579634779  1.0000
  Fe  Fe32      1.0  0.08848525308766497  0.9446808612241253  0.18838713077358593  1.0000
  S   S62       1.0  0.04641766022075222  0.9002437262892201  0.1967952126562249  1.0000
  S   S63       1.0  0.15688770663004536  0.02428935328548798  0.1687133420009294  1.0000
  S   S64       1.0  0.13387356771935832  0.9615657545717642  0.22735424712534155  1.0000
  Fe  Fe33      1.0  0.2579011033708121  0.05846708007765389  0.944154904933904  1.0000
  S   S65       1.0  0.2656486389039414  0.11407063746059976  0.9672009721324104  1.0000
  S   S66       1.0  0.22776607988740058  0.04627892461978611  0.8919932293881743  1.0000
  Fe  Fe34      1.0  0.2932915833337093  0.021439909764675358  0.008941575746702624  1.0000
  S   S67       1.0  0.3039488027207183  0.07344464912417159  0.03789555442751147  1.0000
  S   S68       1.0  0.3121004932572668  0.9685265649118415  0.03201737213300748  1.0000
  Fe  Fe35      1.0  0.2456490070093261  0.0894025993724159  0.01882588377676564  1.0000
  S   S69       1.0  0.2042121213449935  0.11373115028394506  0.05843009343010963  1.0000
  Fe  Fe36      1.0  0.3230415979148271  0.09311433523565515  0.984067247000855  1.0000
  S   S70       1.0  0.37829680485387385  0.12233818229632165  0.9803713721647105  1.0000
  S   S71       1.0  0.23336121740214255  0.035079815130420355  0.9943042049649857  1.0000
  S   S72       1.0  0.3171285291998049  0.03981443426232589  0.9565457402023344  1.0000
  Fe  Fe37      1.0  0.024974015559346086  0.6798368070747878  0.2354834404466199  1.0000
  S   S73       1.0  0.0849986791077717  0.697267343005984  0.22522678512298444  1.0000
  S   S74       1.0  0.9797537840968076  0.6773690507278092  0.1925256686041584  1.0000
  Fe  Fe38      1.0  0.04174640876071378  0.6589417057625185  0.31323061212767933  1.0000
  S   S75       1.0  0.10313746185576501  0.6737008675950944  0.3086742129140725  1.0000
  S   S76       1.0  0.02551841724990145  0.641984557314362  0.3691584505761875  1.0000
  Fe  Fe39      1.0  0.0813491873516874  0.7224300029066981  0.28008097527656745  1.0000
  S   S77       1.0  0.10605066703945966  0.7755978335321484  0.29649790715709595  1.0000
  Fe  Fe40      1.0  0.10040256243727641  0.6468028113428843  0.2547753276813254  1.0000
  S   S78       1.0  0.14660258613394683  0.6104327617597373  0.23445805713751042  1.0000
  S   S79       1.0  0.019757867963338338  0.7097827747625407  0.2881289644285576  1.0000
  S   S80       1.0  0.04071332085225899  0.6274802637930091  0.2614065508619604  1.0000
  Fe  Fe41      1.0  0.16194707353296514  0.4167282776517474  0.25707955866331533  1.0000
  S   S81       1.0  0.20610936927153053  0.427431291890461  0.21539822939778297  1.0000
  S   S82       1.0  0.14494524287744517  0.4547328514497079  0.30132678469352436  1.0000
  Fe  Fe42      1.0  0.13821180813732553  0.3465089720376732  0.22254510302186437  1.0000
  S   S83       1.0  0.18006425154396263  0.35076802910729893  0.17737819900247076  1.0000
  S   S84       1.0  0.10184136622658224  0.297272222886793  0.22835966182544265  1.0000
  Fe  Fe43      1.0  0.22053301334787545  0.36892525834602896  0.2205965710446225  1.0000
  S   S85       1.0  0.2822742556818457  0.35341273038054244  0.22249851820743172  1.0000
  Fe  Fe44      1.0  0.1621808814763205  0.4087770738215549  0.1757312380958882  1.0000
  S   S86       1.0  0.15720244650161358  0.440192825273216  0.12438348609613925  1.0000
  S   S87       1.0  0.18017764407700118  0.3595901816629693  0.26626140634023265  1.0000
  S   S88       1.0  0.11644359550057375  0.4031776254515255  0.21700064063208702  1.0000
  Fe  Fe45      1.0  0.0014301718894742521  0.5703022130749839  0.02274629857905275  1.0000
  S   S89       1.0  0.9648658241380189  0.5369502878024418  0.05862293154139553  1.0000
  S   S90       1.0  0.04273790373105468  0.6090498980009902  0.048263395838916257  1.0000
  Fe  Fe46      1.0  0.9702645546408611  0.5352102821670058  0.9544409499511365  1.0000
  S   S91       1.0  0.9314799703100978  0.4987794081109861  0.9852299440143203  1.0000
  S   S92       1.0  0.9708529608202333  0.5273045442849075  0.8941726484175991  1.0000
  Fe  Fe47      1.0  0.9191582300437134  0.5482416107825945  0.0180372503970192  1.0000
  S   S93       1.0  0.8609090088774792  0.565991743564029  0.03502501531029423  1.0000
  Fe  Fe48      1.0  0.9813537054812769  0.4911966534945796  0.022448434541219697  1.0000
  S   S94       1.0  0.995884992177349  0.4384094271800796  0.04887602603423802  1.0000
  S   S95       1.0  0.9542620190977759  0.5855640320126347  0.984799962417145  1.0000
  S   S96       1.0  0.021437781952915014  0.5235477984474359  0.9890134688383827  1.0000
  Fe  Fe49      1.0  0.46559459294025723  0.464360463494087  0.11701877036597434  1.0000
  S   S97       1.0  0.49945185661527597  0.4796538301583591  0.06897901199693979  1.0000
  S   S98       1.0  0.49070792468254615  0.4799039442723644  0.17040245085221734  1.0000
  Fe  Fe50      1.0  0.4064592953322475  0.42602113790793866  0.07237263327126531  1.0000
  S   S99       1.0  0.43618751294606023  0.43713041596428653  0.020038891676170234  1.0000
  S   S100      1.0  0.3513023063419471  0.3955800604241813  0.07173977536712695  1.0000
  Fe  Fe51      1.0  0.48920177585440533  0.423248082939469  0.050569153336396555  1.0000
  S   S101      1.0  0.5423631419918058  0.3982360890475695  0.028904888227565758  1.0000
  Fe  Fe52      1.0  0.44389894917815237  0.49249496033494666  0.043137359174497236  1.0000
  S   S102      1.0  0.44386999375594655  0.5409908327327124  0.0077257328335751385  1.0000
  S   S103      1.0  0.45892277362879336  0.4063544734770422  0.10070811545836181  1.0000
  S   S104      1.0  0.41014393096272417  0.48299777144391876  0.09327104568951812  1.0000
  Fe  Fe53      1.0  0.755353463885008  0.45089536799461877  0.16540091875959817  1.0000
  S   S105      1.0  0.7682209501613052  0.49391052967565985  0.20662675318532325  1.0000
  S   S106      1.0  0.7852937591063159  0.4351719348288507  0.11442823492590308  1.0000
  Fe  Fe54      1.0  0.6853474388376164  0.4250352127750249  0.20308680255134506  1.0000
  S   S107      1.0  0.6902722744712065  0.46532449133749626  0.24783736999660425  1.0000
  S   S108      1.0  0.638205093171643  0.38600935785502966  0.1930628621480033  1.0000
  Fe  Fe55      1.0  0.7053805792344475  0.5045002757804324  0.20488028091116148  1.0000
  S   S109      1.0  0.6788127102024327  0.5593768821310809  0.20714374197457805  1.0000
  Fe  Fe56      1.0  0.7524741893789424  0.4516287366657072  0.24683189803568975  1.0000
  S   S110      1.0  0.7831977050322364  0.4460500786490412  0.2995186941446016  1.0000
  S   S111      1.0  0.6939472161393806  0.4656773488400936  0.15981130600457288  1.0000
  S   S112      1.0  0.746033805986945  0.4073543930296422  0.20599353136204945  1.0000
  Fe  Fe57      1.0  0.6262128465586888  0.734912725619264  0.0180029666317969  1.0000
  S   S113      1.0  0.6647500080782687  0.6955329297944105  0.9899219263695462  1.0000
  S   S114      1.0  0.630900090071935  0.7950468811160555  0.011494731455736762  1.0000
  Fe  Fe58      1.0  0.5818841170140763  0.676612388247139  0.05579195412966875  1.0000
  S   S115      1.0  0.6163084333977021  0.6319630550584544  0.031590123446740614  1.0000
  S   S116      1.0  0.532782961194023  0.6631189572565651  0.09133595557084218  1.0000
  Fe  Fe59      1.0  0.6662509095951265  0.6675241030067374  0.04327199878293486  1.0000
  S   S117      1.0  0.7192918936749958  0.6415391617509414  0.06446407003974675  1.0000
  Fe  Fe60      1.0  0.6116696908633488  0.6634729840195948  0.9807850352609407  1.0000
  S   S118      1.0  0.59756367430872  0.6352232430161632  0.9290665294339142  1.0000
  S   S119      1.0  0.6323620714654756  0.7096085956591689  0.07256109598914828  1.0000
  S   S120      1.0  0.5726198490909995  0.705418549605318  0.0038733798767747185  1.0000
  Fe  Fe61      1.0  0.6409880949955759  0.4049330920173059  0.8223494624963245  1.0000
  S   S121      1.0  0.7016270780509788  0.42366631421780304  0.8190194699867015  1.0000
  S   S122      1.0  0.62605811974477  0.34636318227648083  0.8287274729281313  1.0000
  Fe  Fe62      1.0  0.6089895738932062  0.47957657783316837  0.8053560188447665  1.0000
  S   S123      1.0  0.6669857822676117  0.5030370636268148  0.798105106139683  1.0000
  S   S124      1.0  0.5546350719396393  0.511037384759202  0.7990344504524829  1.0000
  Fe  Fe63      1.0  0.6809781386797247  0.451753626325016  0.7691797669948537  1.0000
  S   S125      1.0  0.7142694648996427  0.4541942795434585  0.7176599627191055  1.0000
  Fe  Fe64      1.0  0.6806314614245935  0.4729169109393475  0.8486848866680133  1.0000
  S   S126      1.0  0.7071642838834619  0.5038433452228936  0.8947783271143486  1.0000
  S   S127      1.0  0.621296885570489  0.4310175178182224  0.7714508762022049  1.0000
  S   S128      1.0  0.6218134217537354  0.4512423997326129  0.8570869046944349  1.0000
  Fe  Fe65      1.0  0.5278815797090268  0.7046852986469254  0.6138469365415123  1.0000
  S   S129      1.0  0.4718838055838539  0.6783546180242775  0.6027790759311327  1.0000
  S   S130      1.0  0.5515339832702344  0.7375613413642143  0.5689583564516963  1.0000
  Fe  Fe66      1.0  0.5329293337970288  0.6750788566007698  0.6895956084062775  1.0000
  S   S131      1.0  0.4768455357014691  0.6468068350825362  0.6848859056371055  1.0000
  S   S132      1.0  0.5710090701138915  0.6688891499977594  0.7380596422709498  1.0000
  Fe  Fe67      1.0  0.49745919804369126  0.6306688373012437  0.6303784579512425  1.0000
  S   S133      1.0  0.4933078098235013  0.5736905322882564  0.6108131889702448  1.0000
  Fe  Fe68      1.0  0.45704757319246847  0.6975758638406768  0.6581691264842134  1.0000
  S   S134      1.0  0.40004262958985953  0.7240164055421152  0.6645032030636443  1.0000
  S   S135      1.0  0.5551556573634627  0.6550456798494607  0.6365759444173454  1.0000
  S   S136      1.0  0.5114615976039385  0.7277305091905198  0.6674633124216386  1.0000
  Fe  Fe69      1.0  0.6392620360395594  0.4429471687650826  0.5334929460379428  1.0000
  S   S137      1.0  0.6584934574754511  0.5004999561259496  0.5365108160026548  1.0000
  S   S138      1.0  0.6151903415379247  0.4142870933761373  0.581355764265403  1.0000
  Fe  Fe70      1.0  0.659657018647305  0.4354187456806867  0.45536239486688784  1.0000
  S   S139      1.0  0.6812094425063551  0.4920628212016031  0.45122235735232935  1.0000
  S   S140      1.0  0.6562517102666601  0.39909458050947927  0.4072728563069787  1.0000
  Fe  Fe71      1.0  0.708619897589893  0.4809843245923701  0.5045603110752562  1.0000
  S   S141      1.0  0.7685964200450834  0.5004058049322253  0.5131628205345214  1.0000
  Fe  Fe72      1.0  0.6297077942705445  0.5064455268081889  0.48327752601950197  1.0000
  S   S142      1.0  0.5978668896930736  0.5579057211869789  0.47441352970064193  1.0000
  S   S143      1.0  0.6918565865014974  0.4226614111096907  0.5059123496643522  1.0000
  S   S144      1.0  0.6053860329300826  0.4506873418981239  0.4828666760021762  1.0000
  Fe  Fe73      1.0  0.005362134615907621  0.448859359980812  0.43328309314083624  1.0000
  S   S145      1.0  0.0591967771996107  0.4183381273579895  0.44335390827922516  1.0000
  S   S146      1.0  0.9956262935709346  0.4746319022711036  0.3796660859780954  1.0000
  Fe  Fe74      1.0  0.9688870933023902  0.4237495358125198  0.5024128644831166  1.0000
  S   S147      1.0  0.018965959750795625  0.3896745090205863  0.5184798311417491  1.0000
  S   S148      1.0  0.9160091055645987  0.4346951595008993  0.5341837311131172  1.0000
  Fe  Fe75      1.0  0.05284086810587252  0.437255565493758  0.5002783532661318  1.0000
  S   S149      1.0  0.10323755466795494  0.45441397642590736  0.5327873988674132  1.0000
  Fe  Fe76      1.0  0.02096426231330195  0.37353004629416864  0.4601593778604274  1.0000
  S   S150      1.0  0.03224210410685724  0.31835201591264584  0.43735878397114586  1.0000
  S   S151      1.0  0.0025557391401327405  0.47282647831897806  0.488739358841452  1.0000
  S   S152      1.0  0.9671088011377893  0.4026136802760793  0.4457634458735154  1.0000
  Fe  Fe77      1.0  0.2238881254329042  0.6306293626369232  0.6202911974181644  1.0000
  S   S153      1.0  0.22566824224833135  0.6573194367779733  0.5663162617700894  1.0000
  S   S154      1.0  0.27637748343071333  0.6034485689347487  0.6413668732088885  1.0000
  Fe  Fe78      1.0  0.14418205036716508  0.6572577332603023  0.6370109074508553  1.0000
  S   S155      1.0  0.13939368311780165  0.6868173450962559  0.5848627785849637  1.0000
  S   S156      1.0  0.09960840686343975  0.6588332779654732  0.6801083152565618  1.0000
  Fe  Fe79      1.0  0.16586010957749345  0.63743264747282  0.5604970018402767  1.0000
  S   S157      1.0  0.14143216534455322  0.6172008975065613  0.508018680040742  1.0000
  Fe  Fe80      1.0  0.19931907283196162  0.7037315444669383  0.595820009938819  1.0000
  S   S158      1.0  0.21725465228314514  0.7608361078244817  0.588940550336163  1.0000
  S   S159      1.0  0.16609478514276277  0.6060523982186186  0.6122579485667689  1.0000
  S   S160      1.0  0.20183780585597885  0.6788536998314184  0.6502643062810507  1.0000
  Fe  Fe81      1.0  0.9159675711851804  0.5768015759846691  0.6802214710942721  1.0000
  S   S161      1.0  0.8884150974175253  0.6073181823128558  0.6353560534365327  1.0000
  S   S162      1.0  0.9553319247340536  0.529754337090719  0.6712331115846024  1.0000
  Fe  Fe82      1.0  0.8835634246889267  0.6261550672860131  0.7380720448618592  1.0000
  S   S163      1.0  0.8528093799580319  0.6611735642659565  0.6981697053146219  1.0000
  S   S164      1.0  0.8817464193360686  0.638670079731418  0.7973388882874453  1.0000
  Fe  Fe83      1.0  0.8374280614816876  0.6088037976042678  0.6714129182268563  1.0000
  S   S165      1.0  0.777748392007923  0.5967349216498694  0.6533168953306712  1.0000
  Fe  Fe84      1.0  0.9062345723638549  0.6566668237717437  0.6658560368714003  1.0000
  S   S166      1.0  0.9340800922317587  0.7011609661268522  0.6351272095594386  1.0000
  S   S167      1.0  0.8635969113941462  0.5739745181951764  0.7141823658748442  1.0000
  S   S168      1.0  0.9385750781116716  0.6260221330767828  0.707933615609286  1.0000
  Fe  Fe85      1.0  0.3382924744867475  0.9562596321129674  0.6468279027534103  1.0000
  S   S169      1.0  0.3348702126914329  0.008638001158316476  0.6770928544882364  1.0000
  S   S170      1.0  0.38935780432013717  0.9368770046758599  0.6164689507585492  1.0000
  Fe  Fe86      1.0  0.2621803093606648  0.9312662009016646  0.6726399741934784  1.0000
  S   S171      1.0  0.25178529067376876  0.9807385828102188  0.7061627842269901  1.0000
  S   S172      1.0  0.2230187961435811  0.8844117995563557  0.6682048299928531  1.0000
  Fe  Fe87      1.0  0.27432434288280166  0.009921787462173759  0.6580762748429246  1.0000
  S   S173      1.0  0.24297969030993372  0.06023238264570785  0.6420749567439935  1.0000
  Fe  Fe88      1.0  0.31307880391387866  0.9749919717130194  0.7222098458435338  1.0000
  S   S174      1.0  0.3414476087985408  0.9855695714368061  0.7753982865252262  1.0000
  S   S175      1.0  0.2797150923742494  0.9606866459913304  0.6230530492376655  1.0000
  S   S176      1.0  0.32099788667802076  0.9224352625955821  0.6935025777749589  1.0000
  Fe  Fe89      1.0  0.17255221328739911  0.15257784140767902  0.4615459166274937  1.0000
  S   S177      1.0  0.2210133933807259  0.11607837347629475  0.446907446106686  1.0000
  S   S178      1.0  0.12198330380743361  0.12970444287149682  0.48993715828268836  1.0000
  Fe  Fe90      1.0  0.21178974468749834  0.21912288968422364  0.43446506404556545  1.0000
  S   S179      1.0  0.2644613293277661  0.18872572115400552  0.41868170124308113  1.0000
  S   S180      1.0  0.2059912478833219  0.2786781388436021  0.42482100521153077  1.0000
  Fe  Fe91      1.0  0.22366934156478058  0.14814392285687808  0.39614601136611455  1.0000
  S   S181      1.0  0.23946849904546763  0.12401771589430763  0.34266734257815484  1.0000
  Fe  Fe92      1.0  0.2573035392415939  0.159427876162635  0.4708283979641399  1.0000
  S   S182      1.0  0.3061114571819376  0.138595582731159  0.5040662517990778  1.0000
  S   S183      1.0  0.17125820588958063  0.18066046067151742  0.4081490555005924  1.0000
  S   S184      1.0  0.20854052152227331  0.19403598297605748  0.48930425390169674  1.0000
  Fe  Fe93      1.0  0.019331829786019883  0.8823904328135332  0.4663592499812448  1.0000
  S   S185      1.0  0.06215058616207636  0.8843070724907475  0.4221996565832918  1.0000
  S   S186      1.0  0.9614414207839882  0.8615119157492946  0.45328599642308454  1.0000
  Fe  Fe94      1.0  0.07440121063745564  0.9107620910192257  0.5222962415712491  1.0000
  S   S187      1.0  0.12281077721219358  0.914287974041361  0.4834102197479585  1.0000
  S   S188      1.0  0.07714046627410598  0.928583793859866  0.580030504349778  1.0000
  Fe  Fe95      1.0  0.07867193466113398  0.9372996790416404  0.4464789421534006  1.0000
  S   S189      1.0  0.09379120508184369  0.982412602637041  0.4100610648922509  1.0000
  Fe  Fe96      1.0  0.10166542246229393  0.8609364772617805  0.4631281194317888  1.0000
  S   S190      1.0  0.1359326912323091  0.8125511560624937  0.44778433645558124  1.0000
  S   S191      1.0  0.03161375966350066  0.9381157217854398  0.48668632328769135  1.0000
  S   S192      1.0  0.05750064077552186  0.8547461375702553  0.5058652083027968  1.0000
  C   C1        1.0  0.11003289965053664  0.09033690276891804  0.46639051793090214  1.0000
  C   C2        1.0  0.12564077458023037  0.08402718069070692  0.4324005217641595  1.0000
  C   C3        1.0  0.119478843260854  0.051136267571073146  0.4147809934794062  1.0000
  C   C4        1.0  0.09819855416348644  0.02425974724996105  0.43140785158861095  1.0000
  C   C5        1.0  0.08148810052672895  0.030886957331466514  0.4649228988323596  1.0000
  C   C6        1.0  0.0870987669025125  0.06416613681410488  0.4823053419486076  1.0000
  H   H1        1.0  0.14278321987327525  0.10433388143511046  0.4196642312535873  1.0000
  H   H2        1.0  0.13212688888844615  0.046206467372986504  0.38866728597063716  1.0000
  H   H3        1.0  0.06435836481108592  0.010398043316645067  0.4774577067053108  1.0000
  H   H4        1.0  0.07445522165504492  0.06921459033903843  0.5083502597321029  1.0000
  C   C7        1.0  0.2616145763331978  0.08206038739830125  0.6042709737622236  1.0000
  C   C8        1.0  0.29506724297841486  0.06991837929733302  0.5878633937085225  1.0000
  C   C9        1.0  0.30903663032997203  0.08764781681609253  0.5573170245349423  1.0000
  C   C10       1.0  0.28910535918286634  0.11695248748478254  0.5427213951852455  1.0000
  C   C11       1.0  0.25545730376062575  0.12871482971442474  0.5589843699645975  1.0000
  C   C12       1.0  0.24207784537206015  0.11167121036532536  0.5900078080733459  1.0000
  H   H5        1.0  0.31020678605264784  0.04697234141848661  0.5986791345642629  1.0000
  H   H6        1.0  0.3349140490168492  0.07831632690677126  0.5446363516426517  1.0000
  H   H7        1.0  0.24012442908565632  0.1514606491126559  0.5480845833789143  1.0000
  H   H8        1.0  0.21628193268196072  0.12125210475088409  0.6026875721058258  1.0000
  C   C13       1.0  0.18322350247479857  0.897698830203769  0.6433221792808542  1.0000
  C   C14       1.0  0.18416924178721944  0.8971337131141539  0.6056610012252385  1.0000
  C   C15       1.0  0.1513963730141381  0.9058632180223168  0.5858185510606315  1.0000
  C   C16       1.0  0.11827602215954958  0.9165793419965004  0.6037448639118274  1.0000
  C   C17       1.0  0.11777475153382055  0.9180498534609528  0.6413655585528282  1.0000
  C   C18       1.0  0.15008335890164026  0.908182673494501  0.6611661755066555  1.0000
  H   H9        1.0  0.20992834430853907  0.8892127229468441  0.5918996123792136  1.0000
  H   H10       1.0  0.1518771897739868  0.9043262253052345  0.55678748887588  1.0000
  H   H11       1.0  0.09218371075458709  0.9264149092045728  0.6552474863395783  1.0000
  H   H12       1.0  0.14942141648453525  0.9087479538571632  0.6903030587269448  1.0000
  C   C19       1.0  0.19851776335659793  0.7754216707499119  0.5480135018884992  1.0000
  C   C20       1.0  0.19318288280242807  0.8122442361111177  0.542057271719453  1.0000
  C   C21       1.0  0.17428756709884596  0.8238400329643784  0.5109229154829301  1.0000
  C   C22       1.0  0.16190705130923577  0.7985923473516071  0.4853128617063929  1.0000
  C   C23       1.0  0.16854620126925024  0.7618463009930315  0.4906787326463015  1.0000
  C   C24       1.0  0.18645449613090492  0.7502124658098225  0.5222834307484694  1.0000
  H   H13       1.0  0.2025947514207279  0.8316506990629046  0.5619616063422861  1.0000
  H   H14       1.0  0.1694093857187824  0.8522634131772167  0.5066670604021484  1.0000
  H   H15       1.0  0.15891847753938837  0.7423201007153765  0.470891334191921  1.0000
  H   H16       1.0  0.19072824411617076  0.7217058806804911  0.5267188410185577  1.0000
  C   C25       1.0  0.05601911123330572  0.6775061815026951  0.6667974575172843  1.0000
  C   C26       1.0  0.04638330620949538  0.6807205540437351  0.6303655377817436  1.0000
  C   C27       1.0  0.009346854238621694  0.6907679040312503  0.6203126274027639  1.0000
  C   C28       1.0  0.9820736809516928  0.6975143849747577  0.6468340407521763  1.0000
  C   C29       1.0  0.9923876060177654  0.6964376595867082  0.6831830175755664  1.0000
  C   C30       1.0  0.029401708101721494  0.6866549744545906  0.6931359277132058  1.0000
  H   H17       1.0  0.06678089054349834  0.6737329210524662  0.6099947065909227  1.0000
  H   H18       1.0  0.0012832304623255908  0.6913212728882816  0.5921604011248796  1.0000
  H   H19       1.0  0.9713983610898068  0.702047537639918  0.7037225068752644  1.0000
  H   H20       1.0  0.03708820043137351  0.685339792570531  0.7213057109882044  1.0000
  C   C31       1.0  0.08086275787653374  0.310720767011928  0.43022260493617975  1.0000
  C   C32       1.0  0.0923072124814901  0.2826002803714694  0.40738419121761565  1.0000
  C   C33       1.0  0.13089672368090144  0.2732938465179394  0.40478726784706476  1.0000
  C   C34       1.0  0.1582090068830353  0.2925521126833235  0.42453089313460984  1.0000
  C   C35       1.0  0.14693391500477926  0.32204704697580755  0.44566968791833844  1.0000
  C   C36       1.0  0.10825263870223556  0.33094146680064496  0.4487819735457161  1.0000
  H   H21       1.0  0.07118195912787617  0.2670389794288629  0.3928130141981518  1.0000
  H   H22       1.0  0.13924593634510465  0.25066898272753435  0.3881817974488456  1.0000
  H   H23       1.0  0.16796981852487947  0.3371228723781306  0.46087456098364293  1.0000
  H   H24       1.0  0.09965982211219981  0.3525524876959565  0.46668963404746805  1.0000
  C   C37       1.0  0.11739618558989648  0.49800832083221963  0.521746918192594  1.0000
  C   C38       1.0  0.14700953372971437  0.5142032784382972  0.5411018286838912  1.0000
  C   C39       1.0  0.155777205324168  0.5504894507517066  0.5354389669258957  1.0000
  C   C40       1.0  0.13451006033765917  0.5707122863737473  0.5109094925624931  1.0000
  C   C41       1.0  0.10584181466056575  0.554174427030835  0.49047486435220533  1.0000
  C   C42       1.0  0.09758349867356908  0.5176657582208462  0.49561392306482566  1.0000
  H   H25       1.0  0.16267568634940416  0.4988694201753253  0.5610032266459444  1.0000
  H   H26       1.0  0.17884727438048334  0.5628300738912713  0.5503027000115235  1.0000
  H   H27       1.0  0.08905121311586785  0.5697965519095551  0.4717174177509053  1.0000
  H   H28       1.0  0.07526876325495402  0.5050250619067563  0.48004740587029443  1.0000
  C   C43       1.0  0.9270782388468355  0.4612753097628915  0.5720052570795865  1.0000
  C   C44       1.0  0.960478504468647  0.45498936893797665  0.5916274810885249  1.0000
  C   C45       1.0  0.968516454326256  0.4755927534052291  0.6225515874431873  1.0000
  C   C46       1.0  0.9439309233183936  0.5033968546444648  0.6331771720180737  1.0000
  C   C47       1.0  0.9110772185913061  0.5103443850518358  0.6129152761031821  1.0000
  C   C48       1.0  0.9023628977971715  0.4889638640452068  0.5826846025025177  1.0000
  H   H29       1.0  0.9796869974554432  0.43362769692738146  0.5834540930850736  1.0000
  H   H30       1.0  0.9939706179022256  0.4700496154548758  0.6380941803472565  1.0000
  H   H31       1.0  0.892071252388147  0.5318708391129504  0.6207054665923819  1.0000
  H   H32       1.0  0.8766852679722994  0.4941331577944539  0.5673185799472542  1.0000
  C   C49       1.0  0.7761040362736541  0.5697957906126628  0.6145596581920802  1.0000
  C   C50       1.0  0.8038993173193062  0.572633138676176  0.5879217964677119  1.0000
  C   C51       1.0  0.8019946322834083  0.5508050173459949  0.5569954931037422  1.0000
  C   C52       1.0  0.7721805840840075  0.5262405900354274  0.5526680606743498  1.0000
  C   C53       1.0  0.7448771327962853  0.5230371692294128  0.5796547276634652  1.0000
  C   C54       1.0  0.7465051573330509  0.5450571578714373  0.6103481301083306  1.0000
  H   H33       1.0  0.8261619757662384  0.5924177755600121  0.590512206920253  1.0000
  H   H34       1.0  0.8231417254745714  0.5535504174381445  0.5361503150112907  1.0000
  H   H35       1.0  0.7230295816299968  0.502972067064337  0.5773153370493338  1.0000
  H   H36       1.0  0.7252507822627067  0.5424097965822783  0.6311554646892925  1.0000
  C   C55       1.0  0.36442921116310184  0.6912144283238896  0.6615369772197558  1.0000
  C   C56       1.0  0.3705154293881775  0.656464978139751  0.6749201226334778  1.0000
  C   C57       1.0  0.3426206577499743  0.6298264658655233  0.6703438231372438  1.0000
  C   C58       1.0  0.3090161759157854  0.6377168244869059  0.6516426141203656  1.0000
  C   C59       1.0  0.3028350248765167  0.6726320166510095  0.6387415557906427  1.0000
  C   C60       1.0  0.3302764538310111  0.6993909071552936  0.6440185061552444  1.0000
  H   H37       1.0  0.396385251026581  0.6502444087694186  0.6893487341932488  1.0000
  H   H38       1.0  0.34725046994221104  0.6030667353445888  0.680980940314793  1.0000
  H   H39       1.0  0.27742703024169535  0.6789602402700335  0.6237283916719888  1.0000
  H   H40       1.0  0.325442464436466  0.7260437317569491  0.633466162595293  1.0000
  C   C61       1.0  0.520098574426251  0.5695460202192764  0.57142824825624  1.0000
  C   C62       1.0  0.5304171948119533  0.5353279105315433  0.5589052117188801  1.0000
  C   C63       1.0  0.5540290150960884  0.5318138843480292  0.5288474600086905  1.0000
  C   C64       1.0  0.5660432667936004  0.5624248034354244  0.5103071490861835  1.0000
  C   C65       1.0  0.5544515253693849  0.5966639241336866  0.5219792165448505  1.0000
  C   C66       1.0  0.5319961346275096  0.6002657493432826  0.552921223256948  1.0000
  H   H41       1.0  0.5208781918328237  0.5114891610207847  0.5728545887384554  1.0000
  H   H42       1.0  0.5626700856650183  0.5053007535668614  0.5199222279961855  1.0000
  H   H43       1.0  0.5635009197102226  0.6204091633769339  0.5076070587196367  1.0000
  H   H44       1.0  0.5238567395294529  0.626832820140523  0.5622745983270993  1.0000
  C   C67       1.0  0.5593320309722366  0.5560375474446263  0.7852138959067713  1.0000
  C   C68       1.0  0.5944481099945838  0.5737122985266416  0.7861423352606253  1.0000
  C   C69       1.0  0.5979021950578216  0.6086092129377123  0.7721115777457831  1.0000
  C   C70       1.0  0.5661799531055327  0.6259335992927154  0.7571426506268961  1.0000
  C   C71       1.0  0.5307506759589639  0.6089835585164493  0.7579931458758217  1.0000
  C   C72       1.0  0.5273375202562163  0.5741139577550052  0.7718747567941455  1.0000
  H   H45       1.0  0.6189092560057115  0.5607885889907193  0.7978700563598741  1.0000
  H   H46       1.0  0.6252677849755276  0.6218952151402155  0.7723642554657787  1.0000
  H   H47       1.0  0.5057061901035123  0.6229597741786458  0.7487528644308235  1.0000
  H   H48       1.0  0.4998641777613446  0.5610010851414001  0.7719077710043651  1.0000
  C   C73       1.0  0.6882882354975421  0.440059209617998  0.6796490571107605  1.0000
  C   C74       1.0  0.6987979941920578  0.45225521427454135  0.6455511352281366  1.0000
  C   C75       1.0  0.6771195421041952  0.44300266933043553  0.6152221232391114  1.0000
  C   C76       1.0  0.6441003874365481  0.4226350935850268  0.6189369739178369  1.0000
  C   C77       1.0  0.6340065867693747  0.40958066654309755  0.6528006392830579  1.0000
  C   C78       1.0  0.6566708442944866  0.4175595019227124  0.6829532844144404  1.0000
  H   H49       1.0  0.7232951704947645  0.4692954445466075  0.6424229276512227  1.0000
  H   H50       1.0  0.6858223907142844  0.4518416147379925  0.5889624814883834  1.0000
  H   H51       1.0  0.6086802261960056  0.3934021336086858  0.655859307675711  1.0000
  H   H52       1.0  0.6497852600386772  0.40596354053396105  0.7085868588943666  1.0000
  C   C79       1.0  0.6285423736969121  0.5990848673220449  0.9202697734130427  1.0000
  C   C80       1.0  0.660488092097996  0.5925611709654671  0.9420243666781699  1.0000
  C   C81       1.0  0.6847358931046115  0.563272137998105  0.934315587031455  1.0000
  C   C82       1.0  0.6768659876092485  0.5403881369198309  0.9050453407155818  1.0000
  C   C83       1.0  0.6445409025734398  0.5468054923833799  0.8838623342034873  1.0000
  C   C84       1.0  0.6207198785027834  0.5762082242452737  0.8911746950612166  1.0000
  H   H53       1.0  0.6666355400171542  0.6101286759665717  0.9646638039203161  1.0000
  H   H54       1.0  0.7093471194236393  0.5582553892110819  0.9511570303787901  1.0000
  H   H55       1.0  0.6375788253980339  0.529148594125247  0.8617584014427899  1.0000
  H   H56       1.0  0.5960267487813681  0.5810171918871411  0.8743112389704369  1.0000
  C   C85       1.0  0.751091470707919  0.42799070967288644  0.33034499114380583  1.0000
  C   C86       1.0  0.7194570186715624  0.4086944986656694  0.3179594166269868  1.0000
  C   C87       1.0  0.6913642297391244  0.39786334123580164  0.3421570494731009  1.0000
  C   C88       1.0  0.6946875030616516  0.4067049260497507  0.37868282620176275  1.0000
  C   C89       1.0  0.7270983069056137  0.42465797487542856  0.3913767850599274  1.0000
  C   C90       1.0  0.7554241929023033  0.4351303209662199  0.367171008064955  1.0000
  H   H57       1.0  0.7164885457913032  0.402302334429203  0.2896476111826903  1.0000
  H   H58       1.0  0.6664797732037973  0.38367487640591197  0.33237533380907025  1.0000
  H   H59       1.0  0.7299275449344026  0.4311364720894749  0.4196956090302089  1.0000
  H   H60       1.0  0.7799576134756198  0.4498052405916632  0.37675084256816677  1.0000
  C   C91       1.0  0.6917293478716751  0.5833403490723007  0.16868067990637003  1.0000
  C   C92       1.0  0.7172308446600486  0.5681470367204646  0.14408453512856556  1.0000
  C   C93       1.0  0.7259340479564211  0.5863267305006142  0.11222318233873563  1.0000
  C   C94       1.0  0.708967108813023  0.619610697079515  0.10481929885791885  1.0000
  C   C95       1.0  0.6835911985876391  0.6349427668720494  0.1294906694796243  1.0000
  C   C96       1.0  0.6751375548628293  0.6168946889785836  0.1615495339772823  1.0000
  H   H61       1.0  0.7297876144063293  0.542120082370951  0.1493820976038461  1.0000
  H   H62       1.0  0.7450102115867663  0.5741847999240125  0.09286009004400686  1.0000
  H   H63       1.0  0.6705998675569503  0.6607835414865378  0.12401686195797557  1.0000
  H   H64       1.0  0.6553494098303059  0.6286907323780302  0.18053238678156555  1.0000
  C   C97       1.0  0.5317215806739839  0.45389037225836554  0.17718661809209352  1.0000
  C   C98       1.0  0.5528360135616875  0.45728782415686275  0.20906458899247052  1.0000
  C   C99       1.0  0.5859297410414886  0.4365944830424989  0.2139903746731668  1.0000
  C   C100      1.0  0.5974107761850834  0.41220734407509013  0.1872369514632542  1.0000
  C   C101      1.0  0.5767726047831218  0.4093926198136707  0.1551792650387297  1.0000
  C   C102      1.0  0.5440332677977965  0.4301822289633655  0.1502009825624809  1.0000
  H   H65       1.0  0.5436029825234008  0.47588460992284803  0.2298438581791301  1.0000
  H   H66       1.0  0.6022526757670414  0.4390966837028805  0.23864349874211002  1.0000
  H   H67       1.0  0.5863618649843726  0.39170214236682827  0.1338282642545008  1.0000
  H   H68       1.0  0.5290279043584329  0.4284553008027253  0.12493689201678423  1.0000
  C   C103      1.0  0.4650566233554316  0.5769647461826618  0.031065182222774768  1.0000
  C   C104      1.0  0.4630167393570767  0.5792846795372038  0.06866246259536624  1.0000
  C   C105      1.0  0.48187979001223447  0.6072323589911994  0.08712422209366211  1.0000
  C   C106      1.0  0.5044739911851491  0.6315929349531224  0.0681500592394102  1.0000
  C   C107      1.0  0.5062610503880788  0.6292178575083337  0.03060196308783736  1.0000
  C   C108      1.0  0.4858267208094662  0.6025729956929334  0.012048944258258532  1.0000
  H   H69       1.0  0.4468088077668494  0.5596440882135335  0.08350202298259357  1.0000
  H   H70       1.0  0.48027925310179964  0.6089942723605895  0.11617411714529435  1.0000
  H   H71       1.0  0.5233357178997976  0.6478801899045462  0.015640848991653966  1.0000
  H   H72       1.0  0.4870127984851597  0.6013215078718872  0.9829967670675035  1.0000
  C   C109      1.0  0.8376938465773685  0.5300589684755783  0.05581203632685394  1.0000
  C   C110      1.0  0.8166253124899335  0.5360164291189615  0.08716719892638736  1.0000
  C   C111      1.0  0.8001301106275462  0.5069473728089314  0.10517824369373785  1.0000
  C   C112      1.0  0.8036271539648688  0.4720923550012971  0.09118849646575164  1.0000
  C   C113      1.0  0.8230242040192881  0.46637233793862365  0.058834858160327075  1.0000
  C   C114      1.0  0.8407626796285294  0.4952049600619559  0.041563016660411956  1.0000
  H   H73       1.0  0.813781335653565  0.5628348358625652  0.09819998868570678  1.0000
  H   H74       1.0  0.7851431521077473  0.5114729011499974  0.13008369317971197  1.0000
  H   H75       1.0  0.8245800195061563  0.4396568832988589  0.0472516090636792  1.0000
  H   H76       1.0  0.8563619524410675  0.49050821735300326  0.01701812904498512  1.0000
  C   C115      1.0  0.9434230338025781  0.5573454378611157  0.8685283253021631  1.0000
  C   C116      1.0  0.9319326995584534  0.5906487659874773  0.8826051705479548  1.0000
  C   C117      1.0  0.9123079413247974  0.6152602875780396  0.8607316649767784  1.0000
  C   C118      1.0  0.9042662020063433  0.6066827271626475  0.8247195844733346  1.0000
  C   C119      1.0  0.9149453090423679  0.573034792701628  0.8108680283714574  1.0000
  C   C120      1.0  0.9345150934047263  0.5484062087915232  0.8327598604243098  1.0000
  H   H77       1.0  0.9392091372569132  0.5979885864430636  0.9099309263686064  1.0000
  H   H78       1.0  0.9042167437248497  0.6413825975020382  0.8714365462197522  1.0000
  H   H79       1.0  0.9082992719720069  0.5660793482279928  0.7832537311446905  1.0000
  H   H80       1.0  0.943075081117119  0.5224943435806719  0.8219027722423334  1.0000
  C   C121      1.0  0.30328321311874007  0.3627177232013004  0.18069593720752097  1.0000
  C   C122      1.0  0.2836108678048373  0.354941726073158  0.14878812800863767  1.0000
  C   C123      1.0  0.29945369639786257  0.36374175816464027  0.11543919877746099  1.0000
  C   C124      1.0  0.3346623977122938  0.3811880288434204  0.11377935281657597  1.0000
  C   C125      1.0  0.3546386699998879  0.3887718753329703  0.14563483223334162  1.0000
  C   C126      1.0  0.3391266861156486  0.3791293372111678  0.1790767674749929  1.0000
  H   H81       1.0  0.2563673118807838  0.3416534953338122  0.14973052231026854  1.0000
  H   H82       1.0  0.2840877986693244  0.35751368365525077  0.0908681296787689  1.0000
  H   H83       1.0  0.3817552985242991  0.4024194165846515  0.14456187446078017  1.0000
  H   H84       1.0  0.3543888657531126  0.3853202610126736  0.20371163636331713  1.0000
  C   C127      1.0  0.040694340183439204  0.43891301568548063  0.06991770754679338  1.0000
  C   C128      1.0  0.06971798077668634  0.46094237776498187  0.057050614268755684  1.0000
  C   C129      1.0  0.10550053887054499  0.4609034019345074  0.07383262980195426  1.0000
  C   C130      1.0  0.11229386893836013  0.43909811371916  0.10378615867267427  1.0000
  C   C131      1.0  0.08333865286375941  0.41697381458612837  0.11678015305998923  1.0000
  C   C132      1.0  0.04763270334433889  0.4167531570002078  0.09965978061732983  1.0000
  H   H85       1.0  0.0648572519002748  0.4776910854246308  0.033834720657492046  1.0000
  H   H86       1.0  0.12787084406044621  0.47794203006056546  0.06358242522453716  1.0000
  H   H87       1.0  0.08846083953606199  0.39986987563050247  0.1397829277585203  1.0000
  H   H88       1.0  0.02523623220414839  0.39973584388323713  0.10967214846039552  1.0000
  C   C133      1.0  0.016913163701173017  0.5955627654051185  0.3723584403720253  1.0000
  C   C134      1.0  0.008109519194668069  0.5753453735530092  0.3415972587833883  1.0000
  C   C135      1.0  0.0018495906495690215  0.5381883803154206  0.3441712024849776  1.0000
  C   C136      1.0  0.004527285495350641  0.5210312011527748  0.37750955458257995  1.0000
  C   C137      1.0  0.013627041498205594  0.5411141434092953  0.40838602527195816  1.0000
  C   C138      1.0  0.019556239852096535  0.5784591501363628  0.40583613004190444  1.0000
  H   H89       1.0  0.005057865650911931  0.5884278477980058  0.31591429190362713  1.0000
  H   H90       1.0  0.9945563432964942  0.5227901755131819  0.32027938860441374  1.0000
  H   H91       1.0  0.01589970914434291  0.5280097453010484  0.43417715680288244  1.0000
  H   H92       1.0  0.026450990258696905  0.594037846368897  0.42970827377148363  1.0000
  C   C139      1.0  0.1458087021651139  0.4984829065301821  0.284050306464679  1.0000
  C   C140      1.0  0.17543561577482364  0.5090158597630898  0.261526890112729  1.0000
  C   C141      1.0  0.17550945819040814  0.5435238007561783  0.24650492878506694  1.0000
  C   C142      1.0  0.1460786829293086  0.567718309517377  0.254189106957011  1.0000
  C   C143      1.0  0.1165716963617892  0.5573626697132626  0.27707205628432735  1.0000
  C   C144      1.0  0.11641834726384864  0.5227156205261151  0.2919923442315102  1.0000
  H   H93       1.0  0.1988279395588534  0.4908679736873933  0.2563089210702687  1.0000
  H   H94       1.0  0.19857033440467659  0.5515609813507287  0.22912976671686827  1.0000
  H   H95       1.0  0.09391250719936828  0.5759269549290053  0.2834345299615085  1.0000
  H   H96       1.0  0.09323522462904756  0.5145191515688764  0.30916967580278926  1.0000
  C   C145      1.0  0.024177409291120888  0.630716649906801  0.0865750018719258  1.0000
  C   C146      1.0  0.986258526902295  0.625711143377257  0.09657853372540677  1.0000
  C   C147      1.0  0.972771164406204  0.6405250734545082  0.12895039773147263  1.0000
  C   C148      1.0  0.9969416731638484  0.6606237675834215  0.15131165211504907  1.0000
  C   C149      1.0  0.03456781634466144  0.6664804363218839  0.14080068406188664  1.0000
  C   C150      1.0  0.04812390931135546  0.6516519140377058  0.10843757110728425  1.0000
  H   H97       1.0  0.9673111565124074  0.6104015193656361  0.07946442639223728  1.0000
  H   H98       1.0  0.9438906362959374  0.6357030386016049  0.13720494945536155  1.0000
  H   H99       1.0  0.053142123055077484  0.682740404651637  0.15732856867856232  1.0000
  H   H100      1.0  0.07730970602212062  0.6561149478671259  0.10053555233058842  1.0000
  C   C151      1.0  0.2594256340160525  0.029112057326428298  0.8598554234341803  1.0000
  C   C152      1.0  0.24578698900930987  0.007476613702940504  0.831626445445532  1.0000
  C   C153      1.0  0.27096894374635705  0.993641072695429  0.8057701455832033  1.0000
  C   C154      1.0  0.30974881830511175  0.0016509590627233894  0.8080026203872055  1.0000
  C   C155      1.0  0.32332021141636724  0.023574044009644357  0.8359822817974388  1.0000
  C   C156      1.0  0.29816778719925646  0.03740156045065968  0.8618068749691032  1.0000
  H   H101      1.0  0.21582443528264586  0.0009820180861359606  0.8300585091923428  1.0000
  H   H102      1.0  0.26042874081609396  0.9762490041833123  0.7845324227179435  1.0000
  H   H103      1.0  0.35323603004881876  0.030328702966859522  0.8374381253191966  1.0000
  H   H104      1.0  0.3086507757416664  0.05531055213255631  0.882612825540403  1.0000
  C   C157      1.0  0.13922270823656402  0.07596554695508595  0.28036879185813746  1.0000
  C   C158      1.0  0.13287007928232542  0.09547476390655829  0.3121611108071855  1.0000
  C   C159      1.0  0.1636204603264706  0.10971830912725533  0.33171948822710096  1.0000
  C   C160      1.0  0.20077589932016804  0.10505132834827502  0.3192224228856502  1.0000
  C   C161      1.0  0.20711648660101734  0.08553759546154316  0.28735695972974334  1.0000
  C   C162      1.0  0.17637875636234446  0.07072711190265224  0.26807355811582895  1.0000
  H   H105      1.0  0.10418142271475639  0.09934498423129412  0.32191420474040316  1.0000
  H   H106      1.0  0.1584608020756686  0.1243587381932858  0.35638265310435524  1.0000
  H   H107      1.0  0.23583558364915436  0.08172685227296239  0.27767926443157886  1.0000
  H   H108      1.0  0.18147507646909578  0.05557266023616325  0.24359411174233617  1.0000
  C   C163      1.0  0.06059168175755825  0.866596060301361  0.22692149305737838  1.0000
  C   C164      1.0  0.08897356557105263  0.873245791415875  0.252569212895311  1.0000
  C   C165      1.0  0.10173621740816487  0.8454623003992918  0.27499337653818  1.0000
  C   C166      1.0  0.08680878338077513  0.8107491603410272  0.2711347612310882  1.0000
  C   C167      1.0  0.05782920810605763  0.8041601912228495  0.2460520290349554  1.0000
  C   C168      1.0  0.04443215886145113  0.8322268865093032  0.22421175798029264  1.0000
  H   H109      1.0  0.10130423910193298  0.8996154543080307  0.2550208813472664  1.0000
  H   H110      1.0  0.12393206271324395  0.8505911697925895  0.29466953869665063  1.0000
  H   H111      1.0  0.04609057011877815  0.7773697278400278  0.24303815152774538  1.0000
  H   H112      1.0  0.022368099400446484  0.8269913960400412  0.20442776309328617  1.0000
  C   C169      1.0  0.25033448892914933  0.9471582828096126  0.13717127365705065  1.0000
  C   C170      1.0  0.23640888021466538  0.973233872414924  0.11344855206820154  1.0000
  C   C171      1.0  0.2553804321578258  0.9798853976223336  0.08108832589147656  1.0000
  C   C172      1.0  0.2875446492221487  0.9596357243132508  0.07186549356802363  1.0000
  C   C173      1.0  0.30103180808992086  0.9330170787003818  0.09525875457673316  1.0000
  C   C174      1.0  0.2827058028703857  0.9270882901784374  0.1281299835456524  1.0000
  H   H113      1.0  0.21141465160708656  0.9888182256776076  0.12023002101459691  1.0000
  H   H114      1.0  0.2449515071709521  0.0006627519235999912  0.06333016972672922  1.0000
  H   H115      1.0  0.3260915186722763  0.9175011862172651  0.0882959141809152  1.0000
  H   H116      1.0  0.293635570884398  0.907006662452113  0.1465247408318233  1.0000
  C   C175      1.0  0.003680323102605687  0.3010344136504117  0.14797541632507616  1.0000
  C   C176      1.0  0.017530257030253127  0.2678141712260745  0.16004930941082818  1.0000
  C   C177      1.0  0.047004314336728026  0.26666468197964976  0.18564767809009153  1.0000
  C   C178      1.0  0.06289631264422635  0.29874757403546204  0.19876447291566968  1.0000
  C   C179      1.0  0.04796526154952985  0.33184984798599326  0.18765979406742006  1.0000
  C   C180      1.0  0.018081832618725313  0.33298695294265773  0.1626770910193145  1.0000
  H   H117      1.0  0.005109919169641541  0.24308443425995768  0.1501843320161112  1.0000
  H   H118      1.0  0.05785157649696049  0.24102345832618208  0.19489278851622546  1.0000
  H   H119      1.0  0.059038314970103034  0.3566333941531363  0.19853070202216605  1.0000
  H   H120      1.0  0.006710700591930685  0.3586844579187583  0.15419588532307227  1.0000
  C   C181      1.0  0.1695070224069666  0.1431407613796992  0.04096743548743542  1.0000
  C   C182      1.0  0.17462360467512064  0.16054043773842955  0.00806384632440249  1.0000
  C   C183      1.0  0.14592623086643575  0.18309907756079227  0.9943249282360508  1.0000
  C   C184      1.0  0.11173520497672507  0.18774674056053609  0.013056405064234333  1.0000
  C   C185      1.0  0.10658241260388479  0.17023550313533634  0.04587825565022574  1.0000
  C   C186      1.0  0.13554871089080883  0.1482306245787371  0.059918568001388506  1.0000
  H   H121      1.0  0.20084289884203926  0.15699674597000368  0.9934090565834569  1.0000
  H   H122      1.0  0.1501237457105964  0.19670103747113363  0.9689592688359026  1.0000
  H   H123      1.0  0.08023796583280163  0.17333959391617396  0.06028683065289053  1.0000
  H   H124      1.0  0.13126971299905518  0.13413250117576256  0.08493891820340438  1.0000
  C   C187      1.0  0.05367179456684901  0.05370711989024324  0.0855862292545671  1.0000
  C   C188      1.0  0.02272559149869946  0.04135654042493919  0.10554595042566206  1.0000
  C   C189      1.0  0.9902327959962165  0.06308223228182408  0.10951209827222388  1.0000
  C   C190      1.0  0.9886563930063492  0.09685982076007708  0.09304339905139175  1.0000
  C   C191      1.0  0.0192307453679037  0.1086906083195176  0.07243774633054832  1.0000
  C   C192      1.0  0.05167015355666704  0.08726958786686057  0.06888834177073622  1.0000
  H   H125      1.0  0.023446656718023817  0.014804938160288161  0.11730865329922478  1.0000
  H   H126      1.0  0.9664242695353152  0.05369532205778515  0.12522324676110622  1.0000
  H   H127      1.0  0.01834457771171527  0.1346835569838818  0.0596853795424268  1.0000
  H   H128      1.0  0.07542157041819553  0.09719123067735924  0.0537777937443038  1.0000
  C   C193      1.0  0.5825715414761591  0.8331201940432856  0.90399444438549  1.0000
  C   C194      1.0  0.6041245467534953  0.8566679731786717  0.9254516649542761  1.0000
  C   C195      1.0  0.6189740388791896  0.8449471793811796  0.958559521565474  1.0000
  C   C196      1.0  0.6131149329576836  0.8094245418838594  0.9697463736674142  1.0000
  C   C197      1.0  0.5924572205364881  0.7857660577224967  0.9477890171146165  1.0000
  C   C198      1.0  0.5767478899102922  0.7977263902700932  0.9152924494085253  1.0000
  H   H129      1.0  0.6100384934018076  0.8835710942253944  0.9162493935023417  1.0000
  H   H130      1.0  0.635657174123025  0.8630868357208661  0.9751106834620231  1.0000
  H   H131      1.0  0.5883070683885174  0.758300421873425  0.9558141967460396  1.0000
  H   H132      1.0  0.5597616195819751  0.7796401943211122  0.8990302629355043  1.0000
  C   C199      1.0  0.44346265491950204  0.08703701247906759  0.08027761055518844  1.0000
  C   C200      1.0  0.437566409580407  0.12366882173622185  0.07338975606946561  1.0000
  C   C201      1.0  0.41894923677909257  0.13450048402412884  0.04183824019427673  1.0000
  C   C202      1.0  0.405110589041925  0.10865295394658392  0.017660801640338786  1.0000
  C   C203      1.0  0.41129826352997245  0.0719220900222437  0.024263526797987378  1.0000
  C   C204      1.0  0.43124378645348477  0.06113216701142021  0.05525390428661802  1.0000
  H   H133      1.0  0.4470420782609953  0.1437569661979463  0.09269462323952046  1.0000
  H   H134      1.0  0.4139855791269218  0.16287292634202477  0.036879383756286854  1.0000
  H   H135      1.0  0.4004433471551883  0.05188076332881009  0.0055933637452521  1.0000
  H   H136      1.0  0.43595512228668487  0.03282617648906516  0.06037926801702009  1.0000
  C   C205      1.0  0.4835651223680413  0.9307778228173227  0.00985734175477404  1.0000
  C   C206      1.0  0.47385090955151793  0.967314133052807  0.012400133437101335  1.0000
  C   C207      1.0  0.4699638933398038  0.9880258540332106  0.9811785792185119  1.0000
  C   C208      1.0  0.4759506505998973  0.972110591239735  0.9474601061374355  1.0000
  C   C209      1.0  0.4845173961640793  0.9353182642086253  0.9449175993432309  1.0000
  C   C210      1.0  0.48829759587722815  0.9146196552397492  0.9761073387889928  1.0000
  H   H137      1.0  0.46915712473048493  0.9795632449123349  0.03845357571357533  1.0000
  H   H138      1.0  0.4626767956373983  0.016298243265007617  0.9832522998571852  1.0000
  H   H139      1.0  0.4884157412414569  0.9227255216049105  0.9188232440798313  1.0000
  H   H140      1.0  0.49580069037553864  0.8863458487067195  0.9740543690485861  1.0000
  C   C211      1.0  0.5517754417911952  0.2796987969415448  0.05887056621390374  1.0000
  C   C212      1.0  0.5841780376719824  0.2994107994484116  0.05007660362675614  1.0000
  C   C213      1.0  0.5809811375321627  0.3356790432819007  0.04025871471768805  1.0000
  C   C214      1.0  0.5454106073230313  0.3525962393762781  0.04014761138329747  1.0000
  C   C215      1.0  0.5129257259193836  0.33312667367497695  0.049551879899087714  1.0000
  C   C216      1.0  0.5160891923467283  0.2965150432673232  0.058569534805009704  1.0000
  H   H141      1.0  0.6117306280471364  0.28661992676653103  0.05110338902974742  1.0000
  H   H142      1.0  0.6060021857060908  0.3507352430670184  0.032850563172812874  1.0000
  H   H143      1.0  0.4852776248133378  0.34600663495754236  0.048955855869445175  1.0000
  H   H144      1.0  0.49087094285467076  0.2811478872385052  0.06480062554027577  1.0000
  C   C217      1.0  0.7735715917188934  0.26381780331820015  0.004850192649918261  1.0000
  C   C218      1.0  0.7761221625622295  0.2401513603951489  0.9755417426159367  1.0000
  C   C219      1.0  0.8117647985961972  0.22818019654669622  0.963691422924702  1.0000
  C   C220      1.0  0.8448513721677132  0.23916155747745696  0.9816938851411547  1.0000
  C   C221      1.0  0.8423444476063477  0.26241021737021447  0.011399527532681253  1.0000
  C   C222      1.0  0.8066875841986744  0.27518721777158744  0.022661171112482004  1.0000
  H   H145      1.0  0.7506861280937601  0.23163552731451778  0.9615517709826963  1.0000
  H   H146      1.0  0.8137489141981109  0.21023006548163886  0.9406762259149942  1.0000
  H   H147      1.0  0.8679291334909656  0.2710079479860332  0.02519717111756536  1.0000
  H   H148      1.0  0.8047504957431865  0.2934319462226452  0.04540667432199519  1.0000
  C   C223      1.0  0.6840502706389296  0.07859846832283623  0.09064121228237151  1.0000
  C   C224      1.0  0.6442227082308373  0.07738065892414081  0.09153669809740007  1.0000
  C   C225      1.0  0.6257786394516277  0.04827644921420449  0.10814347799264953  1.0000
  C   C226      1.0  0.6472524024404671  0.02056348181469847  0.12386504272536514  1.0000
  C   C227      1.0  0.6869447288315299  0.02181238001213015  0.12268348573524598  1.0000
  C   C228      1.0  0.7052715938315482  0.05068355207079645  0.10608110809336767  1.0000
  H   H149      1.0  0.6276798431198364  0.09905699866316836  0.07999337687223347  1.0000
  H   H150      1.0  0.5950696026313524  0.04768291637400801  0.10935655926129259  1.0000
  H   H151      1.0  0.7036181310607035  0.0004380520832554247  0.13474490443146006  1.0000
  H   H152      1.0  0.7360226904231758  0.05150897978299639  0.10550390890421463  1.0000
  C   C229      1.0  0.6334925714628857  0.12074323999030684  0.9131430063908165  1.0000
  C   C230      1.0  0.6512016078765129  0.10119610306014026  0.9406913347655669  1.0000
  C   C231      1.0  0.6591130143688337  0.06442240219377382  0.9358747391914373  1.0000
  C   C232      1.0  0.6487208451039357  0.04712949272535871  0.9037638321250059  1.0000
  C   C233      1.0  0.6314656152362105  0.06680048777790004  0.8761420173394888  1.0000
  C   C234      1.0  0.6238127548537827  0.10359731386690063  0.8807873887807018  1.0000
  H   H153      1.0  0.6589134857781108  0.11431848112547138  0.9657192987520303  1.0000
  H   H154      1.0  0.6728285341433412  0.04936060184501101  0.9571821248667046  1.0000
  H   H155      1.0  0.624559680820534  0.053765951251997235  0.850981470703222  1.0000
  H   H156      1.0  0.610335822298957  0.11874030365288438  0.8593828716280556  1.0000
  C   C235      1.0  0.6791875506440029  0.7533095242448291  0.5784109287004965  1.0000
  C   C236      1.0  0.659764306431718  0.7640779014568304  0.5473567719242795  1.0000
  C   C237      1.0  0.6206094256636815  0.7582291347351933  0.5442311828922741  1.0000
  C   C238      1.0  0.6007497203612028  0.7423322245142331  0.5724725116387754  1.0000
  C   C239      1.0  0.6202069847123308  0.7311072785717341  0.6034030690053732  1.0000
  C   C240      1.0  0.659593977825307  0.7363217662604213  0.6062335314997153  1.0000
  H   H157      1.0  0.6749879839248829  0.7769275436232974  0.525685271522399  1.0000
  H   H158      1.0  0.6057011075888166  0.7662592914804749  0.5200146813469417  1.0000
  H   H159      1.0  0.6048290262481295  0.7192945665155343  0.6255100752968646  1.0000
  H   H160      1.0  0.6745655250576773  0.728583366763819  0.6305365966035907  1.0000
  C   C241      1.0  0.8814600955111601  0.8838548625968461  0.5472001744443313  1.0000
  C   C242      1.0  0.9208718053783803  0.8836411557881758  0.5528649111942306  1.0000
  C   C243      1.0  0.9456277381535608  0.8772710651750956  0.5239455091453246  1.0000
  C   C244      1.0  0.9309180297450589  0.8703773872906243  0.48948092975881224  1.0000
  C   C245      1.0  0.8915795014115907  0.8707304179248327  0.483831652894595  1.0000
  C   C246      1.0  0.8669477331512849  0.8780834726171406  0.5125215593867015  1.0000
  H   H161      1.0  0.9322591198707789  0.8885773137302622  0.5795536546556713  1.0000
  H   H162      1.0  0.9760277912128567  0.8774585485464967  0.5283999749947873  1.0000
  H   H163      1.0  0.8801494516038073  0.8660942868279331  0.45709591676683115  1.0000
  H   H164      1.0  0.8368097008118855  0.879921746936156  0.5075056069833368  1.0000
  C   C247      1.0  0.5411985407754137  0.0928118917098466  0.7090651603227849  1.0000
  C   C248      1.0  0.557628692998982  0.0678609188058934  0.685411129638016  1.0000
  C   C249      1.0  0.5616181547007103  0.03178093102913748  0.6955512069935869  1.0000
  C   C250      1.0  0.5502310846900138  0.020762428998200244  0.7297275999838819  1.0000
  C   C251      1.0  0.5328851044421103  0.045429625509374016  0.7531462280587627  1.0000
  C   C252      1.0  0.528035511996405  0.08143954302070866  0.742639921075646  1.0000
  H   H165      1.0  0.5670013005890348  0.07623893623742894  0.6591563196977213  1.0000
  H   H166      1.0  0.5744487848817253  0.012580655268776386  0.6772260360490913  1.0000
  H   H167      1.0  0.5233317727153889  0.03695534235289255  0.7793370641704359  1.0000
  H   H168      1.0  0.5151538995913268  0.10072815174845795  0.7609043099747648  1.0000
  C   C253      1.0  0.6665011992641856  0.2837439816641603  0.7294371680718862  1.0000
  C   C254      1.0  0.640783162343278  0.26777084078294155  0.7531551601918388  1.0000
  C   C255      1.0  0.6279281962601883  0.2871154268048611  0.7835395650520175  1.0000
  C   C256      1.0  0.6404062209217697  0.32252136996468006  0.7898995754486715  1.0000
  C   C257      1.0  0.6656193767609568  0.33845922345569507  0.7657991634402239  1.0000
  C   C258      1.0  0.6787648968089487  0.3190904700421763  0.7358343028344109  1.0000
  H   H169      1.0  0.6311356309749976  0.24048971248047735  0.7482681955400013  1.0000
  H   H170      1.0  0.608187712653744  0.2747509820133507  0.8019427909183365  1.0000
  H   H171      1.0  0.6755294216304942  0.3656248673928988  0.7704024198792042  1.0000
  H   H172      1.0  0.6986186100902083  0.33159418870611657  0.7175970952936799  1.0000
  C   C259      1.0  0.7007042040190852  0.04285562484527605  0.6427829267150649  1.0000
  C   C260      1.0  0.7273574556470099  0.015699417182159836  0.6354322812549689  1.0000
  C   C261      1.0  0.7152744773247757  0.9806761878249716  0.6267864540063939  1.0000
  C   C262      1.0  0.6764766204846102  0.9726222224207548  0.6259367674931763  1.0000
  C   C263      1.0  0.6497987770391951  0.9995705581072851  0.6339142070075844  1.0000
  C   C264      1.0  0.6618722494778946  0.03471807486607159  0.6422266747652758  1.0000
  H   H173      1.0  0.7574524172398935  0.021818168219394973  0.6361162076729759  1.0000
  H   H174      1.0  0.7360593915978362  0.9598716884903346  0.6210350652261335  1.0000
  H   H175      1.0  0.6197851500211928  0.9933180576987998  0.6331541896891542  1.0000
  H   H176      1.0  0.641158390389832  0.05530382841249981  0.6485845873153042  1.0000
  C   C265      1.0  0.43546522867303233  0.02747456892526068  0.5469384329762362  1.0000
  C   C266      1.0  0.45059204531849073  0.9926419660016299  0.5437162011825474  1.0000
  C   C267      1.0  0.4366268876514939  0.9647697527347306  0.5653279118360415  1.0000
  C   C268      1.0  0.4070944816974166  0.9716438412789361  0.589585031336139  1.0000
  C   C269      1.0  0.39186135729729415  0.006399637147185722  0.5924017784505876  1.0000
  C   C270      1.0  0.4063830160968822  0.03439891283919749  0.5715209392993583  1.0000
  H   H177      1.0  0.4730807786755162  0.9871541556567588  0.5246683929737201  1.0000
  H   H178      1.0  0.44831598308313464  0.9378649194473359  0.562843727632069  1.0000
  H   H179      1.0  0.36872004582792267  0.011803067934358147  0.6104532203500406  1.0000
  H   H180      1.0  0.39462216280323786  0.06127505247997833  0.5740191823378248  1.0000
  C   C271      1.0  0.4527313835682728  0.013063148063473973  0.31323511404879384  1.0000
  C   C272      1.0  0.4614004915510588  0.977459118616119  0.32246648649052106  1.0000
  C   C273      1.0  0.4659873233765029  0.9513003562080838  0.2953955190393947  1.0000
  C   C274      1.0  0.4629812120607116  0.9609457229380792  0.2591085087320973  1.0000
  C   C275      1.0  0.45417653618978665  0.996529379111922  0.24988284858335516  1.0000
  C   C276      1.0  0.44856942794162163  0.022493951850617755  0.2769778146208934  1.0000
  H   H181      1.0  0.46453192502880397  0.9700429814069522  0.35046795698387695  1.0000
  H   H182      1.0  0.47269049278077446  0.9237478818368973  0.3025723228496369  1.0000
  H   H183      1.0  0.45165801049448445  0.004034228572675325  0.2218979034191957  1.0000
  H   H184      1.0  0.442012366001062  0.050076840822749435  0.26983937661476637  1.0000
  C   C277      1.0  0.6151850796631328  0.11206385813605864  0.4613761903621838  1.0000
  C   C278      1.0  0.5986813953975111  0.10628970721354498  0.49507118925508675  1.0000
  C   C279      1.0  0.6011756245413887  0.1328540395113248  0.5220256171272689  1.0000
  C   C280      1.0  0.6181724682453956  0.1660395064836583  0.514603468431587  1.0000
  C   C281      1.0  0.6340365386469093  0.17204051080544625  0.4807105245614902  1.0000
  C   C282      1.0  0.6333492381349595  0.14475335526943053  0.4544117844680935  1.0000
  H   H185      1.0  0.5843179314260479  0.0812593797009216  0.5004759043088716  1.0000
  H   H186      1.0  0.5889118326556464  0.12806092674045785  0.548112530963755  1.0000
  H   H187      1.0  0.6471861267223937  0.19767719737449474  0.47485093440934883  1.0000
  H   H188      1.0  0.6459983446361707  0.14936171944737978  0.4283381583640868  1.0000
  C   C283      1.0  0.5865987015131929  0.910082347135796  0.447577732440727  1.0000
  C   C284      1.0  0.6024592827931607  0.8770801950614658  0.457940750879711  1.0000
  C   C285      1.0  0.6420886306245933  0.8728449895113423  0.45965163450557395  1.0000
  C   C286      1.0  0.665829230538272  0.9010323269852972  0.4491139925209657  1.0000
  C   C287      1.0  0.6499246456660426  0.9332312455137255  0.436550216511053  1.0000
  C   C288      1.0  0.610386171238307  0.9381279526027445  0.4367235941568236  1.0000
  H   H189      1.0  0.5841119512456189  0.8549927197236483  0.4650789969546662  1.0000
  H   H190      1.0  0.654324924472378  0.847614861982773  0.46859731504637975  1.0000
  H   H191      1.0  0.6682554106031001  0.954782745543965  0.4278043581014195  1.0000
  H   H192      1.0  0.5984450507363702  0.9636337839096419  0.42857326733823026  1.0000
  N   N1        1.0  0.05588519905079292  0.38206703807810144  0.3282222238110281  1.0000
  C   C289      1.0  0.05828302937764307  0.35237670248640807  0.3015477405710928  1.0000
  C   C290      1.0  0.09162411443992835  0.3835987501342845  0.34934841924522003  1.0000
  C   C291      1.0  0.0235936701213062  0.3756535871511169  0.35267097952007787  1.0000
  C   C292      1.0  0.05002272198985058  0.41667104370769287  0.3093885122182441  1.0000
  H   H193      1.0  0.0824900862958795  0.35627038699433206  0.28276103300310235  1.0000
  H   H194      1.0  0.03193629107125484  0.3504537197064126  0.28491156539206175  1.0000
  H   H195      1.0  0.06263368760067789  0.32585242190222136  0.3148769551559112  1.0000
  H   H196      1.0  0.11673274443982451  0.3873097152811315  0.33162146462248504  1.0000
  H   H197      1.0  0.09145721193763423  0.40663877575066654  0.3687060699366333  1.0000
  H   H198      1.0  0.09620994348457867  0.3585036991136481  0.36512724902191246  1.0000
  H   H199      1.0  0.021048829394512802  0.3975683227729988  0.3731252592497367  1.0000
  H   H200      1.0  0.026968873951885852  0.34978802467899905  0.367390782164351  1.0000
  H   H201      1.0  0.9960965279014514  0.3745223057182701  0.3377585042341095  1.0000
  H   H202      1.0  0.04975298879713197  0.4398306417276964  0.32867793329529355  1.0000
  H   H203      1.0  0.02251776520852644  0.41712572391146835  0.29446683075992214  1.0000
  H   H204      1.0  0.07309079075817304  0.4218120474507042  0.28973093831135366  1.0000
  N   N2        1.0  0.5373450745657445  0.5050452106967415  0.9348462969317513  1.0000
  C   C293      1.0  0.5345157498912084  0.5043654909653765  0.8950896672643666  1.0000
  C   C294      1.0  0.5074241537278087  0.48192942643068576  0.9503173406428735  1.0000
  C   C295      1.0  0.5322403692877318  0.5424415260190676  0.9480168198603096  1.0000
  C   C296      1.0  0.5751620609690571  0.4914893484558882  0.9460357223048901  1.0000
  H   H205      1.0  0.537980829202623  0.47655863346410776  0.8840734024423961  1.0000
  H   H206      1.0  0.5568739269332161  0.5213140492943875  0.8825098405930468  1.0000
  H   H207      1.0  0.5065041576983537  0.5147251046357659  0.8855408407905301  1.0000
  H   H208      1.0  0.5087569370428404  0.4819035819568499  0.9802986407214128  1.0000
  H   H209      1.0  0.4784385621427316  0.4915982641881315  0.9427569280009164  1.0000
  H   H210      1.0  0.5102604904445495  0.4534255700153102  0.9410732656877508  1.0000
  H   H211      1.0  0.5339117606653597  0.5439672767479576  0.977933833816081  1.0000
  H   H212      1.0  0.5038958626078821  0.5533706263776731  0.9400678538372077  1.0000
  H   H213      1.0  0.5542616251449756  0.5608367693717462  0.9370408047645328  1.0000
  H   H214      1.0  0.5781018853056952  0.49121386985574933  0.975880135554273  1.0000
  H   H215      1.0  0.598421656448335  0.5085466833604625  0.9351771497941939  1.0000
  H   H216      1.0  0.5800517835349477  0.46342882902582033  0.9361817533184441  1.0000
  N   N3        1.0  0.6681511465819654  0.6270536699415362  0.5648286772891192  1.0000
  C   C297      1.0  0.6459281259504597  0.5950341582962472  0.575300189382749  1.0000
  C   C298      1.0  0.698872138494744  0.6158816146092687  0.5400557523205145  1.0000
  C   C299      1.0  0.6849751040626156  0.6440607915178255  0.5973118554912966  1.0000
  C   C300      1.0  0.6428269266915283  0.6531669808202776  0.5465413614284846  1.0000
  H   H217      1.0  0.622059205170613  0.6025063517113648  0.5935070330480414  1.0000
  H   H218      1.0  0.664126235781523  0.5748368204507724  0.5893167055196779  1.0000
  H   H219      1.0  0.6332489668881617  0.581446994210742  0.551252777142933  1.0000
  H   H220      1.0  0.7187574200979688  0.5964527552348466  0.55311780747242  1.0000
  H   H221      1.0  0.6871957754181448  0.6024694162296642  0.515445491180408  1.0000
  H   H222      1.0  0.7159775362318578  0.6394437939421739  0.5312810738404299  1.0000
  H   H223      1.0  0.7020565227330082  0.6682904379271106  0.5903056391642573  1.0000
  H   H224      1.0  0.7043346734400581  0.6251530191782688  0.6118391060237713  1.0000
  H   H225      1.0  0.6625986772133016  0.653044319693118  0.6165331310762459  1.0000
  H   H226      1.0  0.6583398162829591  0.6781924979032149  0.5391430325363403  1.0000
  H   H227      1.0  0.6186457506749183  0.6614433588053285  0.5640665808136243  1.0000
  H   H228      1.0  0.6304440018014934  0.6415063794754937  0.5213883505256958  1.0000
  N   N4        1.0  0.09540918552679978  0.7992793229848973  0.6112069317995955  1.0000
  C   C301      1.0  0.13272958150161296  0.8120533438229773  0.6245380229694922  1.0000
  C   C302      1.0  0.0998817294535157  0.7837496667318199  0.5747083932123368  1.0000
  C   C303      1.0  0.06846175221176233  0.829919909213502  0.6096477883140557  1.0000
  C   C304      1.0  0.08068346446372243  0.7714481955826485  0.6357958597879417  1.0000
  H   H229      1.0  0.1532716655311517  0.7893723422637633  0.6276798821688506  1.0000
  H   H230      1.0  0.13035956426263234  0.8258436592395051  0.6511450169830566  1.0000
  H   H231      1.0  0.14564752387315755  0.831449683961765  0.605544116235521  1.0000
  H   H232      1.0  0.12146902259471472  0.7618098159282918  0.5744645467570912  1.0000
  H   H233      1.0  0.0726616780754088  0.7725049445510469  0.5642367763925714  1.0000
  H   H234      1.0  0.10968254157114199  0.8043955513240056  0.5552163970957975  1.0000
  H   H235      1.0  0.039796798172483605  0.8212400210627672  0.6002141214903716  1.0000
  H   H236      1.0  0.07844696333303758  0.8509331080820707  0.5906729818109309  1.0000
  H   H237      1.0  0.06512283483844827  0.8431832167924088  0.6364249060464843  1.0000
  H   H238      1.0  0.10021497140132696  0.747746423187304  0.6372320925023494  1.0000
  H   H239      1.0  0.05235520145113837  0.7613802586969375  0.6268289327997164  1.0000
  H   H240      1.0  0.0774585859922492  0.7821728889546081  0.6636773626048365  1.0000
  N   N5        1.0  0.5841924436028372  0.9838719270212202  0.27259921924473257  1.0000
  C   C305      1.0  0.5665335725104282  0.9505970124712669  0.2582340151724748  1.0000
  C   C306      1.0  0.5541844630325206  0.010550035560143334  0.2811866598402772  1.0000
  C   C307      1.0  0.6100955487161132  0.9989482620939033  0.2453004412745999  1.0000
  C   C308      1.0  0.6058652115028113  0.9753422613132476  0.30571923879021623  1.0000
  H   H241      1.0  0.5882409632462143  0.9296870425838883  0.2517381991114842  1.0000
  H   H242      1.0  0.5502104065872919  0.9559558294591068  0.2330796897815544  1.0000
  H   H243      1.0  0.5462591966232893  0.9387191190495522  0.27779552602094837  1.0000
  H   H244      1.0  0.5346711979167581  0.0003115946505753974  0.3022570985326493  1.0000
  H   H245      1.0  0.5664149044841482  0.036300118748071375  0.29147568572254584  1.0000
  H   H246      1.0  0.5364608087503444  0.016919002702255662  0.257118239282127  1.0000
  H   H247      1.0  0.6243248508150073  0.023875533854406994  0.25526702769945137  1.0000
  H   H248      1.0  0.5945606652120916  0.006021823820194116  0.22008726285434882  1.0000
  H   H249      1.0  0.6326943756646102  0.9792948878874036  0.23757162831611567  1.0000
  H   H250      1.0  0.6290611216933675  0.9555737079468571  0.3002604025704385  1.0000
  H   H251      1.0  0.5871362187245092  0.9634551784619022  0.3266551417943029  1.0000
  H   H252      1.0  0.6190585325214707  0.9999534637352064  0.3176879374121044  1.0000
  N   N6        1.0  0.26802261115118775  0.47533950119254  0.1058292856991363  1.0000
  C   C309      1.0  0.2649824015782938  0.4572765291861857  0.1410456012813612  1.0000
  C   C310      1.0  0.3076774085853283  0.4871751790214981  0.10041109018236705  1.0000
  C   C311      1.0  0.24228333177740002  0.5069176115599984  0.10510351239900743  1.0000
  C   C312      1.0  0.2570897041328708  0.449873257915971  0.07680808711861764  1.0000
  H   H253      1.0  0.2850945559030607  0.43422905073539336  0.14315959845022336  1.0000
  H   H254      1.0  0.23595137480890543  0.4463568183069087  0.1451646669898383  1.0000
  H   H255      1.0  0.27144993363932773  0.47599275315894524  0.1637733448530625  1.0000
  H   H256      1.0  0.311388731977065  0.5003804455829278  0.07382758105561105  1.0000
  H   H257      1.0  0.3169588705780215  0.5064994764623987  0.12172685544213123  1.0000
  H   H258      1.0  0.32764919470222165  0.4638315707430246  0.10121268704147914  1.0000
  H   H259      1.0  0.21216238844619772  0.4986784308438452  0.10925968744465202  1.0000
  H   H260      1.0  0.24376131217542946  0.5211315486468687  0.07884092011716537  1.0000
  H   H261      1.0  0.24965538075258598  0.5266896382955437  0.12669172690880015  1.0000
  H   H262      1.0  0.2591452921927522  0.4625277001981204  0.04981411877467945  1.0000
  H   H263      1.0  0.22741678467543594  0.44008654263979485  0.08024249592602517  1.0000
  H   H264      1.0  0.2759755501256734  0.42578130751491206  0.07650233568528231  1.0000
  N   N7        1.0  0.9010911884350713  0.38144172750471045  0.07703279208616287  1.0000
  C   C313      1.0  0.9031948394851527  0.4044228606487277  0.04471914872113291  1.0000
  C   C314      1.0  0.9355518018063674  0.38684977280095173  0.09932295646920862  1.0000
  C   C315      1.0  0.8982560363047046  0.3432171943860902  0.06581380126357272  1.0000
  C   C316      1.0  0.8673161116640538  0.3913368899468704  0.0984001103762975  1.0000
  H   H265      1.0  0.8776460056076638  0.4012290773559371  0.027253050177449275  1.0000
  H   H266      1.0  0.9285802782571084  0.39754654458587435  0.028174442274192964  1.0000
  H   H267      1.0  0.9056436043234333  0.43349974523261436  0.0521511980448961  1.0000
  H   H268      1.0  0.9396197961249398  0.4157882786287485  0.10647972115925948  1.0000
  H   H269      1.0  0.9341401520443989  0.3713822930000495  0.12485522111094106  1.0000
  H   H270      1.0  0.9615302265067096  0.377770754141649  0.08481452822752873  1.0000
  H   H271      1.0  0.8957323849822166  0.3251759308420318  0.08953110686748438  1.0000
  H   H272      1.0  0.923958997605943  0.3344473049242411  0.050634263242436806  1.0000
  H   H273      1.0  0.8730329204759615  0.3384860227300981  0.04821221065914805  1.0000
  H   H274      1.0  0.8652423782591151  0.37496198160733174  0.12332537744158795  1.0000
  H   H275      1.0  0.8406203813933536  0.3870464061851031  0.08280750828947912  1.0000
  H   H276      1.0  0.8682091193051149  0.4201853077486301  0.1069244018024007  1.0000
  N   N8        1.0  0.8499006105476824  0.7756222173415349  0.6064745973994156  1.0000
  C   C317      1.0  0.8900865707365881  0.7852465933259176  0.6132712425956872  1.0000
  C   C318      1.0  0.840375609089245  0.7828400279295442  0.568410686377411  1.0000
  C   C319      1.0  0.825090146872504  0.7975457212918944  0.6300590033462551  1.0000
  C   C320      1.0  0.8439198781357411  0.7369734146596645  0.6140770735721082  1.0000
  H   H277      1.0  0.8984561682916389  0.7797781585331383  0.6416717210178774  1.0000
  H   H278      1.0  0.895269982251292  0.8143845151216471  0.6078617039936627  1.0000
  H   H279      1.0  0.9095895290739661  0.769256723209733  0.5958058891471733  1.0000
  H   H280      1.0  0.8101794792555832  0.7759659282312602  0.5623465053872162  1.0000
  H   H281      1.0  0.8446102346026607  0.8118126206417297  0.5618107359915933  1.0000
  H   H282      1.0  0.8585951717344985  0.7668247640911641  0.549811145205056  1.0000
  H   H283      1.0  0.8314615840865676  0.792734186762026  0.6590007088202524  1.0000
  H   H284      1.0  0.7945108931417068  0.7910906176850295  0.6254471611633746  1.0000
  H   H285      1.0  0.8288422408522967  0.8268982766055284  0.6250262634803568  1.0000
  H   H286      1.0  0.8136839226671955  0.7290978138843307  0.60952559069998  1.0000
  H   H287      1.0  0.8513862017042014  0.730440446347631  0.6424762055495112  1.0000
  H   H288      1.0  0.8619923265449384  0.7195712659838266  0.5965705758791867  1.0000
  N   N9        1.0  0.11508843967785998  0.060689191091904515  0.9737100243178699  1.0000
  C   C321      1.0  0.08320968252800642  0.03653397193832486  0.9827506090197704  1.0000
  C   C322      1.0  0.14181856728282116  0.06258667118907058  0.004412113138217766  1.0000
  C   C323      1.0  0.10034309650454376  0.09722527032216832  0.9659153323350648  1.0000
  C   C324      1.0  0.1353647319622795  0.046438371186360516  0.9418421378639638  1.0000
  H   H289      1.0  0.0672079064601665  0.04676736014636451  0.006484257832084062  1.0000
  H   H290      1.0  0.09357530527534563  0.009062339029388466  0.9898892462019254  1.0000
  H   H291      1.0  0.06272109580173169  0.0338829681892332  0.9599936998224139  1.0000
  H   H292      1.0  0.16684520017874283  0.07950791075678687  0.9979510602256139  1.0000
  H   H293      1.0  0.1285367895597458  0.07465545314545063  0.02866671305831958  1.0000
  H   H294      1.0  0.15209739746847295  0.03539767906341629  0.012519647039232362  1.0000
  H   H295      1.0  0.12380025576832021  0.11601794288458622  0.9589650514238616  1.0000
  H   H296      1.0  0.08544311535635751  0.10907042322158866  0.9896167698323178  1.0000
  H   H297      1.0  0.07985540412165992  0.09692531959392015  0.9430056479937113  1.0000
  H   H298      1.0  0.11619914276347676  0.04417642182924175  0.918033203104482  1.0000
  H   H299      1.0  0.14770313773335486  0.019265176627410785  0.9471044579537631  1.0000
  H   H300      1.0  0.15946063351852957  0.06426763059346796  0.9342284800550922  1.0000
  N   N10       1.0  0.8669190116280454  0.4865689709179357  0.4417547803326977  1.0000
  C   C325      1.0  0.874920347473546  0.5057331765820365  0.47597661866734264  1.0000
  C   C326      1.0  0.8577239193422764  0.44848865686986294  0.449348467291734  1.0000
  C   C327      1.0  0.9007432974540338  0.4882275458938572  0.4182770893616312  1.0000
  C   C328      1.0  0.83416649834888  0.5037906608443029  0.42352088711109415  1.0000
  H   H301      1.0  0.8803692768923008  0.5348819652812898  0.4715299619668916  1.0000
  H   H302      1.0  0.9003605055542688  0.4943108656026103  0.4897593139464202  1.0000
  H   H303      1.0  0.8506369581454353  0.5034509342625578  0.4949931119802597  1.0000
  H   H304      1.0  0.8508993483268658  0.4332700244148394  0.4242094432587019  1.0000
  H   H305      1.0  0.8819332755824653  0.43450772108189023  0.46281587335562213  1.0000
  H   H306      1.0  0.8327465364163847  0.44634721925067067  0.4676090215740079  1.0000
  H   H307      1.0  0.9260413314411685  0.47567461159484575  0.4313468694805136  1.0000
  H   H308      1.0  0.9084704342956396  0.5165306528017851  0.41176338937268486  1.0000
  H   H309      1.0  0.8959634924866746  0.47369940436014996  0.3923097859717267  1.0000
  H   H310      1.0  0.8079794383732648  0.5022069012272038  0.4402818743657268  1.0000
  H   H311      1.0  0.8279181400957082  0.490526121541096  0.39718456956074655  1.0000
  H   H312      1.0  0.8396663514091351  0.5327788073176668  0.4181021225834896  1.0000
  N   N11       1.0  0.08143680887105909  0.13912793681283311  0.17559655885161862  1.0000
  C   C329      1.0  0.05055784105297745  0.15141545815582444  0.15145854268860282  1.0000
  C   C330      1.0  0.11480256168736469  0.16295529718588783  0.17173065174321334  1.0000
  C   C331      1.0  0.09224121792981776  0.1017613910605256  0.16594454680931436  1.0000
  C   C332      1.0  0.06818066772803011  0.1403064753287998  0.21330810306287407  1.0000
  H   H313      1.0  0.041484536015367945  0.1794690033234417  0.15794549626823073  1.0000
  H   H314      1.0  0.02498587048370382  0.13386028783752846  0.15357459264130324  1.0000
  H   H315      1.0  0.05971823039162327  0.15081502991485088  0.12284004281635896  1.0000
  H   H316      1.0  0.1077977134249033  0.1913424264697276  0.17914849536250044  1.0000
  H   H317      1.0  0.1387588115027869  0.15403643988634555  0.18933537064257489  1.0000
  H   H318      1.0  0.1254586538722442  0.1629068058431577  0.14355480416293687  1.0000
  H   H319      1.0  0.10288981147397447  0.09971010740971258  0.1377899796170987  1.0000
  H   H320      1.0  0.06762294753596487  0.08308574083904821  0.16813164088138954  1.0000
  H   H321      1.0  0.11502518223466884  0.09149290431467112  0.18410671796075606  1.0000
  H   H322      1.0  0.09127851357241012  0.13241333082423673  0.2323645133689165  1.0000
  H   H323      1.0  0.04416892965125063  0.12129864834499443  0.2176197265611335  1.0000
  H   H324      1.0  0.058418850158367785  0.16781316033020083  0.2211710077868505  1.0000
  N   N12       1.0  0.038398230266440514  0.7664591998367674  0.3927981317921815  1.0000
  C   C333      1.0  0.0767788954068569  0.7509042357834553  0.3876318823342622  1.0000
  C   C334      1.0  0.009734240042069022  0.7374007301444406  0.39135279588652905  1.0000
  C   C335      1.0  0.03056658372590282  0.792901941277366  0.3640347499494114  1.0000
  C   C336      1.0  0.03653412245605048  0.7847091212234029  0.4282271614154366  1.0000
  H   H325      1.0  0.09902968576685578  0.7722824132750177  0.3876448853187722  1.0000
  H   H326      1.0  0.07889137716015271  0.7363857851835922  0.36140459193144664  1.0000
  H   H327      1.0  0.08421985373855678  0.7315489462826034  0.4093265803473799  1.0000
  H   H328      1.0  0.9804599585784342  0.7481953266614421  0.39530367853766624  1.0000
  H   H329      1.0  0.01017535756832233  0.7230371050815602  0.3650017109441714  1.0000
  H   H330      1.0  0.01514763850442935  0.7167173356024934  0.41238632378472656  1.0000
  H   H331      1.0  0.002200518073393276  0.8058788700239182  0.3674897996451952  1.0000
  H   H332      1.0  0.03122977668957838  0.7799420936719538  0.33690734041312953  1.0000
  H   H333      1.0  0.05234213420342427  0.814680743163256  0.3639355335531336  1.0000
  H   H334      1.0  0.00803363117458522  0.7970518203791863  0.43297270010287064  1.0000
  H   H335      1.0  0.057818720818887843  0.8066666388861109  0.4301893853062895  1.0000
  H   H336      1.0  0.04261012120527763  0.7657172650634443  0.4505972212622613  1.0000
  N   N13       1.0  0.5912752496621937  0.5399782171286024  0.11660258024464709  1.0000
  C   C337      1.0  0.6223699920747683  0.5606709425022888  0.10003544098288208  1.0000
  C   C338      1.0  0.5912984219186836  0.5029294924950838  0.10182392595672485  1.0000
  C   C339      1.0  0.5545219023804224  0.5576308208106848  0.1085323826916127  1.0000
  C   C340      1.0  0.596848489510442  0.5386516178633517  0.15604140038690084  1.0000
  H   H337      1.0  0.6506322868088913  0.5488220222746191  0.10662041526357147  1.0000
  H   H338      1.0  0.6223485727874614  0.5891676465397572  0.10961852517160531  1.0000
  H   H339      1.0  0.6196216365229806  0.5612177280242205  0.07020208519182858  1.0000
  H   H340      1.0  0.5680418672011093  0.48686531370196595  0.11371874299865947  1.0000
  H   H341      1.0  0.5869851365795885  0.5027778953846873  0.07211942657663228  1.0000
  H   H342      1.0  0.6185162697581501  0.48871831271735355  0.10780398517417611  1.0000
  H   H343      1.0  0.5537105383766472  0.5857108993639298  0.11940088391983328  1.0000
  H   H344      1.0  0.5302560828699747  0.5427642367261215  0.12065304613287475  1.0000
  H   H345      1.0  0.5492037867638306  0.5592457554746867  0.07900435029544517  1.0000
  H   H346      1.0  0.5991975047138532  0.5662150258202004  0.16793554236592523  1.0000
  H   H347      1.0  0.6233161802433812  0.5237978481615038  0.1632617635398983  1.0000
  H   H348      1.0  0.5727541206108222  0.5248047307490427  0.16949844869659714  1.0000
  N   N14       1.0  0.8195728827872513  0.4716696345595803  0.6709253984081134  1.0000
  C   C341      1.0  0.8046439078658059  0.43588571457243647  0.6808805628825676  1.0000
  C   C342      1.0  0.7959770337503617  0.5003015508396237  0.6875178306312876  1.0000
  C   C343      1.0  0.8185886208284385  0.47540218582214155  0.6313190904353735  1.0000
  C   C344      1.0  0.859178781209028  0.4751119468304595  0.6840313459360678  1.0000
  H   H349      1.0  0.8227216850860646  0.41370739341212315  0.670033797835586  1.0000
  H   H350      1.0  0.7753552090403918  0.4317456619295572  0.6702126625645864  1.0000
  H   H351      1.0  0.802980615517354  0.4328181705069026  0.7106505470746831  1.0000
  H   H352      1.0  0.806445390285176  0.527609303560671  0.6805660161958241  1.0000
  H   H353      1.0  0.7660191929070386  0.49901554213506966  0.6781126830875793  1.0000
  H   H354      1.0  0.7954743141832162  0.4981371025413106  0.7173931840287142  1.0000
  H   H355      1.0  0.8282052320106134  0.5026141317571827  0.6229122001751105  1.0000
  H   H356      1.0  0.7893138979938847  0.4717590173489206  0.6204314092581323  1.0000
  H   H357      1.0  0.8371514002296936  0.4550621587144273  0.6178590571257249  1.0000
  H   H358      1.0  0.8709856549316229  0.5021423505138215  0.6779265156173241  1.0000
  H   H359      1.0  0.8782597816967346  0.4547908658583137  0.6711934955276095  1.0000
  H   H360      1.0  0.8610149131150111  0.47156823671469295  0.7137242878529343  1.0000
  N   N15       1.0  0.36338229099293345  0.9376647259511371  0.9289569368681003  1.0000
  C   C345      1.0  0.33963274610150007  0.910962648176964  0.9477766424110132  1.0000
  C   C346      1.0  0.3396073037621696  0.9582151350417911  0.9032802033334805  1.0000
  C   C347      1.0  0.3941392100131611  0.9189994136443066  0.9091803585673918  1.0000
  C   C348      1.0  0.380311468971852  0.9626165967663581  0.9556866833888301  1.0000
  H   H361      1.0  0.356671080832241  0.895359214625986  0.9677080528362763  1.0000
  H   H362      1.0  0.32639631237075134  0.8915443038010243  0.9285454445199247  1.0000
  H   H363      1.0  0.3162533532122617  0.9244181701122337  0.9630563298897338  1.0000
  H   H364      1.0  0.3564461399002306  0.9795808715197359  0.8897863189990093  1.0000
  H   H365      1.0  0.3274949736094211  0.9405209248764835  0.8818201180373465  1.0000
  H   H366      1.0  0.31527476849841185  0.9716460080809342  0.917019469489236  1.0000
  H   H367      1.0  0.38256771557868624  0.9003212116294059  0.8883126641256989  1.0000
  H   H368      1.0  0.4123839546250875  0.9028907425556748  0.9277008138232913  1.0000
  H   H369      1.0  0.4129746166512215  0.9386761182635625  0.895382454605136  1.0000
  H   H370      1.0  0.3969692726293744  0.9842746249122615  0.9424853398036074  1.0000
  H   H371      1.0  0.3993966433912815  0.9481858036184518  0.9748139262610429  1.0000
  H   H372      1.0  0.3581795803858433  0.9760434264268516  0.9721698479550206  1.0000
  N   N16       1.0  0.666490830434147  0.03758329113222047  0.7604817434239173  1.0000
  C   C349      1.0  0.6577080656758665  0.0064530820472421535  0.7368088182147854  1.0000
  C   C350      1.0  0.6909489168698411  0.06317353263840353  0.7410031871859522  1.0000
  C   C351      1.0  0.686353035889201  0.024829492760930272  0.7932265602361944  1.0000
  C   C352      1.0  0.6307967080887694  0.056011398596325986  0.7707483201525396  1.0000
  H   H373      1.0  0.684020242784627  0.9931154374194918  0.7266822993595796  1.0000
  H   H374      1.0  0.640810054247201  0.014812871139540775  0.7128733903039132  1.0000
  H   H375      1.0  0.6407507983543936  0.9857164641578243  0.7510939983757936  1.0000
  H   H376      1.0  0.6989949338041862  0.08666649017196704  0.758156768457722  1.0000
  H   H377      1.0  0.7176290742240716  0.05011919284127475  0.7313418801731281  1.0000
  H   H378      1.0  0.676054349396971  0.073995024979578  0.7168519775721081  1.0000
  H   H379      1.0  0.6934832042011885  0.047591275619164985  0.8117404851724274  1.0000
  H   H380      1.0  0.7133416521820177  0.010647102737145753  0.7863770210804734  1.0000
  H   H381      1.0  0.6684345019754826  0.0056643020565776405  0.808693133770166  1.0000
  H   H382      1.0  0.6109469360047094  0.037177825173589696  0.784238977020012  1.0000
  H   H383      1.0  0.6157462823105452  0.0669877762032196  0.7467263775674632  1.0000
  H   H384      1.0  0.6362161391605786  0.07912327376699202  0.7893133882145758  1.0000
  N   N17       1.0  0.38449699336395365  0.5940309134558207  0.570182428357297  1.0000
  C   C353      1.0  0.3921310708102126  0.580811845016099  0.6069959773195182  1.0000
  C   C354      1.0  0.35831123494288164  0.5688712172231588  0.5515863767704869  1.0000
  C   C355      1.0  0.42061846584165213  0.5961584584140784  0.5501034805993209  1.0000
  C   C356      1.0  0.366791520110737  0.6302053701222726  0.5721258252928404  1.0000
  H   H385      1.0  0.4102834759993596  0.5999959600907051  0.6225843531691723  1.0000
  H   H386      1.0  0.4073635281653191  0.5544479021247947  0.6065933331461009  1.0000
  H   H387      1.0  0.3652386883830981  0.5770498952600718  0.622203554031495  1.0000
  H   H388      1.0  0.3516914727075375  0.5780447966410143  0.523777139231332  1.0000
  H   H389      1.0  0.37076110536262646  0.5412821130420996  0.5497501619429381  1.0000
  H   H390      1.0  0.33078658780460846  0.5666771548237005  0.566271715270541  1.0000
  H   H391      1.0  0.4160587589102377  0.6057325071404196  0.5220905548602138  1.0000
  H   H392      1.0  0.43512163440165497  0.5694371334795624  0.5486474484187207  1.0000
  H   H393      1.0  0.4408537042197719  0.6150432450206516  0.5634452453402103  1.0000
  H   H394      1.0  0.3382949719743342  0.6290125801126577  0.5849113925251125  1.0000
  H   H395      1.0  0.36272106283161776  0.6420170010079562  0.5449270866970755  1.0000
  H   H396      1.0  0.38440902701758173  0.6493385804197395  0.5883405958455256  1.0000
  N   N18       1.0  0.5269729664788975  0.798140421795681  0.07091652334072628  1.0000
  C   C357      1.0  0.5292795176271523  0.8135999852767728  0.03436828902630085  1.0000
  C   C358      1.0  0.5025548609491459  0.7657170616695144  0.07010208935486562  1.0000
  C   C359      1.0  0.5107458640100058  0.8252230506002526  0.09590447545630766  1.0000
  C   C360      1.0  0.5655047515661155  0.7879833062711762  0.08329927199968433  1.0000
  H   H397      1.0  0.5008352860797528  0.8223517786664798  0.024366894767307246  1.0000
  H   H398      1.0  0.5411750124628878  0.793794840278142  0.014726179293436337  1.0000
  H   H399      1.0  0.548089550369868  0.8377206373094047  0.03395376942094818  1.0000
  H   H400      1.0  0.5006428641573255  0.7530319054195083  0.09715704540086352  1.0000
  H   H401      1.0  0.47315648401792365  0.7723120736544583  0.06102073368463245  1.0000
  H   H402      1.0  0.5140255367867866  0.7446928241636552  0.051514454454584684  1.0000
  H   H403      1.0  0.5084674626432686  0.8145245005035916  0.12374085772691319  1.0000
  H   H404      1.0  0.48180434509781894  0.8339050054895145  0.08713486692760043  1.0000
  H   H405      1.0  0.5286155738048409  0.8499624431233412  0.09715166402274895  1.0000
  H   H406      1.0  0.58501005370332  0.811602627768185  0.08376449671270154  1.0000
  H   H407      1.0  0.5783505244160545  0.7676294833406451  0.0649531881189982  1.0000
  H   H408      1.0  0.5650687721875066  0.7761461801666273  0.11076356792937525  1.0000
  N   N19       1.0  0.6328125575404205  0.5016994066368808  0.3416217747927837  1.0000
  C   C361      1.0  0.618859120285226  0.46566772446675875  0.33063246965943405  1.0000
  C   C362      1.0  0.6739267090275224  0.4995511033300807  0.3498582357491542  1.0000
  C   C363      1.0  0.6120654363737973  0.5138805658170457  0.3740957546181935  1.0000
  C   C364      1.0  0.6264683501880195  0.5275889407649224  0.31204240293130164  1.0000
  H   H409      1.0  0.5881005283547456  0.46631237343848886  0.3234834657094852  1.0000
  H   H410      1.0  0.6225780197455628  0.4456965653562991  0.3526784570798213  1.0000
  H   H411      1.0  0.6346428713493276  0.4549845550565717  0.30694849101905664  1.0000
  H   H412      1.0  0.685644890108231  0.5262522138611091  0.35792894765610195  1.0000
  H   H413      1.0  0.6795288603932859  0.4806101637062672  0.3722994036344932  1.0000
  H   H414      1.0  0.6905608487991496  0.48965361244216987  0.32631410457206195  1.0000
  H   H415      1.0  0.6225469370533618  0.5404815643836453  0.38404232087682394  1.0000
  H   H416      1.0  0.6154955709339262  0.49438054802259895  0.396609606058355  1.0000
  H   H417      1.0  0.581021189920199  0.5166133196270322  0.3687490158048949  1.0000
  H   H418      1.0  0.6364864891947657  0.5550925512383976  0.3195682294984446  1.0000
  H   H419      1.0  0.5957932715345448  0.5296620818745315  0.3047696261235271  1.0000
  H   H420      1.0  0.642120289674415  0.5194362113732061  0.2872617798763737  1.0000
  N   N20       1.0  0.0376910064660263  0.570959240846555  0.5898872897928474  1.0000
  C   C365      1.0  0.9968228152069185  0.5776783727705082  0.5830765387407025  1.0000
  C   C366      1.0  0.04629939579608555  0.5774927299251941  0.6283874692289293  1.0000
  C   C367      1.0  0.06051839020651606  0.5955077024054588  0.5675414263502823  1.0000
  C   C368      1.0  0.04715806408628742  0.533182353600568  0.5805116316534388  1.0000
  H   H421      1.0  0.9892294337276609  0.5726510034382225  0.5543573235468927  1.0000
  H   H422      1.0  0.9887654306784239  0.6059954558746712  0.5898750054562546  1.0000
  H   H423      1.0  0.9787673597881653  0.5598187226742207  0.5996842477447267  1.0000
  H   H424      1.0  0.038648739089437445  0.6054496039938073  0.6366629087896258  1.0000
  H   H425      1.0  0.030061664879585503  0.5588076557784216  0.6458978928111845  1.0000
  H   H426      1.0  0.077142398176401  0.5736927825237212  0.6343230442894601  1.0000
  H   H427      1.0  0.05543041658368075  0.5907057946792906  0.538312428112508  1.0000
  H   H428      1.0  0.09150470488786344  0.5918030852552925  0.5725557198900311  1.0000
  H   H429      1.0  0.053568299472152026  0.6242050930790152  0.5731371434403123  1.0000
  H   H430      1.0  0.030750164253030343  0.513809511211756  0.5969808436376653  1.0000
  H   H431      1.0  0.07790234400911555  0.5273054073798045  0.5850213010869875  1.0000
  H   H432      1.0  0.040789829297744884  0.5270394425907103  0.5517392097057757  1.0000
  N   N21       1.0  0.17645980389319071  0.8390499303780028  0.18115064072744894  1.0000
  C   C369      1.0  0.13537565236088872  0.8338843363395737  0.17423942269377335  1.0000
  C   C370      1.0  0.18170757654962968  0.8632441268164736  0.21254541095227972  1.0000
  C   C371      1.0  0.1943531888091566  0.8552991075473813  0.14918716091143913  1.0000
  C   C372      1.0  0.19438130181924376  0.8037804055469069  0.18877014916201734  1.0000
  H   H433      1.0  0.12052504699731204  0.8600725090407584  0.16962651116300168  1.0000
  H   H434      1.0  0.12129662895618401  0.820692433539733  0.19744521926059944  1.0000
  H   H435      1.0  0.1302087253965685  0.8165653019911274  0.15015512638380174  1.0000
  H   H436      1.0  0.21235063121209669  0.8690278000559204  0.21763759824427806  1.0000
  H   H437      1.0  0.1673944561712055  0.8896621203199809  0.20822937597340996  1.0000
  H   H438      1.0  0.1698558537796406  0.8512917157992912  0.23746103235643332  1.0000
  H   H439      1.0  0.2252717099238628  0.8602028476686037  0.15369925255480252  1.0000
  H   H440      1.0  0.18136333529565762  0.8819317234389386  0.14278679679674028  1.0000
  H   H441      1.0  0.19122950599190677  0.8377831332831955  0.12494310583750928  1.0000
  H   H442      1.0  0.1909222262859943  0.7847524373629919  0.165694542515239  1.0000
  H   H443      1.0  0.1813743799274862  0.7908793978210167  0.21280496832576665  1.0000
  H   H444      1.0  0.22538220309531853  0.8067215942420277  0.19429175604333931  1.0000
  N   N22       1.0  0.5627909198732332  0.861796827778565  0.5647152548263894  1.0000
  C   C373      1.0  0.5510689995979345  0.8366488974255396  0.5357158953480025  1.0000
  C   C374      1.0  0.5830687423544908  0.8927515945887141  0.5489312826555243  1.0000
  C   C375      1.0  0.5881942985108779  0.8427921100085224  0.5902393821523785  1.0000
  C   C376      1.0  0.5287322349587028  0.8750021892636657  0.5839334422444871  1.0000
  H   H445      1.0  0.5352227832331019  0.8131487292644284  0.5465694008154245  1.0000
  H   H446      1.0  0.5761974305726992  0.8256302944478904  0.521237175987063  1.0000
  H   H447      1.0  0.532559061874749  0.8502381615286869  0.5154233291854686  1.0000
  H   H448      1.0  0.5924794871453547  0.9122541297660915  0.570058701986941  1.0000
  H   H449      1.0  0.6088931502851725  0.8838189262615131  0.534204922313582  1.0000
  H   H450      1.0  0.5647739614495312  0.907544183782494  0.5293264844835737  1.0000
  H   H451      1.0  0.598614725458139  0.8611805984756847  0.6119738530507564  1.0000
  H   H452      1.0  0.6136842141709964  0.83165169484624  0.5764223284318485  1.0000
  H   H453      1.0  0.5735887211040455  0.8195325754758198  0.6030025253910849  1.0000
  H   H454      1.0  0.536656822781916  0.8940218276393527  0.606028666214733  1.0000
  H   H455      1.0  0.5126564913212557  0.8523024103837622  0.5960485618197816  1.0000
  H   H456      1.0  0.509033785285671  0.8894984026494998  0.5653548301253174  1.0000
  N   N23       1.0  0.5815139388629184  0.5180763489828089  0.6776295111669566  1.0000
  C   C377      1.0  0.6078003448081125  0.5017328486226001  0.7041179254354385  1.0000
  C   C378      1.0  0.5893572946366685  0.5029992430625243  0.6414627547929014  1.0000
  C   C379      1.0  0.5869200032709981  0.5575838571869851  0.6772292038745218  1.0000
  C   C380      1.0  0.5418372689962909  0.5099463709854888  0.6877483332690218  1.0000
  H   H457      1.0  0.6026821909649419  0.5124265684670589  0.7317527984166687  1.0000
  H   H458      1.0  0.6381112474232433  0.5070391828817862  0.6974188232093257  1.0000
  H   H459      1.0  0.6041295556061044  0.4719873011136458  0.705122409598088  1.0000
  H   H460      1.0  0.5840892139161443  0.47340364074124297  0.6404288280528315  1.0000
  H   H461      1.0  0.5708424764291314  0.5155840987178185  0.6206778400030298  1.0000
  H   H462      1.0  0.6194688289158711  0.5073021480664867  0.6334706334207569  1.0000
  H   H463      1.0  0.567293883641322  0.5707362522820292  0.6576061384370548  1.0000
  H   H464      1.0  0.6165863034682468  0.5648149364784971  0.6700213746627621  1.0000
  H   H465      1.0  0.5809590333522109  0.569717853629515  0.7040985731589968  1.0000
  H   H466      1.0  0.5211578470047024  0.5222236246962361  0.6685286927424051  1.0000
  H   H467      1.0  0.535121916829969  0.520574797716351  0.7151182351183748  1.0000
  H   H468      1.0  0.5365976232004347  0.48036617710548946  0.6881773174642687  1.0000
  N   N24       1.0  0.6593094638262814  0.30694306774454105  0.5874981429367467  1.0000
  C   C381      1.0  0.6879224658709882  0.3348167194769393  0.5793641917007223  1.0000
  C   C382      1.0  0.6314532634366475  0.3045977752431182  0.5576130215303482  1.0000
  C   C383      1.0  0.639351951572385  0.3165170893944494  0.6211921529709681  1.0000
  C   C384      1.0  0.6784489426542664  0.27173685997818703  0.5918768874068263  1.0000
  H   H469      1.0  0.7090360290669582  0.33758968569572195  0.601645447611827  1.0000
  H   H470      1.0  0.6743535259138704  0.36165975554107493  0.5755425527755703  1.0000
  H   H471      1.0  0.7036812031851095  0.3282678494210332  0.5542318587523019  1.0000
  H   H472      1.0  0.6094861528896397  0.28373126585139324  0.5629465119826385  1.0000
  H   H473      1.0  0.6165624062890253  0.33085329810753933  0.5534661414132259  1.0000
  H   H474      1.0  0.6454695618072066  0.2970528194004954  0.5318096241925698  1.0000
  H   H475      1.0  0.619166270673629  0.2950146961191186  0.6293166855127932  1.0000
  H   H476      1.0  0.6227857251860757  0.34188203868052697  0.6181042618200068  1.0000
  H   H477      1.0  0.6596717403779095  0.32036761208549674  0.6440227073833185  1.0000
  H   H478      1.0  0.6994786109089357  0.2723634170534736  0.6144174060055261  1.0000
  H   H479      1.0  0.6935344159193298  0.26326585962605653  0.5669314200339838  1.0000
  H   H480      1.0  0.6575013346830714  0.25029880463826426  0.5980351736460169  1.0000
  N   N25       1.0  0.44993866505031777  0.949134744275947  0.7233730758501216  1.0000
  C   C385      1.0  0.4101596794979385  0.9383665697820743  0.716910076981418  1.0000
  C   C386      1.0  0.45122920011903206  0.9753048794211238  0.7535595744593055  1.0000
  C   C387      1.0  0.465133257634137  0.9659302822005328  0.6904179334265579  1.0000
  C   C388      1.0  0.472722749140102  0.9168579366341546  0.7325160893230788  1.0000
  H   H481      1.0  0.40786712951660015  0.9187869875986138  0.694140742322452  1.0000
  H   H482      1.0  0.3923482481243629  0.962165819301371  0.7100593488558886  1.0000
  H   H483      1.0  0.39742620827921543  0.9258197356843938  0.7411954673791173  1.0000
  H   H484      1.0  0.48086276370903414  0.9836386469952091  0.7597343834357111  1.0000
  H   H485      1.0  0.4345964079232428  0.00011808442911820372  0.7473121461249435  1.0000
  H   H486      1.0  0.43907722906964575  0.9637334973096864  0.7785779220550305  1.0000
  H   H487      1.0  0.4954307397351261  0.9737951145630607  0.693911489038635  1.0000
  H   H488      1.0  0.44886582195033636  0.9906573124539715  0.6830990626486279  1.0000
  H   H489      1.0  0.4634358556488836  0.9472124482140581  0.6668889008416381  1.0000
  H   H490      1.0  0.5030629857386036  0.9238183677976397  0.7373681596894487  1.0000
  H   H491      1.0  0.4720001769368089  0.8965052302314307  0.710377275444582  1.0000
  H   H492      1.0  0.4621086801352601  0.903732524722641  0.7573816265933812  1.0000
  N   N26       1.0  0.5995616765745228  0.7065397557184526  0.843901494777243  1.0000
  C   C389      1.0  0.6314833721953967  0.7041207621292545  0.8182336958073899  1.0000
  C   C390      1.0  0.5790478002474588  0.6718021460680011  0.8445146586526318  1.0000
  C   C391      1.0  0.5731353045749862  0.7354424459207447  0.8324764869892028  1.0000
  C   C392      1.0  0.6145760189428876  0.7146933413293114  0.8802986915757439  1.0000
  H   H493      1.0  0.6474825890522998  0.7299331222072438  0.8170386723171696  1.0000
  H   H494      1.0  0.6211784280709056  0.6979053692835043  0.7905014972793144  1.0000
  H   H495      1.0  0.6518487664831825  0.6823935988281998  0.8258666412836729  1.0000
  H   H496      1.0  0.5566222794839778  0.6716323852303365  0.8655702357251549  1.0000
  H   H497      1.0  0.5648404668424055  0.6661675973329684  0.8183220798555175  1.0000
  H   H498      1.0  0.5986200202547625  0.6488786315348433  0.850327709043504  1.0000
  H   H499      1.0  0.547887750497769  0.7370048913512878  0.850360526670467  1.0000
  H   H500      1.0  0.562481381991229  0.7306168726165401  0.8045193902237048  1.0000
  H   H501      1.0  0.5871120662807185  0.7623947987795082  0.8329873136376094  1.0000
  H   H502      1.0  0.5913873599533049  0.7154774294596267  0.9005919838378923  1.0000
  H   H503      1.0  0.6293534064168054  0.7412013626541517  0.8812227351995255  1.0000
  H   H504      1.0  0.6351607557809239  0.693669188223737  0.8893120681802552  1.0000
  N   N27       1.0  0.24030000469636165  0.26409592779786456  0.31448502782373516  1.0000
  C   C393      1.0  0.2661924197458627  0.2698428655111243  0.34546840898949704  1.0000
  C   C394      1.0  0.20113768156384668  0.2741144412251608  0.3249544312177623  1.0000
  C   C395      1.0  0.2412752052588778  0.22564816750577354  0.3036192242988631  1.0000
  C   C396      1.0  0.2525346267828579  0.28680205752124827  0.28408011013378903  1.0000
  H   H505      1.0  0.29612880775684447  0.2630605452177667  0.33852272128582717  1.0000
  H   H506      1.0  0.2579623117436905  0.25287646687590115  0.3687649338149921  1.0000
  H   H507      1.0  0.26544588112572803  0.2983836791123801  0.3550107277952807  1.0000
  H   H508      1.0  0.19954326710585427  0.30262945501898125  0.3344730562844241  1.0000
  H   H509      1.0  0.180811839224503  0.2709670751427321  0.30205206564687725  1.0000
  H   H510      1.0  0.1909653809247336  0.25698912980572436  0.34740638504911736  1.0000
  H   H511      1.0  0.2322894707764413  0.20772427382656697  0.3260318192166637  1.0000
  H   H512      1.0  0.27040806226916364  0.217034765513221  0.29562283762391794  1.0000
  H   H513      1.0  0.22191485371955422  0.2202619822699136  0.2804087258192437  1.0000
  H   H514      1.0  0.233399946610375  0.28367792191605584  0.26028642190766693  1.0000
  H   H515      1.0  0.2818679584418044  0.27992302364696336  0.2751321389123634  1.0000
  H   H516      1.0  0.252610169772262  0.3159576706739334  0.2915290240542207  1.0000
  N   N28       1.0  0.5130502637340755  0.10359128477395774  0.9586757157197511  1.0000
  C   C397      1.0  0.5378246218008342  0.074500387813907  0.9445915397887468  1.0000
  C   C398      1.0  0.4746741628648488  0.10030550976471875  0.9425228841506359  1.0000
  C   C399      1.0  0.5293686843731387  0.13899903047920925  0.9493336221881845  1.0000
  C   C400      1.0  0.510312260637458  0.10070501026914291  0.9982794070778169  1.0000
  H   H517      1.0  0.5263230124873436  0.04740848171268697  0.9512121101171419  1.0000
  H   H518      1.0  0.5671697771603744  0.07649267929196002  0.9558365642600016  1.0000
  H   H519      1.0  0.540233677952257  0.07578795792488058  0.9147256688152341  1.0000
  H   H520      1.0  0.4553801784315756  0.12216550656449532  0.9521883835954416  1.0000
  H   H521      1.0  0.4756295718274208  0.10181589698166071  0.9126313444448545  1.0000
  H   H522      1.0  0.46108309631466327  0.07419257036673144  0.9494850940098191  1.0000
  H   H523      1.0  0.5111535147929402  0.16162488829553467  0.9591152850527835  1.0000
  H   H524      1.0  0.5326743692872375  0.14199142135905363  0.9196929429548826  1.0000
  H   H525      1.0  0.5580447884301496  0.14264722810071717  0.9615902230956901  1.0000
  H   H526      1.0  0.49211129760479033  0.12254473832222534  0.00972105384412214  1.0000
  H   H527      1.0  0.5387227096977053  0.10294202771271821  0.011459744924387394  1.0000
  H   H528      1.0  0.49754908552322646  0.07458555150276025  0.006430673817939381  1.0000
  N   N29       1.0  0.8335087157706002  0.6585138328620495  0.09821440659100689  1.0000
  C   C401      1.0  0.8454295877948879  0.6967009198264981  0.09769365987711409  1.0000
  C   C402      1.0  0.8664691695197536  0.6356727580793932  0.1079575565247366  1.0000
  C   C403      1.0  0.8191735334404726  0.6479390510172136  0.062187797801289246  1.0000
  C   C404      1.0  0.8030117064899238  0.6538284950362946  0.12504828419499758  1.0000
  H   H529      1.0  0.8211065333544832  0.7148026618794336  0.09096752218570314  1.0000
  H   H530      1.0  0.8680812378841901  0.7011991451914545  0.07735848989200922  1.0000
  H   H531      1.0  0.8569909834697189  0.7054018850159607  0.12434394095086465  1.0000
  H   H532      1.0  0.8589781569644374  0.6065883746898163  0.10769444981560561  1.0000
  H   H533      1.0  0.8903001940475901  0.6389649160500576  0.08859580736104089  1.0000
  H   H534      1.0  0.8773103363140399  0.6423984305691282  0.13539104419916614  1.0000
  H   H535      1.0  0.8071937263719324  0.6201627055833884  0.06229587067517084  1.0000
  H   H536      1.0  0.8421238351265986  0.64837661190513  0.04167110646668282  1.0000
  H   H537      1.0  0.7959332593538141  0.6661727526213604  0.05295529216241923  1.0000
  H   H538      1.0  0.7772278397871614  0.6698596137781412  0.1178829265887229  1.0000
  H   H539      1.0  0.8124043865020921  0.6623171326027101  0.15246561507594492  1.0000
  H   H540      1.0  0.7939860692011717  0.6251416836548608  0.12666879314819712  1.0000
  N   N30       1.0  0.08101895427779704  0.23109403365257525  0.5144858384573835  1.0000
  C   C405      1.0  0.11410243458045088  0.22322554013308  0.5379145802107451  1.0000
  C   C406      1.0  0.06817501296006467  0.26864604900958117  0.5206267844239821  1.0000
  C   C407      1.0  0.049755183251512625  0.2059045830270733  0.5226286658376831  1.0000
  C   C408      1.0  0.092153008580099  0.2266332569306402  0.4764610361546776  1.0000
  H   H541      1.0  0.13826640598535112  0.24167828257501753  0.5321956878456747  1.0000
  H   H542      1.0  0.12461659295021543  0.1951517520787238  0.533638850246128  1.0000
  H   H543      1.0  0.10680029463879825  0.22624440739464755  0.5668804901601661  1.0000
  H   H544      1.0  0.043176642329355364  0.27544318301064463  0.5033414442247953  1.0000
  H   H545      1.0  0.05978678938047133  0.273329965820862  0.5491133366029902  1.0000
  H   H546      1.0  0.09093749779934379  0.28834103103608677  0.5140022080002923  1.0000
  H   H547      1.0  0.024533717863487015  0.21101035355183553  0.5050903287039824  1.0000
  H   H548      1.0  0.04046091562582066  0.2085086278453134  0.5511145598766103  1.0000
  H   H549      1.0  0.0586652527060354  0.17734290318927223  0.5180687434017246  1.0000
  H   H550      1.0  0.11689109267027775  0.243950015518505  0.47000249097098673  1.0000
  H   H551      1.0  0.0683130273061121  0.2337310951599965  0.45795973681935975  1.0000
  H   H552      1.0  0.10055365615413736  0.19842590857198006  0.470157427853391  1.0000
  N   N31       1.0  0.6837332533440506  0.26241368374810253  0.8876549324145101  1.0000
  C   C409      1.0  0.6953900890062252  0.2869249191195867  0.9172555290604507  1.0000
  C   C410      1.0  0.698151912653526  0.225669925048393  0.8948401079535042  1.0000
  C   C411      1.0  0.6996269632999683  0.2754520571617477  0.8533406831425074  1.0000
  C   C412      1.0  0.6417392143627402  0.2616063325997908  0.8851677197508496  1.0000
  H   H553      1.0  0.684682733297837  0.314849156493607  0.9126482801024262  1.0000
  H   H554      1.0  0.7269125424080742  0.288286549924284  0.919930054306577  1.0000
  H   H555      1.0  0.6840484920790239  0.27789193379625254  0.9436297575200935  1.0000
  H   H556      1.0  0.6874601182931456  0.21544274413824693  0.9209861809660087  1.0000
  H   H557      1.0  0.6885910730612522  0.20623561919781444  0.8736827903056199  1.0000
  H   H558      1.0  0.7297773020035414  0.2249418276471832  0.8959005756057272  1.0000
  H   H559      1.0  0.6904224354212587  0.30361519451203295  0.8477726678126072  1.0000
  H   H560      1.0  0.6900962581537688  0.25855324147504066  0.8301075975479547  1.0000
  H   H561      1.0  0.7312644840262331  0.27530991712246256  0.8537612989422465  1.0000
  H   H562      1.0  0.6318966280413296  0.2436910083130147  0.862851009052242  1.0000
  H   H563      1.0  0.6297552217005483  0.2889478738398109  0.8800675466285613  1.0000
  H   H564      1.0  0.6287925099723324  0.25136277600185114  0.9104009181989908  1.0000
  N   N32       1.0  0.050545301669229215  0.9739888453106342  0.3113656296436622  1.0000
  C   C413      1.0  0.03498695474058389  0.9437561352462119  0.33242484680740986  1.0000
  C   C414      1.0  0.09254691879978183  0.9719525844219147  0.3115231644550624  1.0000
  C   C415      1.0  0.03826376551791255  0.008681367292304287  0.32742959618642786  1.0000
  C   C416      1.0  0.036444892019660946  0.9715896055535885  0.2738813765450782  1.0000
  H   H565      1.0  0.043721686278942906  0.9172099876450747  0.3208943174198981  1.0000
  H   H566      1.0  0.0033546872160119534  0.9445167571819382  0.3330759552515954  1.0000
  H   H567      1.0  0.04522451064698774  0.9446861427199147  0.3608316140199476  1.0000
  H   H568      1.0  0.1028448730004301  0.9458875147112663  0.3003542644153418  1.0000
  H   H569      1.0  0.10529219631344278  0.9942065540807781  0.29578495911070657  1.0000
  H   H570      1.0  0.10440959317019471  0.9743120180012279  0.33910933914215363  1.0000
  H   H571      1.0  0.05006828581630329  0.03198423912600323  0.3124224286897381  1.0000
  H   H572      1.0  0.048223529883290706  0.011427899129337504  0.3557773729634758  1.0000
  H   H573      1.0  0.006750277164929486  0.011303900354879602  0.32749551171442326  1.0000
  H   H574      1.0  0.047398444501665304  0.9942299316525527  0.2574106079510147  1.0000
  H   H575      1.0  0.004836807066477045  0.9725984242388958  0.27261513910882074  1.0000
  H   H576      1.0  0.04552080357142363  0.9459708602647594  0.26070606493946835  1.0000
  N   N33       1.0  0.16413283276232393  0.0183656253236939  0.5562994718367836  1.0000
  C   C417      1.0  0.20327589214380803  0.004330893000584535  0.552086119725849  1.0000
  C   C418      1.0  0.15270444035987962  0.015558480319161516  0.5944381798022422  1.0000
  C   C419      1.0  0.13778132532479792  0.9969977139468033  0.5336471152093311  1.0000
  C   C420      1.0  0.16275004523504233  0.056505934702001825  0.5450329843293877  1.0000
  H   H577      1.0  0.20527680073891252  0.9755357879643964  0.5602768357521214  1.0000
  H   H578      1.0  0.22384006227476694  0.019817885608275132  0.5690275388561544  1.0000
  H   H579      1.0  0.2128759038313206  0.006183293014564439  0.5236349522434269  1.0000
  H   H580      1.0  0.15411976172053876  0.9871520919011607  0.6039228484687018  1.0000
  H   H581      1.0  0.17157858370484624  0.03189216025021868  0.6122803471740188  1.0000
  H   H582      1.0  0.12294877289606299  0.02505233259031381  0.5984724943651031  1.0000
  H   H583      1.0  0.107828819580295  0.006309069368695796  0.5367655792472595  1.0000
  H   H584      1.0  0.1383540270721466  0.9681010497222524  0.5412175957856568  1.0000
  H   H585      1.0  0.14511246881191897  0.9987755423328359  0.5045572397595046  1.0000
  H   H586      1.0  0.13375651173249614  0.06815755151425806  0.5482471246332995  1.0000
  H   H587      1.0  0.17069201751359953  0.05958822327831381  0.5161995240862852  1.0000
  H   H588      1.0  0.1825957629750019  0.07336996420581032  0.5612097113912502  1.0000
  N   N34       1.0  0.0752443847345321  0.5481267555354676  0.1554289363421013  1.0000
  C   C421      1.0  0.09135890697893068  0.5165780326822388  0.1743705532915436  1.0000
  C   C422      1.0  0.05555360958722555  0.5717833048941254  0.18157186993288077  1.0000
  C   C423      1.0  0.047888412326559715  0.5358635173577181  0.12760570208379507  1.0000
  C   C424      1.0  0.10627939360022132  0.5684202173747007  0.13817528527438916  1.0000
  H   H589      1.0  0.10661497249130969  0.49824182670507394  0.15546746864715844  1.0000
  H   H590      1.0  0.06879892683397038  0.5005603582613138  0.1877084665317612  1.0000
  H   H591      1.0  0.11209203772504162  0.524992522165057  0.19555704311411004  1.0000
  H   H592      1.0  0.042888803334178105  0.5957763674410892  0.16818040241183696  1.0000
  H   H593      1.0  0.032115293647309695  0.5574322382298518  0.19542952942446212  1.0000
  H   H594      1.0  0.07555818125302638  0.5819126047464527  0.2026100651126439  1.0000
  H   H595      1.0  0.034979500128237584  0.5590886915103382  0.11307433197296235  1.0000
  H   H596      1.0  0.024258303895012823  0.5200627290226826  0.13947199360249551  1.0000
  H   H597      1.0  0.06193463556721768  0.5185884600554019  0.10700860541285784  1.0000
  H   H598      1.0  0.09500283248150487  0.5919270494526003  0.12293403954028426  1.0000
  H   H599      1.0  0.122196224170815  0.5512089998377488  0.11872658028757632  1.0000
  H   H600      1.0  0.12690701760578427  0.5789717432248334  0.15854781839604648  1.0000
  N   N35       1.0  0.3502800398985415  0.03364462940213109  0.14677511978736374  1.0000
  C   C425      1.0  0.3505711733499674  0.07263821639162171  0.13868414252671457  1.0000
  C   C426      1.0  0.3597317689043436  0.013033768505655852  0.1138324845375863  1.0000
  C   C427      1.0  0.3120750078041587  0.023095424983555768  0.15932809532810602  1.0000
  C   C428      1.0  0.3788193672237715  0.025801752308324266  0.17508565189837105  1.0000
  H   H601      1.0  0.3293981352184498  0.07951372739994467  0.1173859061710493  1.0000
  H   H602      1.0  0.3789553256948313  0.08140802476597253  0.12885898459624298  1.0000
  H   H603      1.0  0.3438144676165313  0.0891315518179534  0.16294949223838529  1.0000
  H   H604      1.0  0.33919937019678664  0.018692324383297487  0.09165314798217072  1.0000
  H   H605      1.0  0.38850403900648006  0.020041680659738992  0.10394096769019301  1.0000
  H   H606      1.0  0.3593467684624277  0.9834511559198268  0.11866116578755984  1.0000
  H   H607      1.0  0.3108703951221149  0.9938065245015284  0.16569885525951641  1.0000
  H   H608      1.0  0.28995878957329385  0.02842510014109867  0.13842105693747478  1.0000
  H   H609      1.0  0.30379210562348213  0.03817839905695086  0.18407785438274235  1.0000
  H   H610      1.0  0.37992449869969497  0.9964763069853536  0.1813834111278289  1.0000
  H   H611      1.0  0.37238798228610237  0.04053150227781188  0.20054518230720678  1.0000
  H   H612      1.0  0.4078836996963177  0.03400693684822298  0.16657583381138238  1.0000
  N   N36       1.0  0.49088854890330125  0.1527388442030709  0.5726990311739988  1.0000
  C   C429      1.0  0.4744570167725837  0.1893739502969574  0.5702851301131026  1.0000
  C   C430      1.0  0.5030706151263755  0.14066607373766662  0.5365115554760913  1.0000
  C   C431      1.0  0.4620445544452878  0.12761957155155113  0.5867947235247349  1.0000
  C   C432      1.0  0.5240732907016679  0.15332430425538734  0.5972497769069769  1.0000
  H   H613      1.0  0.4649941794811642  0.19934201555683512  0.5971430635546385  1.0000
  H   H614      1.0  0.4493460301258116  0.18986739405136024  0.5518822008438694  1.0000
  H   H615      1.0  0.4956639962123621  0.2089387469546081  0.5598472299096641  1.0000
  H   H616      1.0  0.5160032345730428  0.11322004870212891  0.5373462277557535  1.0000
  H   H617      1.0  0.4785918379081274  0.13920070861404424  0.5174203042166624  1.0000
  H   H618      1.0  0.5245118938691692  0.1592516804706111  0.5248364593710445  1.0000
  H   H619      1.0  0.4734962484567249  0.09962356010817432  0.58855908068039  1.0000
  H   H620      1.0  0.4365047261997824  0.12641426282212098  0.5689386458143576  1.0000
  H   H621      1.0  0.4525595850335568  0.1356700397827413  0.6142490761110441  1.0000
  H   H622      1.0  0.5469609636904151  0.17119957673965863  0.5869666531952873  1.0000
  H   H623      1.0  0.5363126977016331  0.12583315902401754  0.600563037852806  1.0000
  H   H624      1.0  0.5161977740420771  0.1631946356410064  0.624624448898421  1.0000
  N   N37       1.0  0.5259700459002411  0.3101070997692071  0.1690110351406447  1.0000
  C   C433      1.0  0.5376823119849117  0.2847335458518454  0.1975584934395845  1.0000
  C   C434      1.0  0.513304641387151  0.3444775453575949  0.1854988901265363  1.0000
  C   C435      1.0  0.4943788044280725  0.29429847513793395  0.14781448537372285  1.0000
  C   C436      1.0  0.558623550824202  0.3168610475306957  0.14509793072130864  1.0000
  H   H625      1.0  0.5471946478282357  0.2584655128567973  0.18587347615185768  1.0000
  H   H626      1.0  0.5138472176477235  0.27907387799232086  0.2162920386250959  1.0000
  H   H627      1.0  0.5617405377774473  0.2957797819463509  0.2138335664802362  1.0000
  H   H628      1.0  0.4886351633310103  0.3404515632574199  0.20368228956065465  1.0000
  H   H629      1.0  0.5364934560091027  0.3572889313087725  0.2016035841855506  1.0000
  H   H630      1.0  0.5043130010380394  0.3642230364194473  0.1646080091198548  1.0000
  H   H631      1.0  0.4841451080317294  0.313274503593256  0.12671136189111384  1.0000
  H   H632      1.0  0.46959621581246763  0.28780823379170195  0.165105281659459  1.0000
  H   H633      1.0  0.5033663681622349  0.2689293447465719  0.13389811738296997  1.0000
  H   H634      1.0  0.5506648039603769  0.3354431733890555  0.12283241334725822  1.0000
  H   H635      1.0  0.5691182027037772  0.29137103392037994  0.13254044095172207  1.0000
  H   H636      1.0  0.5828762028713699  0.329141928428796  0.16014290653024404  1.0000
  N   N38       1.0  0.14459750109674538  0.5841199521969525  0.38661035870602006  1.0000
  C   C437      1.0  0.11512410408275277  0.5562369559699099  0.38107239584964936  1.0000
  C   C438      1.0  0.12699612993498316  0.6169984129773469  0.4020182980439415  1.0000
  C   C439      1.0  0.16224581066267985  0.5928441294708113  0.35168494656629573  1.0000
  C   C440      1.0  0.1740526390619909  0.5704092253628683  0.41159707862612327  1.0000
  H   H637      1.0  0.10073712395882395  0.5493598483173996  0.40674597281252417  1.0000
  H   H638      1.0  0.12748630667548835  0.530834785755519  0.3699649702557988  1.0000
  H   H639      1.0  0.09274178081293494  0.5655067431740018  0.36189451161000113  1.0000
  H   H640      1.0  0.11337907448284307  0.611531496299085  0.42840037109430584  1.0000
  H   H641      1.0  0.14839147536674924  0.6386126788951622  0.4066679807290446  1.0000
  H   H642      1.0  0.10458197899059062  0.628008609962808  0.3838618806458215  1.0000
  H   H643      1.0  0.14094582245733797  0.6040093276055392  0.3324656568237844  1.0000
  H   H644      1.0  0.17495497865360352  0.5684711698426009  0.3387344541126365  1.0000
  H   H645      1.0  0.18509060742889788  0.6133452601131717  0.3548320749882978  1.0000
  H   H646      1.0  0.196429869529622  0.590974906893627  0.41687602226398357  1.0000
  H   H647      1.0  0.18811555582080217  0.5457479687177599  0.4006784753308641  1.0000
  H   H648      1.0  0.16166768004715235  0.5632898571692352  0.43810713200511975  1.0000
  N   N39       1.0  0.6167665946206886  0.9621200092873725  0.00798769761900564  1.0000
  C   C441      1.0  0.5963477898190305  0.9943199149782124  0.9946027370200795  1.0000
  C   C442      1.0  0.6469140796853082  0.9518848520400384  0.982215034813378  1.0000
  C   C443      1.0  0.5897085173122119  0.9319142435657474  0.011696142145756871  1.0000
  C   C444      1.0  0.6340960095944701  0.9704104206168678  0.043450346028954805  1.0000
  H   H649      1.0  0.615944812036614  0.017665175850422488  0.9917662105990758  1.0000
  H   H650      1.0  0.5731016351535645  0.0025105119945341148  0.013210585403865105  1.0000
  H   H651      1.0  0.5833602262611802  0.9891750957984596  0.9676839223296833  1.0000
  H   H652      1.0  0.6633263872604374  0.9280048712868672  0.9916558766509406  1.0000
  H   H653      1.0  0.6348296600624724  0.9449968818979819  0.9552646527229246  1.0000
  H   H654      1.0  0.6674023649944429  0.9743368029714814  0.9780945567363151  1.0000
  H   H655      1.0  0.5666405133007915  0.9386611311400544  0.031052845577984153  1.0000
  H   H656      1.0  0.6041321030977351  0.9071126291938346  0.021667660817788148  1.0000
  H   H657      1.0  0.5758957660135902  0.9249983905956858  0.9854942612548555  1.0000
  H   H658      1.0  0.6544676908569761  0.9933040410607293  0.04185875369034075  1.0000
  H   H659      1.0  0.6498513142938178  0.9468269952293624  0.05450946677309099  1.0000
  H   H660      1.0  0.6121598744532812  0.9780115606786235  0.06364501504975695  1.0000
  N   N40       1.0  0.31144371386505104  0.821671392623038  0.6154053613809106  1.0000
  C   C445      1.0  0.3084376211215016  0.8604258063031666  0.6067270318656354  1.0000
  C   C446      1.0  0.30779841494305965  0.800195280683735  0.5819036180551208  1.0000
  C   C447      1.0  0.28070290331750064  0.8118204717966799  0.6404982968121741  1.0000
  C   C448      1.0  0.3487334795427354  0.8143493225618094  0.6324933748678765  1.0000
  H   H661      1.0  0.3315647390616065  0.8691385913855827  0.5883523361289893  1.0000
  H   H662      1.0  0.31033855158316925  0.8773180806051416  0.6314196094905291  1.0000
  H   H663      1.0  0.2806591526965828  0.8668078067450944  0.5936768135033258  1.0000
  H   H664      1.0  0.2803753917251851  0.8059228865259809  0.5678916471259537  1.0000
  H   H665      1.0  0.3311785458788593  0.8060957652128085  0.5627752344438897  1.0000
  H   H666      1.0  0.3082871280383894  0.7707382905691906  0.5875196274384537  1.0000
  H   H667      1.0  0.2809474949855685  0.7824270512805247  0.6465018132734867  1.0000
  H   H668      1.0  0.2521697166772128  0.818338278034309  0.6290641636411226  1.0000
  H   H669      1.0  0.2831322439313276  0.8267231330616813  0.6665117269546286  1.0000
  H   H670      1.0  0.351889939558826  0.7853638347957854  0.6396213352190999  1.0000
  H   H671      1.0  0.35239327956447325  0.8302366540298575  0.6577872527467777  1.0000
  H   H672      1.0  0.37266483254722177  0.8212939541356816  0.6143266561005876  1.0000
  N   N41       1.0  0.8190760981372123  0.558444214593445  0.9213835706404313  1.0000
  C   C449      1.0  0.8460638493495655  0.5829934673716469  0.9397635452421654  1.0000
  C   C450      1.0  0.7866665646379787  0.5794439710155095  0.9069159467347884  1.0000
  C   C451      1.0  0.8049020154219713  0.5316500741203724  0.9473753101533458  1.0000
  C   C452      1.0  0.8386645463006701  0.5396832674723697  0.891467634021886  1.0000
  H   H673      1.0  0.8710201995503764  0.5679857875637806  0.9507172486356871  1.0000
  H   H674      1.0  0.832442744298449  0.5971799879799067  0.962889147441027  1.0000
  H   H675      1.0  0.8570651619894988  0.6038146926920431  0.9210709160527564  1.0000
  H   H676      1.0  0.7710882705158363  0.5938417263912167  0.9287519180958658  1.0000
  H   H677      1.0  0.7962677299349392  0.599921014145672  0.887145078433712  1.0000
  H   H678      1.0  0.7657483593694218  0.5616353662018415  0.8928704952090522  1.0000
  H   H679      1.0  0.7837840452049742  0.5131142576026705  0.9346015336079216  1.0000
  H   H680      1.0  0.790651444454413  0.5449773117592237  0.97068482729516  1.0000
  H   H681      1.0  0.8285457098122776  0.5149886324702662  0.958438720160313  1.0000
  H   H682      1.0  0.819233587153584  0.5205203463995971  0.8773455692535795  1.0000
  H   H683      1.0  0.8637982878472213  0.5241164438214034  0.9012555451578002  1.0000
  H   H684      1.0  0.8491881640571374  0.5591458176012678  0.8710833161099577  1.0000
  N   N42       1.0  0.25733987562981775  0.09424628639493648  0.7491659230811295  1.0000
  C   C453      1.0  0.24896881779447289  0.12665109662377017  0.7274943929535106  1.0000
  C   C454      1.0  0.22517672510432862  0.06877827817077731  0.7462294828466886  1.0000
  C   C455      1.0  0.2629515103070481  0.1046853062439288  0.7873081117938999  1.0000
  C   C456      1.0  0.2922957120691074  0.0767753394511228  0.7355168382025651  1.0000
  H   H685      1.0  0.22277303992522834  0.1405946081280589  0.7370150028246946  1.0000
  H   H686      1.0  0.24452455710117982  0.11949353675958596  0.6985457929013542  1.0000
  H   H687      1.0  0.27278390536093844  0.14634284240639484  0.7288301102611072  1.0000
  H   H688      1.0  0.23061947777910152  0.043902571855352956  0.7620579737162625  1.0000
  H   H689      1.0  0.19832362289457506  0.08098162610044946  0.7564109147268205  1.0000
  H   H690      1.0  0.2201458846820925  0.0603317659812348  0.7177675586286151  1.0000
  H   H691      1.0  0.23695478932594272  0.11741056566581176  0.798818225031843  1.0000
  H   H692      1.0  0.2868495552056376  0.12407224043228071  0.7906085178122227  1.0000
  H   H693      1.0  0.2697762497955025  0.0808069285803934  0.8041487987327879  1.0000
  H   H694      1.0  0.29895237377914596  0.051618937665789844  0.7504947281808109  1.0000
  H   H695      1.0  0.317403908061046  0.094820142946892  0.7381252550603649  1.0000
  H   H696      1.0  0.28931327934168083  0.06943835932013886  0.7065538668933241  1.0000
  N   N43       1.0  0.03149683439813833  0.5829349574535462  0.7767946525537082  1.0000
  C   C457      1.0  0.06832801998797788  0.5636390708600282  0.7780047716156392  1.0000
  C   C458      1.0  0.0024210228021388502  0.5594417472374709  0.7599722618433292  1.0000
  C   C459      1.0  0.03553760312032206  0.6161404567810065  0.755352285609142  1.0000
  C   C460      1.0  0.019692106468196302  0.5925359255275494  0.8138232942656298  1.0000
  H   H697      1.0  0.0909284210266259  0.5806057966156729  0.7905792710415468  1.0000
  H   H698      1.0  0.0781262385907302  0.5561710181365302  0.7504636792459618  1.0000
  H   H699      1.0  0.0662493381216287  0.5383893920581373  0.7939663309508139  1.0000
  H   H700      1.0  0.9743528737288513  0.5732510760318832  0.7584292797473119  1.0000
  H   H701      1.0  0.010282200982522527  0.5515836033443052  0.7319782366963353  1.0000
  H   H702      1.0  0.9983361389892573  0.5342341056490942  0.7755948212390428  1.0000
  H   H703      1.0  0.008512764235405923  0.6318694359070893  0.7547060426029222  1.0000
  H   H704      1.0  0.04349015426975966  0.610001220937224  0.7269477771194116  1.0000
  H   H705      1.0  0.05801318015765933  0.6341348997221253  0.7666022829806167  1.0000
  H   H706      1.0  0.9918302917556785  0.6069669793643089  0.8139435668043872  1.0000
  H   H707      1.0  0.0408126360651897  0.6104355678190555  0.827323073670204  1.0000
  H   H708      1.0  0.016472282956245365  0.5681201596082168  0.8309045917242219  1.0000
  N   N44       1.0  0.699877519541308  0.35741195015727273  0.0922787707083601  1.0000
  C   C461      1.0  0.7178593435219497  0.35528508626714617  0.1282217053590915  1.0000
  C   C462      1.0  0.7296887454967678  0.36084795083175375  0.06457879702472358  1.0000
  C   C463      1.0  0.6744511564267642  0.38919966072300455  0.0908484528301563  1.0000
  C   C464      1.0  0.6776004819838636  0.32432358919956  0.08553019226459613  1.0000
  H   H709      1.0  0.6962627654942061  0.35255792100798466  0.14984355971029828  1.0000
  H   H710      1.0  0.7346677837226407  0.3799072590669951  0.13417025795601867  1.0000
  H   H711      1.0  0.7375328050042673  0.33182083274931473  0.1302106926864275  1.0000
  H   H712      1.0  0.717266419360813  0.3609523809142504  0.036939119378938345  1.0000
  H   H713      1.0  0.7461471981706173  0.3862074801364237  0.06808657224851333  1.0000
  H   H714      1.0  0.7502295831909325  0.33801627425931435  0.06583732607260506  1.0000
  H   H715      1.0  0.659350565030859  0.39089953066389377  0.06448110970500687  1.0000
  H   H716      1.0  0.690728778299453  0.41466444730671553  0.09476628380924867  1.0000
  H   H717      1.0  0.6525466384058792  0.3882110865488334  0.11235927932925338  1.0000
  H   H718      1.0  0.6659232692795992  0.32387719173518303  0.057645673851636214  1.0000
  H   H719      1.0  0.6533961216515557  0.3220088766386419  0.10458842877963814  1.0000
  H   H720      1.0  0.6955352873702091  0.2996948832148125  0.08840867604470026  1.0000
  N   N45       1.0  0.8269965059711581  0.13970272448035917  0.047257954344418034  1.0000
  C   C465      1.0  0.8469797792252187  0.1356765944836179  0.08213964223048283  1.0000
  C   C466      1.0  0.799192096961123  0.16961940616330914  0.04975320620579415  1.0000
  C   C467      1.0  0.8068698636165094  0.10583139353854759  0.03836210695763698  1.0000
  C   C468      1.0  0.8549655534082917  0.14760851694344831  0.018807413274402492  1.0000
  H   H721      1.0  0.8679659347103951  0.11310388731694533  0.08130454207533447  1.0000
  H   H722      1.0  0.826701359354218  0.13005833337948725  0.10433376580029947  1.0000
  H   H723      1.0  0.8630641213724871  0.16047078617404775  0.08953197026748357  1.0000
  H   H724      1.0  0.7838508398019122  0.17356842187240007  0.023778953117271184  1.0000
  H   H725      1.0  0.7772642844020015  0.16426252516279666  0.07061717609497875  1.0000
  H   H726      1.0  0.8133449540850378  0.19559699192375898  0.05665129246326494  1.0000
  H   H727      1.0  0.8270975441628079  0.08294358454332378  0.034916695787455154  1.0000
  H   H728      1.0  0.7899212500309466  0.10840180673412397  0.013092479447596173  1.0000
  H   H729      1.0  0.7866853203948129  0.09830882162732928  0.0600595854908057  1.0000
  H   H730      1.0  0.870364622838888  0.17313766869015912  0.024541334883802165  1.0000
  H   H731      1.0  0.8410265231703268  0.150767631303044  0.9920139672463365  1.0000
  H   H732      1.0  0.8768101031433387  0.12592508928178495  0.016496666653051714  1.0000
  N   N46       1.0  0.09483011257267071  0.3178536449287974  0.05167057534183539  1.0000
  C   C469      1.0  0.11813492536047816  0.3508132550600702  0.05542014467777112  1.0000
  C   C470      1.0  0.06299093131025502  0.31943145866349243  0.07745037386209841  1.0000
  C   C471      1.0  0.11851293403205446  0.2857268667724682  0.05925555091694634  1.0000
  C   C472      1.0  0.0795249128993103  0.3154031113550988  0.014587859419820324  1.0000
  H   H733      1.0  0.10111983369953914  0.3754794584190812  0.04941257253061337  1.0000
  H   H734      1.0  0.1427585367559979  0.35035164016633924  0.03670524753885096  1.0000
  H   H735      1.0  0.1296002445914216  0.3539500901875794  0.08329648560252982  1.0000
  H   H736      1.0  0.043853984195690865  0.3427921370716757  0.07209285379504848  1.0000
  H   H737      1.0  0.04521759400419212  0.2946727136233579  0.07585410969209415  1.0000
  H   H738      1.0  0.07342978069518824  0.32201783383740845  0.10569985017178055  1.0000
  H   H739      1.0  0.13081228637935619  0.2868148234375913  0.08692531921282544  1.0000
  H   H740      1.0  0.14245642139274334  0.283163028539229  0.03987406272621952  1.0000
  H   H741      1.0  0.10157368145537561  0.26044919519907955  0.05696447819343308  1.0000
  H   H742      1.0  0.06170270652043808  0.2908936644273928  0.010886813384801464  1.0000
  H   H743      1.0  0.10273772018495998  0.3136929245955457  0.9943652178351361  1.0000
  H   H744      1.0  0.06146035452517596  0.339195597551595  0.007918187338135317  1.0000
  N   N47       1.0  0.6799383018910448  0.013366052594053546  0.5136483252069688  1.0000
  C   C473      1.0  0.6685324058799504  0.975353630164029  0.5182414188800993  1.0000
  C   C474      1.0  0.6773398156446969  0.022919642653059347  0.475142262616095  1.0000
  C   C475      1.0  0.71950757119132  0.018160691887760372  0.5264229746562702  1.0000
  C   C476      1.0  0.6543460889168489  0.036958146172736406  0.5347628564402427  1.0000
  H   H745      1.0  0.6702563006111112  0.9671352664352655  0.546928944238823  1.0000
  H   H746      1.0  0.6872995875718257  0.9568457239585143  0.5026177079005406  1.0000
  H   H747      1.0  0.6388351686224033  0.9706528260627978  0.508831307744845  1.0000
  H   H748      1.0  0.6481883310525904  0.01814309161810934  0.464277161256882  1.0000
  H   H749      1.0  0.6839803657205756  0.05190359231763453  0.47067394900204745  1.0000
  H   H750      1.0  0.6974135311746814  0.006587747448650205  0.45859973748990324  1.0000
  H   H751      1.0  0.7224513774729646  0.011113688939160538  0.5554069801525799  1.0000
  H   H752      1.0  0.729026020563504  0.04657998935790553  0.523378156181506  1.0000
  H   H753      1.0  0.7395990137066142  0.0005892949632271272  0.5111501691879109  1.0000
  H   H754      1.0  0.6242167929991395  0.03354098085072721  0.5261549031424562  1.0000
  H   H755      1.0  0.6617815612347464  0.06593844606402488  0.5314938562208958  1.0000
  H   H756      1.0  0.6560949873145121  0.03079459548592256  0.5639953093436809  1.0000
  N   N48       1.0  0.3606933596196417  0.07419030031898499  0.42045076742124393  1.0000
  C   C477      1.0  0.36149819462285676  0.04036903142894244  0.39916191372761983  1.0000
  C   C478      1.0  0.3242597937000177  0.0932123156641425  0.4140451362711114  1.0000
  C   C479      1.0  0.3925721241552686  0.09744639677249596  0.4093789396965143  1.0000
  C   C480      1.0  0.36461566567775344  0.0657797377086855  0.4591840030587032  1.0000
  H   H757      1.0  0.337784618238405  0.022135688332522996  0.4066444865505568  1.0000
  H   H758      1.0  0.38870206377564076  0.025429352426683094  0.4032571527566459  1.0000
  H   H759      1.0  0.35917097685659427  0.04580938999222983  0.3697532967210611  1.0000
  H   H760      1.0  0.32009862153339536  0.09968287601796191  0.38502267937811646  1.0000
  H   H761      1.0  0.2995483695072277  0.07667773309597781  0.4225486202125313  1.0000
  H   H762      1.0  0.3229120204372741  0.11903211917642206  0.42945031789436505  1.0000
  H   H763      1.0  0.4204300099931381  0.08393845780068761  0.4141421910587482  1.0000
  H   H764      1.0  0.3927270908692613  0.12336547193371988  0.4246491420522754  1.0000
  H   H765      1.0  0.39106958008665316  0.10374047414837274  0.3801153389678409  1.0000
  H   H766      1.0  0.3913644161338953  0.05061874099842201  0.4648509224936256  1.0000
  H   H767      1.0  0.3404394468025669  0.04926552744935986  0.46892388302030596  1.0000
  H   H768      1.0  0.3654028126485071  0.09078026600775323  0.4759568948943764  1.0000
