data_image0
_chemical_formula_structural       FeS2FeS2FeSFeS3FeS2FeS2FeSFeS3FeS2FeS2FeSFeS3FeS2FeS2FeSFeS3FeS2FeS2FeSFeS3FeS2FeS2FeSFeS3FeS2FeS2FeSFeS3FeS2FeS2FeSFeS3FeS2FeS2FeSFeS3FeS2FeS2FeSFeS3FeS2FeS2FeSFeS3FeS2FeS2FeSFeS3FeS2FeS2FeSFeS3FeS2FeS2FeSFeS3FeS2FeS2FeSFeS3FeS2FeS2FeSFeS3FeS2FeS2FeSFeS3FeS2FeS2FeSFeS3FeS2FeS2FeSFeS3FeS2FeS2FeSFeS3FeS2FeS2FeSFeS3FeS2FeS2FeSFeS3FeS2FeS2FeSFeS3FeS2FeS2FeSFeS3C6H4C6H4C6H4C6H4C6H4C6H4C6H4C6H4C6H4C6H4C6H4C6H4C6H4C6H4C6H4C6H4C6H4C6H4C6H4C6H4C6H4C6H4C6H4C6H4C6H4C6H4C6H4C6H4C6H4C6H4C6H4C6H4C6H4C6H4C6H4C6H4C6H4C6H4C6H4C6H4C6H4C6H4C6H4C6H4C6H4C6H4C6H4C6H4NC4H12NC4H12NC4H12NC4H12NC4H12NC4H12NC4H12NC4H12NC4H12NC4H12NC4H12NC4H12NC4H12NC4H12NC4H12NC4H12NC4H12NC4H12NC4H12NC4H12NC4H12NC4H12NC4H12NC4H12NC4H12NC4H12NC4H12NC4H12NC4H12NC4H12NC4H12NC4H12NC4H12NC4H12NC4H12NC4H12NC4H12NC4H12NC4H12NC4H12NC4H12NC4H12NC4H12NC4H12NC4H12NC4H12NC4H12NC4H12
_chemical_formula_sum              "Fe96 S192 C480 H768 N48"
_cell_length_a       37.38505890466623
_cell_length_b       38.73748117811009
_cell_length_c       36.48075010165736
_cell_angle_alpha    90.34233884149184
_cell_angle_beta     90.11005622782243
_cell_angle_gamma    89.89577174482027

_space_group_name_H-M_alt    "P 1"
_space_group_IT_number       1

loop_
  _space_group_symop_operation_xyz
  'x, y, z'

loop_
  _atom_site_type_symbol
  _atom_site_label
  _atom_site_symmetry_multiplicity
  _atom_site_fract_x
  _atom_site_fract_y
  _atom_site_fract_z
  _atom_site_occupancy
  Fe  Fe1       1.0  0.2742631469658143  0.20657768310457472  0.4098847224534219  1.0000
  S   S1        1.0  0.3137632586872836  0.22468859178509706  0.4518492416496781  1.0000
  S   S2        1.0  0.23162943023755894  0.24103443490645812  0.3867687532187505  1.0000
  Fe  Fe2       1.0  0.3053483229112396  0.13417982939268805  0.40808218911589506  1.0000
  S   S3        1.0  0.3474497146141501  0.1465526145759102  0.44995798675762494  1.0000
  S   S4        1.0  0.3058802048485214  0.08030413904050104  0.3859597404969445  1.0000
  Fe  Fe3       1.0  0.30264265706817756  0.17405504724919496  0.4788733825131469  1.0000
  S   S5        1.0  0.28924358908694475  0.17034200671831923  0.5386225434681269  1.0000
  Fe  Fe4       1.0  0.35351159319544867  0.19547082695659568  0.41812089028629457  1.0000
  S   S6        1.0  0.4040425941284816  0.221289383268469  0.40040979776491603  1.0000
  S   S7        1.0  0.25998808273360763  0.15787940189767993  0.4393151534771046  1.0000
  S   S8        1.0  0.3147450580686545  0.1809829926928301  0.3738085174724439  1.0000
  Fe  Fe5       1.0  0.15163922702664748  0.31128623638830727  0.7089889673957637  1.0000
  S   S9        1.0  0.18529953904500318  0.34931096253459576  0.6783785774538387  1.0000
  S   S10       1.0  0.09415425369127335  0.320954724398256  0.7226709719715564  1.0000
  Fe  Fe6       1.0  0.20829821724129657  0.25518555203321325  0.707606213877416  1.0000
  S   S11       1.0  0.24721102335155484  0.2884732083538212  0.6774056044605137  1.0000
  S   S12       1.0  0.21745153593114622  0.20118447798762956  0.7277594601498334  1.0000
  Fe  Fe7       1.0  0.2291090334627266  0.3302601599305799  0.7154051483785423  1.0000
  S   S13       1.0  0.27183952530739536  0.36103681638661833  0.7432765891166198  1.0000
  Fe  Fe8       1.0  0.19976996662139532  0.3036331654507743  0.643187313249974  1.0000
  S   S14       1.0  0.20017988836632705  0.3026954937443787  0.58151691321175  1.0000
  S   S15       1.0  0.19416775379251827  0.29580616794289993  0.7489356770605046  1.0000
  S   S16       1.0  0.16224381384073772  0.2672184187858553  0.6706724468188561  1.0000
  Fe  Fe9       1.0  0.7054007996052886  0.10929559440658675  0.33506837368158643  1.0000
  S   S17       1.0  0.6839798411387401  0.1329041685628552  0.3867667073333399  1.0000
  S   S18       1.0  0.702226285256834  0.05184083504107705  0.3269536820920433  1.0000
  Fe  Fe10      1.0  0.7283288412898015  0.1786078851690127  0.3040552068609784  1.0000
  S   S19       1.0  0.7087366157463387  0.20821844643416135  0.3530666783778716  1.0000
  S   S20       1.0  0.7567910982263641  0.19936643580830615  0.2546953765358448  1.0000
  Fe  Fe11      1.0  0.7336596223218881  0.16552967189182324  0.38574078526738975  1.0000
  S   S21       1.0  0.7666423314975614  0.17725546323512076  0.43619340227452397  1.0000
  Fe  Fe12      1.0  0.6612182114461376  0.17290686579118011  0.3492363557638329  1.0000
  S   S22       1.0  0.6034358334671357  0.1883019199479399  0.3496698730394873  1.0000
  S   S23       1.0  0.7568236678762301  0.13852554220314048  0.33690121184383137  1.0000
  S   S24       1.0  0.6788291906077291  0.14667093185787158  0.2974241083437735  1.0000
  Fe  Fe13      1.0  0.5259147173039191  0.2817948070773829  0.19516094927942093  1.0000
  S   S25       1.0  0.4974531574564105  0.24122592490675152  0.16219808439684597  1.0000
  S   S26       1.0  0.5839966053664257  0.2817216494707478  0.21005800970862482  1.0000
  Fe  Fe14      1.0  0.4581662492089466  0.32263829847254094  0.2104909238925269  1.0000
  S   S27       1.0  0.4235936649806277  0.28586625230990065  0.17877168925322945  1.0000
  S   S28       1.0  0.43852170185670974  0.36653084292630034  0.24539743306338144  1.0000
  Fe  Fe15      1.0  0.45542085176451425  0.24461675766998872  0.20612221822398544  1.0000
  S   S29       1.0  0.42661907418910816  0.1996684345334626  0.2308116264158588  1.0000
  Fe  Fe16      1.0  0.46858609411215585  0.2865782742491367  0.13801109475672413  1.0000
  S   S30       1.0  0.45952055970184025  0.29197648184214187  0.07759049070721363  1.0000
  S   S31       1.0  0.4867408313564223  0.28123798708528636  0.24104778042797412  1.0000
  S   S32       1.0  0.5005414640570055  0.3270491079603305  0.16749228309292902  1.0000
  Fe  Fe17      1.0  0.16944599484433367  0.4280473592848978  0.2980994471370816  1.0000
  S   S33       1.0  0.18985167295499986  0.4625578622895616  0.3429210688991239  1.0000
  S   S34       1.0  0.11077916445156787  0.41565818691480466  0.2956062617594771  1.0000
  Fe  Fe18      1.0  0.24340155911967648  0.4185647745687773  0.26421246380004026  1.0000
  S   S35       1.0  0.2695422302944969  0.4525196935736484  0.30627760366116397  1.0000
  S   S36       1.0  0.27329594411951186  0.39087751530209364  0.21933369308368036  1.0000
  Fe  Fe19      1.0  0.23490584547127502  0.42430921372565583  0.34620598605459696  1.0000
  S   S37       1.0  0.25828823804804923  0.40155255961688824  0.39756022041576683  1.0000
  Fe  Fe20      1.0  0.22197728758010693  0.48708520049528337  0.29805768898509644  1.0000
  S   S38       1.0  0.2227838932734209  0.5445626825620813  0.2888205720205401  1.0000
  S   S39       1.0  0.21207454658952016  0.38781390088383594  0.30444833635584617  1.0000
  S   S40       1.0  0.1981566674214749  0.45515878415713334  0.2527985633154257  1.0000
  Fe  Fe21      1.0  0.2902934080200904  0.703561416252389  0.17619070895779396  1.0000
  S   S41       1.0  0.32782697324678334  0.6817568417989531  0.218108662136176  1.0000
  S   S42       1.0  0.2331899057071094  0.7179846882527486  0.18637217455268035  1.0000
  Fe  Fe22      1.0  0.3461589529218472  0.7029798728162904  0.11661120699459496  1.0000
  S   S43       1.0  0.38813169823480254  0.679776727086266  0.15273993898772223  1.0000
  S   S44       1.0  0.35675027139573895  0.7124293486811211  0.05700626289086964  1.0000
  Fe  Fe23      1.0  0.34384249567534436  0.6458310998199636  0.17272250278605844  1.0000
  S   S45       1.0  0.34882046132581296  0.5891814116717216  0.18378721297901862  1.0000
  Fe  Fe24      1.0  0.3680315482319489  0.7178897263852808  0.19447929640694075  1.0000
  S   S46       1.0  0.4078806926356287  0.7441894936124563  0.23124940305239908  1.0000
  S   S47       1.0  0.30360491399608847  0.6652531572651482  0.1322607105737612  1.0000
  S   S48       1.0  0.32888842777237515  0.7435988990322141  0.1568902047179495  1.0000
  Fe  Fe25      1.0  0.19495405112295525  0.7764536120567808  0.37648655178000445  1.0000
  S   S49       1.0  0.1836109515070762  0.8187221688493606  0.33657833420412914  1.0000
  S   S50       1.0  0.2154635783988271  0.724549671963083  0.35781931767675573  1.0000
  Fe  Fe26      1.0  0.1748876426679993  0.8215605395503021  0.44180072303868523  1.0000
  S   S51       1.0  0.16130382602627696  0.8673608667995036  0.40679422782540225  1.0000
  S   S52       1.0  0.16752888982255426  0.8242503757523342  0.5029318277908682  1.0000
  Fe  Fe27      1.0  0.13482023223077436  0.8281777898320931  0.3703494502338807  1.0000
  S   S53       1.0  0.08057156558087959  0.8336348594161659  0.34474028845802734  1.0000
  Fe  Fe28      1.0  0.21149888464086433  0.8528960466470268  0.3767016916547091  1.0000
  S   S54       1.0  0.25234613036605896  0.8874358731343474  0.3515479250953977  1.0000
  S   S55       1.0  0.14403495191921403  0.7834633752007881  0.4079517500720567  1.0000
  S   S56       1.0  0.22729473871645475  0.8099960983610871  0.41434875401599547  1.0000
  Fe  Fe29      1.0  0.4004735757557445  0.1539395559357877  0.795779137454545  1.0000
  S   S57       1.0  0.3618618848911838  0.14577017914378837  0.8418413358853781  1.0000
  S   S58       1.0  0.38320861081213575  0.17333372905482125  0.7405432962024798  1.0000
  Fe  Fe30      1.0  0.46466154312612706  0.13348003620875953  0.8425511815231669  1.0000
  S   S59       1.0  0.4308186683871758  0.12192686882857555  0.8914681596825408  1.0000
  S   S60       1.0  0.5240823206192509  0.12852494931881828  0.8492060797600941  1.0000
  Fe  Fe31      1.0  0.3935690355103252  0.09734934201805474  0.8509380197719987  1.0000
  S   S61       1.0  0.3663953073206854  0.04624473391975871  0.8581182011908647  1.0000
  Fe  Fe32      1.0  0.4032104364847267  0.1713669799292106  0.8768665215358119  1.0000
  S   S62       1.0  0.3879971538606124  0.20777186745692833  0.9222387798147405  1.0000
  S   S63       1.0  0.43017809317356653  0.10406016469337467  0.8029128961752336  1.0000
  S   S64       1.0  0.43918332385477715  0.18435418141331528  0.8299782188560398  1.0000
  Fe  Fe33      1.0  0.6373395434756922  0.8189299273301627  0.18663867094327105  1.0000
  S   S65       1.0  0.6682459238521578  0.8615820689275469  0.1604670972028631  1.0000
  S   S66       1.0  0.5779263886488587  0.8217481842759708  0.19379110347265802  1.0000
  Fe  Fe34      1.0  0.7042525991573935  0.7791527281636692  0.20846773386164985  1.0000
  S   S67       1.0  0.7411614548726849  0.818326673720778  0.184350419602209  1.0000
  S   S68       1.0  0.7249762826817998  0.7361655102549559  0.24324032714742128  1.0000
  Fe  Fe35      1.0  0.7041454988424722  0.8570890910875797  0.20933771182290925  1.0000
  S   S69       1.0  0.7237464272902828  0.902047787586923  0.2421312564398221  1.0000
  Fe  Fe36      1.0  0.7018235755847251  0.8185213617720669  0.13779221313755538  1.0000
  S   S70       1.0  0.7173737849455865  0.8174259412863977  0.07864708654286713  1.0000
  S   S71       1.0  0.6705006168007066  0.8179767204728489  0.23758990305418903  1.0000
  S   S72       1.0  0.6676901081616647  0.7757158082867832  0.15978754101955495  1.0000
  Fe  Fe37      1.0  0.22422406843523282  0.6219827091728316  0.8232988986095177  1.0000
  S   S73       1.0  0.19640002815900273  0.6413601803132724  0.8738393179809896  1.0000
  S   S74       1.0  0.23403133220802322  0.5651325815537378  0.8178982858380187  1.0000
  Fe  Fe38      1.0  0.23287109410696394  0.6936757775836592  0.7914248403728048  1.0000
  S   S75       1.0  0.2066104036242931  0.7192375264058345  0.8396711710906948  1.0000
  S   S76       1.0  0.2569656621188009  0.7218872496127545  0.7438093171532991  1.0000
  Fe  Fe39      1.0  0.23848104088043212  0.6825012424069813  0.8738588558596755  1.0000
  S   S77       1.0  0.2667234665607114  0.7016960895194687  0.9246966695767437  1.0000
  Fe  Fe40      1.0  0.16729308445109045  0.6757516544713079  0.8345840401553599  1.0000
  S   S78       1.0  0.10828705947546474  0.6857059919956829  0.8354918917015605  1.0000
  S   S79       1.0  0.2684931628200802  0.6607084154376367  0.825901188692397  1.0000
  S   S80       1.0  0.1913855667250003  0.6525207688872416  0.783861871256467  1.0000
  Fe  Fe41      1.0  0.0011207521264429143  0.3909043885466827  0.8797055269429984  1.0000
  S   S81       1.0  0.9865055680674513  0.42271346700770784  0.830710801560129  1.0000
  S   S82       1.0  0.05812093803368233  0.3723605027297575  0.8829118345608261  1.0000
  Fe  Fe42      1.0  0.9258280129768323  0.3951139908773855  0.9111516733405631  1.0000
  S   S83       1.0  0.9054199648173474  0.42681320262337524  0.8644327842927484  1.0000
  S   S84       1.0  0.8905608369080403  0.3767312011714892  0.9566703319778223  1.0000
  Fe  Fe43      1.0  0.9369479535117854  0.39009947917325416  0.8293610786267226  1.0000
  S   S85       1.0  0.9129519320100938  0.36746586129472164  0.7778232797289235  1.0000
  Fe  Fe44      1.0  0.9570778419360565  0.455632891963675  0.871199506278723  1.0000
  S   S86       1.0  0.9637802265539228  0.513120777645809  0.8732895540757963  1.0000
  S   S87       1.0  0.9534382038898462  0.3560354943010319  0.8759258941477037  1.0000
  S   S88       1.0  0.9754536473379465  0.4264588602283402  0.9206081266096406  1.0000
  Fe  Fe45      1.0  0.8980208945062451  0.6878885013934121  0.9301175237533934  1.0000
  S   S89       1.0  0.8569704421376808  0.6497366376081545  0.9110780668712578  1.0000
  S   S90       1.0  0.946677804730699  0.7014670013738236  0.8974760433407597  1.0000
  Fe  Fe46      1.0  0.8564523217356805  0.706170248662221  0.9990327669266981  1.0000
  S   S91       1.0  0.811110673147412  0.6704150202658935  0.9849125305153875  1.0000
  S   S92       1.0  0.8604354149623674  0.7356332541022085  0.052070498833125534  1.0000
  Fe  Fe47      1.0  0.8551281493356082  0.6336742631340525  0.9699794465173839  1.0000
  S   S93       1.0  0.8557758587369567  0.578155964359651  0.9869714909170035  1.0000
  Fe  Fe48      1.0  0.8176886840823919  0.6906557495014417  0.9276809467943229  1.0000
  S   S94       1.0  0.7748062490661479  0.7090829499707916  0.8890402347493895  1.0000
  S   S95       1.0  0.9000318039510123  0.6681331658952334  0.9876784708141874  1.0000
  S   S96       1.0  0.8591225100659973  0.7299634639220814  0.9433113715348606  1.0000
  Fe  Fe49      1.0  0.01959611883007617  0.7976852822090098  0.6985508989399308  1.0000
  S   S97       1.0  0.9920913468158524  0.7563320870629434  0.6661331842479812  1.0000
  S   S98       1.0  0.07825320241393574  0.7923418180739971  0.7089477785162989  1.0000
  Fe  Fe50      1.0  0.9535682050060079  0.8432202126640568  0.7030461883872341  1.0000
  S   S99       1.0  0.9202758125768187  0.805126102568157  0.671461787586867  1.0000
  S   S100      1.0  0.9350426468583133  0.8936535452172208  0.7270851467248802  1.0000
  Fe  Fe51      1.0  0.9472196545844035  0.7651574921381052  0.7058314231668033  1.0000
  S   S101      1.0  0.9136394012223883  0.7228082563661881  0.7294099822835886  1.0000
  Fe  Fe52      1.0  0.9684728620058752  0.8007167195407644  0.6354009160391245  1.0000
  S   S102      1.0  0.9659605181061607  0.8045171244233824  0.5743880879448996  1.0000
  S   S103      1.0  0.976481404637092  0.8037587822947712  0.7407799479279834  1.0000
  S   S104      1.0  0.9999721088014744  0.8415242310785133  0.664467433035244  1.0000
  Fe  Fe53      1.0  0.8538375938964569  0.9447820217799874  0.39520955545662184  1.0000
  S   S105      1.0  0.8115955364203833  0.9350233819582009  0.437700103381783  1.0000
  S   S106      1.0  0.855809061445728  0.9925511411688863  0.36067945968447734  1.0000
  Fe  Fe54      1.0  0.8929629475561068  0.8774311357348649  0.41108517875738143  1.0000
  S   S107      1.0  0.8538654821545228  0.8621053501291354  0.45426780266548916  1.0000
  S   S108      1.0  0.9390398541806826  0.8421844253681214  0.3982295475402963  1.0000
  Fe  Fe55      1.0  0.8124970899753606  0.8808963562953099  0.4150392242983251  1.0000
  S   S109      1.0  0.7673089589816685  0.8466624477290006  0.39777430041673517  1.0000
  Fe  Fe56      1.0  0.8578242820231424  0.9175034224459174  0.47221782686307134  1.0000
  S   S110      1.0  0.8674721525556086  0.9294786660841508  0.5316214809882858  1.0000
  S   S111      1.0  0.8513034794626284  0.8921059003768497  0.3699909160060072  1.0000
  S   S112      1.0  0.9000973030409926  0.9316442915663353  0.431593129682618  1.0000
  Fe  Fe57      1.0  0.7428192605459295  0.9007667894966686  0.8945611079178644  1.0000
  S   S113      1.0  0.7078449132450404  0.8922035277811846  0.845536402911591  1.0000
  S   S114      1.0  0.7495715892379473  0.8626324605797199  0.9400900777576358  1.0000
  Fe  Fe58      1.0  0.7663845351234736  0.9713639094646366  0.8689393098602713  1.0000
  S   S115      1.0  0.734196813434605  0.9683930755455711  0.8171267986932564  1.0000
  S   S116      1.0  0.7936160307455535  0.021426699986724307  0.8815719559479707  1.0000
  Fe  Fe59      1.0  0.6915451323080579  0.9473963975139307  0.8535601769762143  1.0000
  S   S117      1.0  0.6344764316821841  0.9648446988776286  0.8492436748492667  1.0000
  Fe  Fe60      1.0  0.7541205242565958  0.9138816646725977  0.8142573209137175  1.0000
  S   S118      1.0  0.7701319720412927  0.8870964015143608  0.7621406700776444  1.0000
  S   S119      1.0  0.7223510751524  0.9541408916288873  0.9058169987603812  1.0000
  S   S120      1.0  0.7906147042060222  0.9185121613631649  0.8629581375681497  1.0000
  Fe  Fe61      1.0  0.43389237971211  0.8900788253365189  0.8850736947406768  1.0000
  S   S121      1.0  0.4703619357496337  0.8469631084845919  0.8683003904446697  1.0000
  S   S122      1.0  0.4191827785277581  0.9355410744498294  0.8505644280893563  1.0000
  Fe  Fe62      1.0  0.4200376456278892  0.8602728215706967  0.9602531490695406  1.0000
  S   S123      1.0  0.4556137668458231  0.8145415434852603  0.9502328743803513  1.0000
  S   S124      1.0  0.39167318276909624  0.8662918069206895  0.014037821679888207  1.0000
  Fe  Fe63      1.0  0.49257167874147195  0.8529003579091926  0.925086540866758  1.0000
  S   S125      1.0  0.5506428324287881  0.85262913805233  0.9391573496401966  1.0000
  Fe  Fe64      1.0  0.4294706330735256  0.8130121841489342  0.8949678387967558  1.0000
  S   S126      1.0  0.4126275038742001  0.763243155390167  0.8682790136175755  1.0000
  S   S127      1.0  0.45942882516041295  0.8989939711784668  0.9399147219102426  1.0000
  S   S128      1.0  0.39076516931346156  0.8559157932061502  0.9068096009763822  1.0000
  Fe  Fe65      1.0  0.8092097572035698  0.3766632435705332  0.19826940594230108  1.0000
  S   S129      1.0  0.8545052342414762  0.3395165673628078  0.18923141668216195  1.0000
  S   S130      1.0  0.7620878159257382  0.3608984401014064  0.23252534641105452  1.0000
  Fe  Fe66      1.0  0.8472052074840674  0.4348150852545521  0.15798381067287443  1.0000
  S   S131      1.0  0.8946368127825453  0.40175862126060286  0.14496253009204205  1.0000
  S   S132      1.0  0.851183353673139  0.49079855443401826  0.14335104072492902  1.0000
  Fe  Fe67      1.0  0.8541561643783305  0.36113858695849815  0.13242835538282827  1.0000
  S   S133      1.0  0.8590186634777053  0.3293624395550747  0.0815354679620565  1.0000
  Fe  Fe68      1.0  0.8895099653656066  0.38442457022022003  0.20307409501329857  1.0000
  S   S134      1.0  0.9386189750703502  0.38096630747104243  0.2380403492072491  1.0000
  S   S135      1.0  0.8064688656921787  0.39566250056516944  0.14016092659127125  1.0000
  S   S136      1.0  0.8443684383343598  0.4200697716113284  0.21709826217052935  1.0000
  Fe  Fe69      1.0  0.839921283130282  0.17553016016765713  0.7218249782811625  1.0000
  S   S137      1.0  0.8816911167742063  0.15920433547523516  0.7623708942556529  1.0000
  S   S138      1.0  0.7911457635621121  0.2067168981825454  0.7354810814629562  1.0000
  Fe  Fe70      1.0  0.8838055729958948  0.15133722739902458  0.656247707549407  1.0000
  S   S139      1.0  0.9291808673209492  0.13298184751443573  0.6910927587456843  1.0000
  S   S140      1.0  0.8860409810668065  0.150801553556212  0.5948296892521058  1.0000
  Fe  Fe71      1.0  0.8857245575246564  0.11178691560800672  0.7267617323076483  1.0000
  S   S141      1.0  0.8888931554982055  0.05648657244358372  0.7442027161241836  1.0000
  Fe  Fe72      1.0  0.9205981617035702  0.18205257704061623  0.7227942162291597  1.0000
  S   S142      1.0  0.965364195411354  0.21576915435700947  0.7431623837442779  1.0000
  S   S143      1.0  0.8406291202991597  0.12635501868561697  0.6891107178975242  1.0000
  S   S144      1.0  0.8783772563070616  0.20211059537521286  0.6850724155723129  1.0000
  Fe  Fe73      1.0  0.012761715734805668  0.30892531605899587  0.4354367837257593  1.0000
  S   S145      1.0  0.983698682584392  0.34716190822391885  0.47097397597069784  1.0000
  S   S146      1.0  0.07184729336379059  0.31640599258087154  0.4264841499561245  1.0000
  Fe  Fe74      1.0  0.9470959096490056  0.2629285366383226  0.42629227430229455  1.0000
  S   S147      1.0  0.9126779452462874  0.2976706911968323  0.4606185286000563  1.0000
  S   S148      1.0  0.9261202397381357  0.21592769302998183  0.39696371867960595  1.0000
  Fe  Fe75      1.0  0.9391009915253508  0.34059173317826763  0.43035002595720145  1.0000
  S   S149      1.0  0.9045188515924776  0.3823443787199781  0.4068410240846811  1.0000
  Fe  Fe76      1.0  0.9605833597950482  0.30024643851235877  0.4976553088036164  1.0000
  S   S150      1.0  0.9584487414193764  0.2928612127310059  0.558551117104873  1.0000
  S   S151      1.0  0.9697636896305457  0.30564430669562664  0.3925566624287435  1.0000
  S   S152      1.0  0.9932955604107447  0.2622886612395421  0.46549153001455246  1.0000
  Fe  Fe77      1.0  0.9435479365623224  0.6067588565308937  0.2759282818184991  1.0000
  S   S153      1.0  0.9641218091585791  0.6406880859648294  0.23135863479469732  1.0000
  S   S154      1.0  0.9489890658524807  0.5493534863842304  0.27017094740120634  1.0000
  Fe  Fe78      1.0  0.9192167980778236  0.6673455644294466  0.3228270900857484  1.0000
  S   S155      1.0  0.9386617773041683  0.7061655894623685  0.2823544354496946  1.0000
  S   S156      1.0  0.8897713624895477  0.6881853910251827  0.3717530297525045  1.0000
  Fe  Fe79      1.0  0.9137905459855162  0.6711166217119605  0.2407141751236826  1.0000
  S   S157      1.0  0.8811927894540713  0.6941368601353194  0.19512332861097972  1.0000
  Fe  Fe80      1.0  0.9868358163805788  0.6719855184889768  0.2777104797106675  1.0000
  S   S158      1.0  0.04470846642004633  0.6871985663595356  0.27709246570234086  1.0000
  S   S159      1.0  0.8910088845220939  0.6340928837179458  0.28142351079397665  1.0000
  S   S160      1.0  0.9695774270304447  0.635851655700589  0.3220621559273694  1.0000
  Fe  Fe81      1.0  0.31520749113933944  0.9181523303853699  0.6823636336449653  1.0000
  S   S161      1.0  0.2772014758463259  0.9295670987792826  0.7282850602845833  1.0000
  S   S162      1.0  0.36842356976971413  0.8930191800675334  0.6916877821244272  1.0000
  Fe  Fe82      1.0  0.2637337226501733  0.9431457551769026  0.6241536059466474  1.0000
  S   S163      1.0  0.22087466342273987  0.9566340644704224  0.6645103385456674  1.0000
  S   S164      1.0  0.25850386985036927  0.9491977383901937  0.563576338923839  1.0000
  Fe  Fe83      1.0  0.26618772868476537  0.9784080144775456  0.6975403016925089  1.0000
  S   S165      1.0  0.2632503121144284  0.03155171924836031  0.7215295568736374  1.0000
  Fe  Fe84      1.0  0.2358022864404647  0.9065214958092203  0.6910971296777788  1.0000
  S   S166      1.0  0.1946930851744144  0.8707459349248877  0.7146725326296811  1.0000
  S   S167      1.0  0.30812379289670494  0.969084347524985  0.6547656904326938  1.0000
  S   S168      1.0  0.2748079962900668  0.8909892602394296  0.6474482617966034  1.0000
  Fe  Fe85      1.0  0.33356382169829907  0.41520910048062015  0.9982660718621847  1.0000
  S   S169      1.0  0.3821189952267003  0.43481756342345823  0.9690408187584494  1.0000
  S   S170      1.0  0.3396546611067992  0.405253118553987  0.058246037619477775  1.0000
  Fe  Fe86      1.0  0.28658948638738024  0.418130922148394  0.930619663849317  1.0000
  S   S171      1.0  0.3314403392624059  0.4380862725770177  0.8960774315131124  1.0000
  S   S172      1.0  0.23367023443431173  0.40762822706166035  0.9033408987286267  1.0000
  Fe  Fe87      1.0  0.36491358444289884  0.39849290072983756  0.9244216726374267  1.0000
  S   S173      1.0  0.4037133217332384  0.36701673451504624  0.8909690959554941  1.0000
  Fe  Fe88      1.0  0.3434587245212886  0.47208267471947557  0.9441285489160282  1.0000
  S   S174      1.0  0.35409981607591395  0.5275755691707635  0.9319228378517731  1.0000
  S   S175      1.0  0.31894327149830426  0.375736032936035  0.9554833003364068  1.0000
  S   S176      1.0  0.29597392077457596  0.4554535818109882  0.9769837872808421  1.0000
  Fe  Fe89      1.0  0.7094937679135357  0.2907674572101438  0.9292505424435878  1.0000
  S   S177      1.0  0.7431632737478431  0.2478857583143967  0.9512982858558395  1.0000
  S   S178      1.0  0.7338853561498814  0.33870285394271166  0.9052448561520536  1.0000
  Fe  Fe90      1.0  0.6398222094898517  0.25329304764290794  0.9460612515240495  1.0000
  S   S179      1.0  0.6681813801896461  0.2074522299144069  0.9697487013181173  1.0000
  S   S180      1.0  0.5795625278040172  0.2547680671257134  0.944286542005501  1.0000
  Fe  Fe91      1.0  0.7033212802839498  0.24674649076657076  0.9971163745364381  1.0000
  S   S181      1.0  0.7163173869229158  0.24649351753608356  0.05740443633109371  1.0000
  Fe  Fe92      1.0  0.7050081460535937  0.21327074642103927  0.9215385487490789  1.0000
  S   S182      1.0  0.7282856439533788  0.16823947010886037  0.8906001645504361  1.0000
  S   S183      1.0  0.6720952283877867  0.2924423481423715  0.9772270117339371  1.0000
  S   S184      1.0  0.6739200861322229  0.25629311505487057  0.8956710496132798  1.0000
  Fe  Fe93      1.0  0.4628838881624385  0.9831989787088395  0.35052464208605383  1.0000
  S   S185      1.0  0.4855472117034359  0.9517191365806893  0.39632633910196263  1.0000
  S   S186      1.0  0.4654738656507371  0.04104137687370768  0.3496946261757544  1.0000
  Fe  Fe94      1.0  0.43475632998024455  0.9201226763347251  0.30866839194554524  1.0000
  S   S187      1.0  0.4558883446627435  0.8832724074113986  0.3508022942905667  1.0000
  S   S188      1.0  0.39954269784804713  0.9046441347640647  0.26112964118794296  1.0000
  Fe  Fe95      1.0  0.43450337541229195  0.9212792628934259  0.39171969041698385  1.0000
  S   S189      1.0  0.3975313311046183  0.9041699340255062  0.4365892695947178  1.0000
  Fe  Fe96      1.0  0.5043798145526299  0.9171463642321372  0.350659113978537  1.0000
  S   S190      1.0  0.5608459158369841  0.8987750093697551  0.34506358647211427  1.0000
  S   S191      1.0  0.41024607202078756  0.9560118324322482  0.34960783886244734  1.0000
  S   S192      1.0  0.48528094368896996  0.9509758846754695  0.3049441916698044  1.0000
  C   C1        1.0  0.9112750811737488  0.1869835880983464  0.5824858901929902  1.0000
  C   C2        1.0  0.9315922267568628  0.2042049554175577  0.6091120160053549  1.0000
  C   C3        1.0  0.9464825157722174  0.2365141187135174  0.6016119050157728  1.0000
  C   C4        1.0  0.942001990188438  0.2512848214666826  0.5670427592238423  1.0000
  C   C5        1.0  0.9236825220495524  0.23301263463803334  0.5396391643759663  1.0000
  C   C6        1.0  0.9080592847137471  0.20097913984012955  0.5473886669522404  1.0000
  H   H1        1.0  0.9355830398968307  0.19281553694446202  0.635739413409703  1.0000
  H   H2        1.0  0.9614777244512791  0.24983249324165882  0.6226379480187688  1.0000
  H   H3        1.0  0.9208591457937781  0.2438709506093665  0.5126828031596906  1.0000
  H   H4        1.0  0.8927581277924486  0.18761188483579003  0.5264946622453804  1.0000
  C   C7        1.0  0.7738015050097778  0.195871362787286  0.7785239160023092  1.0000
  C   C8        1.0  0.7877373894658819  0.16799711107643267  0.7981409639459637  1.0000
  C   C9        1.0  0.7739951050128446  0.15995863221123766  0.8327838918959634  1.0000
  C   C10       1.0  0.7461115370204889  0.17958779301403488  0.8478334707669015  1.0000
  C   C11       1.0  0.7321852534606581  0.20743282016675707  0.8281509677467639  1.0000
  C   C12       1.0  0.7460034764083471  0.21557278584984693  0.7935531406618288  1.0000
  H   H5        1.0  0.8087614375486653  0.15225958667776507  0.7865189206335433  1.0000
  H   H6        1.0  0.7850645326398267  0.13850446608499395  0.847914092802652  1.0000
  H   H7        1.0  0.7102336212408189  0.22226625558465188  0.8391013984402668  1.0000
  H   H8        1.0  0.734938059810824  0.23700174792171344  0.7783575849448997  1.0000
  C   C13       1.0  0.8215169391665516  0.3026733022844155  0.07727587349285713  1.0000
  C   C14       1.0  0.8176692350054033  0.2812800426329083  0.046527099032074526  1.0000
  C   C15       1.0  0.7857029120186149  0.2631373951578881  0.04082539335119839  1.0000
  C   C16       1.0  0.7577465932434779  0.26606724279117105  0.06605835019699981  1.0000
  C   C17       1.0  0.7621831334855063  0.28642874179996064  0.0975695372947266  1.0000
  C   C18       1.0  0.7939788496487663  0.304811299091462  0.10307242974197413  1.0000
  H   H9        1.0  0.8391282734123515  0.2792506846561278  0.02676359424634933  1.0000
  H   H10       1.0  0.782923378017642  0.24662703627832627  0.01707596888397056  1.0000
  H   H11       1.0  0.7405867116909653  0.2892422547726166  0.11699412566638497  1.0000
  H   H12       1.0  0.7968775956744504  0.32120965371891197  0.12689474954599958  1.0000
  C   C19       1.0  0.9289081593364474  0.38297756461064225  0.2848811527698464  1.0000
  C   C20       1.0  0.8937346545828357  0.3871348871478669  0.29713869727017483  1.0000
  C   C21       1.0  0.8863712768754959  0.38818864235516753  0.3347594978041466  1.0000
  C   C22       1.0  0.9141445261877834  0.38433315366616067  0.3601051638140198  1.0000
  C   C23       1.0  0.9493473750990586  0.3806007173619143  0.3479169698682345  1.0000
  C   C24       1.0  0.9566986569107182  0.37985985005572276  0.31031208150769984  1.0000
  H   H13       1.0  0.8720373452485513  0.38852563811500135  0.2777898236231555  1.0000
  H   H14       1.0  0.8590530493318781  0.3907639566136911  0.34417342158333797  1.0000
  H   H15       1.0  0.9709615589746743  0.3781479646841657  0.3675074941148843  1.0000
  H   H16       1.0  0.9838370837250121  0.3761614638981582  0.30093601191277913  1.0000
  C   C25       1.0  0.880627008513093  0.5083228412352689  0.17610273655477035  1.0000
  C   C26       1.0  0.8810964656142232  0.5438158774509589  0.1834769600560984  1.0000
  C   C27       1.0  0.9028074900435248  0.5569565606372227  0.21181524566982962  1.0000
  C   C28       1.0  0.9238376753614179  0.5344668962149404  0.23278124240064818  1.0000
  C   C29       1.0  0.9239216300560855  0.4992257011574126  0.22477448943669734  1.0000
  C   C30       1.0  0.9026959787518386  0.4862864860423892  0.19633950249160087  1.0000
  H   H17       1.0  0.8638291482800639  0.5608744376703644  0.16819656796121396  1.0000
  H   H18       1.0  0.9026431615034545  0.5842948072209665  0.2179072394864124  1.0000
  H   H19       1.0  0.9398458930017543  0.4817244446380321  0.24104252418580258  1.0000
  H   H20       1.0  0.9031785575691345  0.4590479037318426  0.1906271421756303  1.0000
  C   C31       1.0  0.40664914089981585  0.9242380094051951  0.8057626628879967  1.0000
  C   C32       1.0  0.38286259390955973  0.945472148882515  0.7866627136449104  1.0000
  C   C33       1.0  0.3715616723798325  0.9363302683702627  0.751267198999668  1.0000
  C   C34       1.0  0.38495157192730345  0.906466287722  0.7344509489023133  1.0000
  C   C35       1.0  0.41017908958351396  0.886172979449423  0.7528213809855736  1.0000
  C   C36       1.0  0.42050261480897616  0.8946531567503855  0.7887704511531448  1.0000
  H   H21       1.0  0.3726733977025584  0.9687428456519354  0.7994407237847022  1.0000
  H   H22       1.0  0.352652321153533  0.9525985997299796  0.7369673782017857  1.0000
  H   H23       1.0  0.42122878719478035  0.8635598106245997  0.7394580181134922  1.0000
  H   H24       1.0  0.439606322881291  0.8786235102663535  0.8029982981262441  1.0000
  C   C37       1.0  0.8201939628524573  0.03180205867477004  0.8437765721475264  1.0000
  C   C38       1.0  0.8290753162691415  0.006049130682447945  0.8184723864309023  1.0000
  C   C39       1.0  0.8504251288951353  0.013750197006078269  0.788151087177188  1.0000
  C   C40       1.0  0.8622135581875939  0.047550504487089446  0.7825031389524214  1.0000
  C   C41       1.0  0.8527685451400315  0.07357641133615972  0.8075014313164308  1.0000
  C   C42       1.0  0.8320740145452924  0.06561874457051318  0.8384065885749908  1.0000
  H   H25       1.0  0.8198134671249216  0.9800627931771478  0.8226514242694518  1.0000
  H   H26       1.0  0.8574901720585764  0.9934943930308402  0.7690375877795433  1.0000
  H   H27       1.0  0.8620096303344146  0.09963270066101262  0.8035625951169255  1.0000
  H   H28       1.0  0.8252240983118494  0.08561026117514553  0.8580123226447436  1.0000
  C   C43       1.0  0.6102898686032214  0.9349571252667368  0.8751310188785846  1.0000
  C   C44       1.0  0.6279273595673949  0.9153735525459656  0.9016986296291484  1.0000
  C   C45       1.0  0.6092645178599412  0.8906795974806239  0.9218102906098896  1.0000
  C   C46       1.0  0.5729460686580862  0.885047861817431  0.9150758328447217  1.0000
  C   C47       1.0  0.55502217739555  0.9048750870618256  0.8887868249193304  1.0000
  C   C48       1.0  0.5737712312854459  0.9298328142527099  0.8687696313702644  1.0000
  H   H29       1.0  0.6560276740998956  0.9191371050544271  0.9068811011537586  1.0000
  H   H30       1.0  0.6231016885273102  0.8759897554615482  0.9425150601809593  1.0000
  H   H31       1.0  0.5269729051759875  0.9005183749511426  0.8833982598957223  1.0000
  H   H32       1.0  0.560412204976121  0.9442306403963378  0.8475608271111899  1.0000
  C   C49       1.0  0.9251015274675347  0.7995514231972275  0.3902370194143963  1.0000
  C   C50       1.0  0.9500164569380403  0.7745444235217596  0.3793133083840133  1.0000
  C   C51       1.0  0.9392280838602742  0.74027082609188  0.3735494174923008  1.0000
  C   C52       1.0  0.9035885718225145  0.7308241526513639  0.3792583136253144  1.0000
  C   C53       1.0  0.8785974131792308  0.7558444414554226  0.38990764264518035  1.0000
  C   C54       1.0  0.8892862357456429  0.790198142146381  0.39513828174237997  1.0000
  H   H33       1.0  0.9776589501537606  0.7816267174992813  0.37495182204299365  1.0000
  H   H34       1.0  0.9586311143525759  0.7210949669951265  0.36494301144911767  1.0000
  H   H35       1.0  0.8508123275867404  0.7487790186830342  0.3933162430146602  1.0000
  H   H36       1.0  0.8696929816047869  0.8094354714532774  0.402645504213092  1.0000
  C   C55       1.0  0.9429763688134019  0.8426127836833326  0.5637115078085221  1.0000
  C   C56       1.0  0.9389425904365577  0.8518673021822835  0.5271015162352525  1.0000
  C   C57       1.0  0.9177031133995591  0.8801069430077043  0.5177355141468566  1.0000
  C   C58       1.0  0.8990684322374376  0.8984669448628684  0.5447335624256083  1.0000
  C   C59       1.0  0.9039449349478522  0.8900388087751214  0.5815825420404825  1.0000
  C   C60       1.0  0.9263847761256772  0.8624181291750687  0.5911081537083683  1.0000
  H   H37       1.0  0.951367299132153  0.8367324883667598  0.5057798605223849  1.0000
  H   H38       1.0  0.9152977635187748  0.8870856491326562  0.4893833234123136  1.0000
  H   H39       1.0  0.8894180991362133  0.9039015884716826  0.6025530817382656  1.0000
  H   H40       1.0  0.9298683020431795  0.8559877178727815  0.6195412262686388  1.0000
  C   C61       1.0  0.8155443607279996  0.8908784296227952  0.7515288942870255  1.0000
  C   C62       1.0  0.8380068405185346  0.9126839231038248  0.7717199546860402  1.0000
  C   C63       1.0  0.8747561228631708  0.9138387023818644  0.7640017127378144  1.0000
  C   C64       1.0  0.8890527119524464  0.892846751567649  0.7363037704750068  1.0000
  C   C65       1.0  0.8663443927789248  0.8717152244615198  0.7156252862846502  1.0000
  C   C66       1.0  0.8296860241992464  0.8707668820850776  0.7231339205217824  1.0000
  H   H41       1.0  0.8270903389529227  0.9284612220080658  0.7933731132834789  1.0000
  H   H42       1.0  0.8920883167494774  0.9306428667230315  0.7798197918801175  1.0000
  H   H43       1.0  0.8766885295984354  0.8569266059447008  0.6930053995358008  1.0000
  H   H44       1.0  0.8122795264491948  0.8542685697143588  0.7070412147788423  1.0000
  C   C67       1.0  0.7634447029482223  0.7508748540944833  0.9030423359105176  1.0000
  C   C68       1.0  0.7710156206372915  0.7609282871749455  0.938877343489532  1.0000
  C   C69       1.0  0.765344098845169  0.7949643713354805  0.9501436548646436  1.0000
  C   C70       1.0  0.7531020202175724  0.8195792791300467  0.9253022950084763  1.0000
  C   C71       1.0  0.7447371227269676  0.8094890294912349  0.8893701187602783  1.0000
  C   C72       1.0  0.7492924627673777  0.774878918970998  0.8783995667750724  1.0000
  H   H45       1.0  0.7813288055650344  0.7422061487918172  0.9578440251957324  1.0000
  H   H46       1.0  0.771052857554783  0.8022080209146764  0.9780253853949692  1.0000
  H   H47       1.0  0.7348674134656896  0.8281740944063773  0.8700256018402115  1.0000
  H   H48       1.0  0.7430033075685698  0.7669622496969322  0.8506370399929948  1.0000
  C   C73       1.0  0.936680183038639  0.7081895129667858  0.8510682304033332  1.0000
  C   C74       1.0  0.9044682164357304  0.6965726408226249  0.835858750081879  1.0000
  C   C75       1.0  0.8978384299591748  0.700254644594014  0.7982552617355623  1.0000
  C   C76       1.0  0.9231972354243553  0.7160835004239151  0.7758503973199062  1.0000
  C   C77       1.0  0.9552963556687895  0.7277800966418526  0.7910492176515598  1.0000
  C   C78       1.0  0.9619203023225704  0.724120519800321  0.8286383203871427  1.0000
  H   H49       1.0  0.884683224776504  0.6845043905160266  0.852822946376961  1.0000
  H   H50       1.0  0.8728839730925045  0.6911737981451911  0.786631696081413  1.0000
  H   H51       1.0  0.9753530861783672  0.7389568787431537  0.7736943861087756  1.0000
  H   H52       1.0  0.9867938136332104  0.7333000376501962  0.8403146504161872  1.0000
  C   C79       1.0  0.9349414467426469  0.5301322205966699  0.9067136551861608  1.0000
  C   C80       1.0  0.9080086885832961  0.5097643576611482  0.9220961909124349  1.0000
  C   C81       1.0  0.8839111396834741  0.5242172732194255  0.9473726075238317  1.0000
  C   C82       1.0  0.886980846368465  0.5589567792993754  0.9574635021017268  1.0000
  C   C83       1.0  0.9144559429829111  0.5789753980392011  0.9427838503157449  1.0000
  C   C84       1.0  0.9385039862006669  0.5645452777004908  0.9177070737894221  1.0000
  H   H53       1.0  0.9051057296184963  0.48316708098010086  0.9138467600517506  1.0000
  H   H54       1.0  0.8621228203179694  0.5089213620638459  0.9578439843129848  1.0000
  H   H55       1.0  0.9172454211777188  0.6057163762654714  0.9505759292415388  1.0000
  H   H56       1.0  0.959736646997185  0.5802106191557772  0.9069280023266911  1.0000
  C   C85       1.0  0.7779687569077101  0.3481753214755409  0.9187573217969763  1.0000
  C   C86       1.0  0.7955569740904691  0.3284664006638838  0.9452717516627634  1.0000
  C   C87       1.0  0.8302820396509324  0.33719428256769535  0.9565341282086828  1.0000
  C   C88       1.0  0.8476769674394369  0.3655359547826641  0.9411967950544387  1.0000
  C   C89       1.0  0.8301391412625161  0.38531825915640633  0.914713018451345  1.0000
  C   C90       1.0  0.7953209266689162  0.3766850066305954  0.9035745792421778  1.0000
  H   H57       1.0  0.7822791801546666  0.30703656242994654  0.9579397625621231  1.0000
  H   H58       1.0  0.8436590355003982  0.3220851578744505  0.9773484291405344  1.0000
  H   H59       1.0  0.842948498406839  0.40780440355608494  0.9034272726160928  1.0000
  H   H60       1.0  0.781749078611334  0.39229183019452707  0.8833093905115438  1.0000
  C   C91       1.0  0.9267819453359342  0.32498852581998244  0.768873673621205  1.0000
  C   C92       1.0  0.9533845067180835  0.3094803103393792  0.7900651246393633  1.0000
  C   C93       1.0  0.9646294581707567  0.27573032804025294  0.7825457172701028  1.0000
  C   C94       1.0  0.949362722937919  0.2572245179372304  0.7535690325230989  1.0000
  C   C95       1.0  0.9227444917886308  0.2727257623338026  0.7321651900167789  1.0000
  C   C96       1.0  0.9113443504366774  0.30649377676301204  0.7398990237080287  1.0000
  H   H61       1.0  0.9657919542036594  0.32352711231032466  0.8119700565050126  1.0000
  H   H62       1.0  0.9850515233573595  0.26404900051170327  0.7993874377725674  1.0000
  H   H63       1.0  0.9119861808243244  0.25944402340452416  0.7087134302398403  1.0000
  H   H64       1.0  0.8909394514116304  0.31845092949704484  0.7231220508227586  1.0000
  C   C97       1.0  0.09956956382156185  0.7151823986817891  0.8002719017510803  1.0000
  C   C98       1.0  0.0650736270873416  0.7281828136013497  0.7950082872977811  1.0000
  C   C99       1.0  0.058359355472777485  0.7516814533290572  0.7667218063866009  1.0000
  C   C100      1.0  0.08613815344021691  0.7625445935453473  0.7439838043575367  1.0000
  C   C101      1.0  0.12058464728314437  0.7496232091990384  0.7492758542261434  1.0000
  C   C102      1.0  0.1272306817394131  0.7258562373764922  0.7772265384886268  1.0000
  H   H65       1.0  0.04369524581691775  0.7203627212671618  0.8129508258185855  1.0000
  H   H66       1.0  0.03182720009078999  0.761612699776605  0.7628558856907995  1.0000
  H   H67       1.0  0.142109135713486  0.7577193236064635  0.7316535573975665  1.0000
  H   H68       1.0  0.15383320110135046  0.715836812901331  0.7808454258032996  1.0000
  C   C103      1.0  0.240203906431807  0.7636167808361864  0.7372033471423501  1.0000
  C   C104      1.0  0.21098399681647628  0.7759372629204394  0.7572001078697067  1.0000
  C   C105      1.0  0.19713092112125663  0.8089450554715227  0.7503866758321744  1.0000
  C   C106      1.0  0.21306484157213712  0.8300507963893483  0.7241324624885256  1.0000
  C   C107      1.0  0.2427220453194058  0.8179028756963179  0.7046213379252846  1.0000
  C   C108      1.0  0.25609283088808604  0.7846763204366256  0.710924015272164  1.0000
  H   H69       1.0  0.19841105831423608  0.7598128877478623  0.7773042861193342  1.0000
  H   H70       1.0  0.17401750170736893  0.8179480775425483  0.7654616514086213  1.0000
  H   H71       1.0  0.25486101157012775  0.8335850982396176  0.6839465999163323  1.0000
  H   H72       1.0  0.27860229435098993  0.7751597887627334  0.6951921923558197  1.0000
  C   C109      1.0  0.3079594121925421  0.7183039368181201  0.9104883894249107  1.0000
  C   C110      1.0  0.3292988760751835  0.6995506036839668  0.8859939414165489  1.0000
  C   C111      1.0  0.36162274206239514  0.7133305244616296  0.873449109826682  1.0000
  C   C112      1.0  0.3727023721700794  0.7459759128603823  0.885321532813889  1.0000
  C   C113      1.0  0.3513769411047116  0.764707063776859  0.9098196452361375  1.0000
  C   C114      1.0  0.31927754668869607  0.7507215187244645  0.9228504933132081  1.0000
  H   H73       1.0  0.32130881211513446  0.6740901418895666  0.8771822534569994  1.0000
  H   H74       1.0  0.37799966453993505  0.6987136558632822  0.8544437610136908  1.0000
  H   H75       1.0  0.359267122654199  0.7902050010846019  0.9182324382455987  1.0000
  H   H76       1.0  0.3028501273037306  0.7654640574920097  0.9416520059629135  1.0000
  C   C115      1.0  0.26695389301109756  0.5556085173637572  0.8502554787962763  1.0000
  C   C116      1.0  0.2628598986472387  0.5270208978022112  0.8728831656548548  1.0000
  C   C117      1.0  0.28942166519735707  0.5189262422422477  0.8984145480968874  1.0000
  C   C118      1.0  0.3203129829408616  0.5391233394613418  0.9011606850415091  1.0000
  C   C119      1.0  0.32459846568402406  0.5675884863309055  0.8782990053319718  1.0000
  C   C120      1.0  0.2978340747099377  0.5758878563977535  0.852894327877686  1.0000
  H   H77       1.0  0.23904462306621563  0.5113187616542837  0.8709616787750595  1.0000
  H   H78       1.0  0.28569893466341145  0.49707993841783216  0.9160433396086692  1.0000
  H   H79       1.0  0.34888561055500983  0.5826844467877637  0.879573124830611  1.0000
  H   H80       1.0  0.30181371177653027  0.597096360127246  0.8343484888956808  1.0000
  C   C121      1.0  0.7565894281284921  0.7932912640823184  0.07340026498689467  1.0000
  C   C122      1.0  0.7592443986477319  0.7699122361400363  0.04430422387078514  1.0000
  C   C123      1.0  0.7907127229956318  0.7511260312606046  0.038985616942014856  1.0000
  C   C124      1.0  0.8198820011708499  0.7559899615325973  0.06220833681187776  1.0000
  C   C125      1.0  0.8172907409859093  0.7790543057468791  0.09174214969454676  1.0000
  C   C126      1.0  0.7855247893947065  0.7976946162005376  0.09739582371888672  1.0000
  H   H81       1.0  0.7370772511529536  0.7662244689131146  0.025757226472858052  1.0000
  H   H82       1.0  0.7925614607868987  0.7331173937812389  0.01663315917295094  1.0000
  H   H83       1.0  0.8399470386292455  0.782893793494479  0.10981145879417416  1.0000
  H   H84       1.0  0.7838627709555224  0.8161784419897853  0.11957248280644449  1.0000
  C   C127      1.0  0.7671128630196336  0.7221930604344615  0.2283438964502474  1.0000
  C   C128      1.0  0.7796269998417018  0.7303514217955539  0.19329634146474187  1.0000
  C   C129      1.0  0.814545241077024  0.7211427133205136  0.18293656122815988  1.0000
  C   C130      1.0  0.8370289099307525  0.7040611259192202  0.20770813269857274  1.0000
  C   C131      1.0  0.8242544255755268  0.6956740517130112  0.24251538402604197  1.0000
  C   C132      1.0  0.7893108637240385  0.7044614434599802  0.252720745667036  1.0000
  H   H85       1.0  0.7624642502368033  0.743779555453424  0.17417751284431868  1.0000
  H   H86       1.0  0.824240431119569  0.7276822851246932  0.1559103746811662  1.0000
  H   H87       1.0  0.8413883763293324  0.6830083340712403  0.2619810393137361  1.0000
  H   H88       1.0  0.77977175111908  0.6982493035199114  0.2798833652544421  1.0000
  C   C133      1.0  0.7365603886261619  0.8866306065518695  0.28516826218197405  1.0000
  C   C134      1.0  0.741970931860193  0.8512390077774746  0.29045921007419023  1.0000
  C   C135      1.0  0.7510455875297555  0.8387823284521266  0.32520539867839504  1.0000
  C   C136      1.0  0.755096439615515  0.8617758664948044  0.35456734696645237  1.0000
  C   C137      1.0  0.7502876242616481  0.8971589047834461  0.34918488095149214  1.0000
  C   C138      1.0  0.740872466701578  0.9096238851801293  0.31451530714151454  1.0000
  H   H89       1.0  0.7394693771059107  0.8334082973602712  0.26774312562288877  1.0000
  H   H90       1.0  0.7554332085974891  0.8114407709145378  0.3291651711908816  1.0000
  H   H91       1.0  0.7530840026794313  0.9147751883335491  0.3720766202628999  1.0000
  H   H92       1.0  0.7364833099661722  0.9369657920589209  0.3106282518884374  1.0000
  C   C139      1.0  0.570925813233491  0.8463641352597233  0.23360347960479882  1.0000
  C   C140      1.0  0.5975024904632091  0.869100543176197  0.24587167404319143  1.0000
  C   C141      1.0  0.5941300508778345  0.885775200681807  0.27984573933874746  1.0000
  C   C142      1.0  0.5637569672156713  0.8803056464993864  0.3012703055445808  1.0000
  C   C143      1.0  0.5363782311800995  0.8588650845444595  0.288293291937365  1.0000
  C   C144      1.0  0.5400130479986164  0.8417273265144514  0.2545353353080338  1.0000
  H   H93       1.0  0.6208390176682642  0.873769138466631  0.22921461726776493  1.0000
  H   H94       1.0  0.615072651663944  0.9028496857693797  0.2893910918018805  1.0000
  H   H95       1.0  0.5130457423621558  0.8543058301246541  0.30495773369328544  1.0000
  H   H96       1.0  0.5194482569152286  0.824041402985482  0.24539784296897688  1.0000
  C   C145      1.0  0.33777021107979505  0.04126853614278949  0.8201251663724416  1.0000
  C   C146      1.0  0.33743660483270366  0.0664003170275456  0.7927867918837865  1.0000
  C   C147      1.0  0.314177235113538  0.06349366932970275  0.7628790821899581  1.0000
  C   C148      1.0  0.2917977504904343  0.03484942624663057  0.7594951943301042  1.0000
  C   C149      1.0  0.29246673158562214  0.009194644222490611  0.786349031544863  1.0000
  C   C150      1.0  0.3150804536215886  0.012653616022143543  0.8169462389569199  1.0000
  H   H97       1.0  0.35512445105397406  0.08820720281808599  0.7944294403492494  1.0000
  H   H98       1.0  0.3140661776361389  0.08324068305132912  0.7421179232426404  1.0000
  H   H99       1.0  0.27493702353094085  0.9871392758604762  0.7839837276335904  1.0000
  H   H100      1.0  0.31488124547906726  0.9931364019963738  0.8378699196616505  1.0000
  C   C151      1.0  0.5643513800483435  0.21939077885341338  0.9181969299658195  1.0000
  C   C152      1.0  0.5276052705583455  0.2140255396271475  0.9135411249351593  1.0000
  C   C153      1.0  0.5152914081564102  0.18577817678740066  0.8929442875199296  1.0000
  C   C154      1.0  0.5396017071589655  0.1630779824836142  0.8763181356223646  1.0000
  C   C155      1.0  0.5763465244485411  0.16825257747809846  0.8811882819610429  1.0000
  C   C156      1.0  0.5887066654900054  0.19634647350809525  0.9021415216879524  1.0000
  H   H101      1.0  0.5085605852070325  0.23173629105957136  0.9255104588076968  1.0000
  H   H102      1.0  0.4869385429181499  0.18169622691622286  0.889863068460984  1.0000
  H   H103      1.0  0.5952729876676166  0.15083521517029175  0.8683858849075059  1.0000
  H   H104      1.0  0.6171246223220197  0.2002924441015097  0.90545374271297  1.0000
  C   C157      1.0  0.3934112659436669  0.25186101496760316  0.9132648023756187  1.0000
  C   C158      1.0  0.3803324380584492  0.2759491867134185  0.9385783235290779  1.0000
  C   C159      1.0  0.38384051076007814  0.31129729787972815  0.9319159968255938  1.0000
  C   C160      1.0  0.3999740643850198  0.32281041750733463  0.8997691985036959  1.0000
  C   C161      1.0  0.41378985304441285  0.29879627051254737  0.8747652291865994  1.0000
  C   C162      1.0  0.41069057207149845  0.2633601442829819  0.8816485492724504  1.0000
  H   H105      1.0  0.3671964912603012  0.2673546921836678  0.963314510021402  1.0000
  H   H106      1.0  0.3744004483070334  0.32955870354601113  0.9519540052240191  1.0000
  H   H107      1.0  0.4268237160262667  0.30757016822330085  0.8500451779605869  1.0000
  H   H108      1.0  0.4216004243364512  0.24517037615881385  0.8623491592851138  1.0000
  C   C163      1.0  0.05348361115917854  0.7281784742740268  0.295845407029311  1.0000
  C   C164      1.0  0.026548296084006218  0.7531101383845693  0.29988540676653386  1.0000
  C   C165      1.0  0.0347407983450394  0.7858175035171712  0.31454279519887035  1.0000
  C   C166      1.0  0.06975875726149557  0.7933242946212632  0.32561467203136585  1.0000
  C   C167      1.0  0.09638672890860274  0.7682215188769542  0.3219522213077474  1.0000
  C   C168      1.0  0.08838404140224145  0.7359406280148947  0.30677813372322893  1.0000
  H   H109      1.0  0.9996457132862729  0.7475477139455933  0.29113239184300493  1.0000
  H   H110      1.0  0.014010364251344942  0.8051694634020781  0.3173888724764147  1.0000
  H   H111      1.0  0.12335506489322795  0.7736987399762715  0.33046477722807927  1.0000
  H   H112      1.0  0.1093065228558121  0.7169785218456959  0.3037313541559979  1.0000
  C   C169      1.0  0.19220527414571387  0.8594341539634773  0.5196962170451525  1.0000
  C   C170      1.0  0.19047371642450192  0.8684576487807554  0.5568591525248029  1.0000
  C   C171      1.0  0.21069041086041335  0.8962208889292911  0.570357089761265  1.0000
  C   C172      1.0  0.23216389899553308  0.9153612132341339  0.5465797314288966  1.0000
  C   C173      1.0  0.23353001970099818  0.9066579925944126  0.5093649164925433  1.0000
  C   C174      1.0  0.21372499981863582  0.8785720915181789  0.4959821465797219  1.0000
  H   H113      1.0  0.1733111235143117  0.8543077716080788  0.5751583542210361  1.0000
  H   H114      1.0  0.20919442727254312  0.9031600659942276  0.5990553320684011  1.0000
  H   H115      1.0  0.25013892031348556  0.9214208520815328  0.490946281700206  1.0000
  H   H116      1.0  0.21520561816595563  0.8717458639949892  0.4672962373509049  1.0000
  C   C175      1.0  0.2923117886445078  0.8864496641932964  0.37643022787085517  1.0000
  C   C176      1.0  0.3246562114588875  0.8854341321856899  0.35746229455160267  1.0000
  C   C177      1.0  0.3569273899202666  0.8889237353054167  0.37640263066939  1.0000
  C   C178      1.0  0.3571251027785791  0.893995685556568  0.41437671700484546  1.0000
  C   C179      1.0  0.32478020347866515  0.8930745427454494  0.433685129129541  1.0000
  C   C180      1.0  0.2923047399536699  0.8891528911305515  0.41467424199690617  1.0000
  H   H117      1.0  0.32488030988090344  0.8824438874010716  0.32797792109380375  1.0000
  H   H118      1.0  0.38160447587265356  0.8883065821447537  0.36128341171139733  1.0000
  H   H119      1.0  0.32453073972068464  0.8967803683879702  0.4629707288072767  1.0000
  H   H120      1.0  0.2672309326924101  0.8899415935605584  0.42937805614565744  1.0000
  C   C181      1.0  0.3664382458887164  0.755512680723687  0.046202361422769345  1.0000
  C   C182      1.0  0.3718282082884572  0.764263788854959  0.009569970429091246  1.0000
  C   C183      1.0  0.3788833465499144  0.7984624325402662  6.580682225121316e-05  1.0000
  C   C184      1.0  0.3803473492538255  0.824222699668363  0.026871519731263897  1.0000
  C   C185      1.0  0.3743063401507329  0.815794899240386  0.06354780537444472  1.0000
  C   C186      1.0  0.3677968433418579  0.7813233001973641  0.07324311466482913  1.0000
  H   H121      1.0  0.3708815640356104  0.7447091669772039  0.9883789211615531  1.0000
  H   H122      1.0  0.38335848340483547  0.8049987744008049  0.9718604697251743  1.0000
  H   H123      1.0  0.37550314475110097  0.8357134448252669  0.08443350782580505  1.0000
  H   H124      1.0  0.3643472146300614  0.7748753192995074  0.1015896734459498  1.0000
  C   C187      1.0  0.22451854853652609  0.7165189913568242  0.2335001150164145  1.0000
  C   C188      1.0  0.24276101958505705  0.6931832445859849  0.2559376017886634  1.0000
  C   C189      1.0  0.23925481869707213  0.6951957463707107  0.29412645744370397  1.0000
  C   C190      1.0  0.2169338097734953  0.7201588632583914  0.30993676868354797  1.0000
  C   C191      1.0  0.1965994760873528  0.7416162648989137  0.287306606821445  1.0000
  C   C192      1.0  0.20051579315887785  0.7399821329452577  0.249152038217273  1.0000
  H   H125      1.0  0.25950084939609447  0.6734881198104526  0.24391693421865382  1.0000
  H   H126      1.0  0.2543192945439766  0.6777549958965486  0.31137831685731565  1.0000
  H   H127      1.0  0.17736184779296857  0.7590990937901861  0.2989577183121425  1.0000
  H   H128      1.0  0.18547405934746944  0.7574198332895465  0.2318772750113944  1.0000
  C   C193      1.0  0.4051264303372946  0.7889084096305179  0.2381248545603084  1.0000
  C   C194      1.0  0.4308967951457249  0.8048187770530886  0.2602843234531305  1.0000
  C   C195      1.0  0.429669216648924  0.8404589179941959  0.26654741250990527  1.0000
  C   C196      1.0  0.40234060780264824  0.8603521147588346  0.25128278374884855  1.0000
  C   C197      1.0  0.37685750464373535  0.8445962217795489  0.22847738196333636  1.0000
  C   C198      1.0  0.3782659145692603  0.8088422460994216  0.22185192243392174  1.0000
  H   H129      1.0  0.4520489578018508  0.7895988891438233  0.27252549092476064  1.0000
  H   H130      1.0  0.45026751696669015  0.8525878852822666  0.2827203413900768  1.0000
  H   H131      1.0  0.35582167518149105  0.8599936232269011  0.21631048913041448  1.0000
  H   H132      1.0  0.35845317536304305  0.796804106251308  0.20446375764237248  1.0000
  C   C199      1.0  0.08171467884681859  0.34499684129229263  0.39065749112955733  1.0000
  C   C200      1.0  0.11606270119139095  0.3591197886817067  0.38823733772722047  1.0000
  C   C201      1.0  0.12452920699485868  0.3817340268013243  0.3596545072186615  1.0000
  C   C202      1.0  0.09917328131815964  0.38939926580723827  0.3327588217224844  1.0000
  C   C203      1.0  0.0647416842432971  0.3755649411241004  0.33527762536151473  1.0000
  C   C204      1.0  0.05592751085053191  0.35358399302778515  0.3643603579267902  1.0000
  H   H133      1.0  0.13609160164458908  0.35266319800707546  0.4084377162312921  1.0000
  H   H134      1.0  0.15065779982357808  0.3933353307259944  0.35820594066663947  1.0000
  H   H135      1.0  0.04508776664572056  0.3814738138875368  0.31453696279103033  1.0000
  H   H136      1.0  0.029467002104608397  0.34273292669473404  0.36587161854981015  1.0000
  C   C205      1.0  0.3138597979205212  0.5770328648643159  0.21308108431083173  1.0000
  C   C206      1.0  0.3162020741190468  0.5461457902420938  0.2325776414874474  1.0000
  C   C207      1.0  0.2881278978329237  0.5359268492372223  0.25548818577581767  1.0000
  C   C208      1.0  0.25783893844414507  0.5568507285750096  0.25957298889682545  1.0000
  C   C209      1.0  0.25558294411712595  0.5878986641245822  0.2401889560760847  1.0000
  C   C210      1.0  0.28342488914316244  0.597841208310364  0.2167863939626409  1.0000
  H   H137      1.0  0.3400506882177053  0.5304930772806663  0.2305919232264781  1.0000
  H   H138      1.0  0.290483540054825  0.5123622350698899  0.2707774219627389  1.0000
  H   H139      1.0  0.23219556976143696  0.6041178397589815  0.24277156900729757  1.0000
  H   H140      1.0  0.28113113355330055  0.6214827119444152  0.2014011344785413  1.0000
  C   C211      1.0  0.4272691257875121  0.3244463209162775  0.071927299607046  1.0000
  C   C212      1.0  0.411957181852091  0.33011549278355046  0.037501008743055175  1.0000
  C   C213      1.0  0.38558707981642  0.3555149452850949  0.03329837076464304  1.0000
  C   C214      1.0  0.37363555044993435  0.3745237774479227  0.06359388310672243  1.0000
  C   C215      1.0  0.38909493208075746  0.3690591499973198  0.09797566587061556  1.0000
  C   C216      1.0  0.41631834509301074  0.3444314753559733  0.10197184611687368  1.0000
  H   H141      1.0  0.419800684616305  0.3145765847171917  0.014236576588158911  1.0000
  H   H142      1.0  0.3738893613523636  0.3599327950068376  0.00678379841546084  1.0000
  H   H143      1.0  0.38021389849729675  0.38389995594621207  0.1214489105178505  1.0000
  H   H144      1.0  0.42877698134321185  0.34100215734538974  0.1283528757078391  1.0000
  C   C217      1.0  0.31904166558458247  0.38391267754620023  0.227294151475296  1.0000
  C   C218      1.0  0.33521307305402537  0.3940798522095792  0.2602295446895943  1.0000
  C   C219      1.0  0.372046331330516  0.38920371476155435  0.2655228250641159  1.0000
  C   C220      1.0  0.39273582966858  0.3737064617502902  0.23806103570667722  1.0000
  C   C221      1.0  0.37655151985011565  0.36339767386285404  0.20522091640396448  1.0000
  C   C222      1.0  0.33976974344098837  0.3683599956973879  0.19987722224651713  1.0000
  H   H145      1.0  0.319447228853268  0.40545240107457975  0.28180815759153716  1.0000
  H   H146      1.0  0.38439477552131823  0.3971288126216178  0.29106615599274666  1.0000
  H   H147      1.0  0.3924419625659812  0.3521652635158309  0.183595971943451  1.0000
  H   H148      1.0  0.3274643909318518  0.36031042977290967  0.1743355129666541  1.0000
  C   C223      1.0  0.7447837516191307  0.03461775697220893  0.33529453395908765  1.0000
  C   C224      1.0  0.7752791184324975  0.052160556168080595  0.3234874093918747  1.0000
  C   C225      1.0  0.809398764819464  0.03909837207148453  0.3311818478308924  1.0000
  C   C226      1.0  0.8130667476842046  0.008185359912226355  0.3503786323938228  1.0000
  C   C227      1.0  0.7825941148165168  0.9899475286023073  0.3608799875137727  1.0000
  C   C228      1.0  0.7484222956891543  0.0030637392596182256  0.35328260297028463  1.0000
  H   H149      1.0  0.7726054859489239  0.07533172807987869  0.3074898671591208  1.0000
  H   H150      1.0  0.8329124474477929  0.05285854817488176  0.32209642737181615  1.0000
  H   H151      1.0  0.785363762284205  0.9656159416574149  0.37460893609034523  1.0000
  H   H152      1.0  0.7249254295701416  0.9889740980286551  0.36181426904252206  1.0000
  C   C229      1.0  0.7589954889019102  0.24434848624828356  0.2501068134776796  1.0000
  C   C230      1.0  0.7418013192971551  0.26656796699688184  0.27483464488793674  1.0000
  C   C231      1.0  0.742312702153208  0.3023904910284098  0.26907252914559965  1.0000
  C   C232      1.0  0.7603475502896662  0.31604505163744456  0.23883467660134347  1.0000
  C   C233      1.0  0.7770948671173147  0.29373432486494444  0.21398031954498523  1.0000
  C   C234      1.0  0.776596475068044  0.25803040579063286  0.21968599756301685  1.0000
  H   H153      1.0  0.727538529015146  0.2562415167737438  0.2979503031533928  1.0000
  H   H154      1.0  0.7289642632154235  0.3195431026930452  0.2881844022050424  1.0000
  H   H155      1.0  0.7897718109645361  0.30385634411957724  0.18983636805468507  1.0000
  H   H156      1.0  0.7894510190862954  0.24096377979072012  0.2001127899325601  1.0000
  C   C235      1.0  0.8114122108085345  0.1871797747781827  0.42609317390785223  1.0000
  C   C236      1.0  0.8277519890593232  0.17389956932058304  0.3946013066475922  1.0000
  C   C237      1.0  0.8633804328118926  0.1818214127148642  0.3866498790993984  1.0000
  C   C238      1.0  0.882793931045873  0.2036851360469057  0.4098211350638525  1.0000
  C   C239      1.0  0.8669796616118361  0.216107693416777  0.44203754588727934  1.0000
  C   C240      1.0  0.8313811142943305  0.2076871649211823  0.4502849354455636  1.0000
  H   H157      1.0  0.8133333321538521  0.1570116651127828  0.37657965966818124  1.0000
  H   H158      1.0  0.8757121462427605  0.1714743535784837  0.3621036140414704  1.0000
  H   H159      1.0  0.8821798946109591  0.23190177686390812  0.46076435156242745  1.0000
  H   H160      1.0  0.8191599335686004  0.21757354680529892  0.4750334968441786  1.0000
  C   C241      1.0  0.5976893850268999  0.2146936195032505  0.31129380480660146  1.0000
  C   C242      1.0  0.5663671370288152  0.21254071941665373  0.2904403987909321  1.0000
  C   C243      1.0  0.5627050431639161  0.232255049247127  0.25858733187590954  1.0000
  C   C244      1.0  0.5897344308569726  0.25514535012142475  0.2483078377038347  1.0000
  C   C245      1.0  0.6209905547600829  0.2574646302290355  0.2692649657781089  1.0000
  C   C246      1.0  0.6251034752415068  0.2369632009055077  0.30048834950223  1.0000
  H   H161      1.0  0.545350273760328  0.19497500981963484  0.2982042433799823  1.0000
  H   H162      1.0  0.5391101599672908  0.22925154410817788  0.2417634264969961  1.0000
  H   H163      1.0  0.6418523403982206  0.27538111101914486  0.26179408013629846  1.0000
  H   H164      1.0  0.6492330186219454  0.2389622285926714  0.3166198950908275  1.0000
  C   C247      1.0  0.08564880923786285  0.3352629385447443  0.7674935486076764  1.0000
  C   C248      1.0  0.0501626125407959  0.340662275226393  0.7779149757854019  1.0000
  C   C249      1.0  0.04213996727282088  0.3515199377360385  0.8135179877913957  1.0000
  C   C250      1.0  0.06932758224595006  0.3569571975228165  0.83909677058473  1.0000
  C   C251      1.0  0.10499544130492271  0.35115897823107534  0.8290083653763364  1.0000
  C   C252      1.0  0.11319154211793858  0.3405008982538237  0.7930394284864574  1.0000
  H   H165      1.0  0.028691918940728426  0.3365774676998614  0.7585408021835809  1.0000
  H   H166      1.0  0.014744800371917277  0.35569708563874847  0.8212712727388746  1.0000
  H   H167      1.0  0.12620273202703777  0.3552277090084772  0.8487679801029919  1.0000
  H   H168      1.0  0.14071022515022144  0.3366259089236258  0.7851689674331754  1.0000
  C   C253      1.0  0.2631045378677315  0.19069361910053578  0.7287096325497874  1.0000
  C   C254      1.0  0.2758333587287785  0.1664747260913367  0.7538881596082478  1.0000
  C   C255      1.0  0.3127051387146157  0.16036402991430843  0.7571456118566907  1.0000
  C   C256      1.0  0.3368517808832109  0.17805624893804992  0.734889898821374  1.0000
  C   C257      1.0  0.3239217036123368  0.20081968116685256  0.7083575037017092  1.0000
  C   C258      1.0  0.2871189409199467  0.20704107280536416  0.7052239742910578  1.0000
  H   H169      1.0  0.2573087853783095  0.15304411837114204  0.771536168657064  1.0000
  H   H170      1.0  0.3223075189240711  0.14183968182496812  0.7767552857636111  1.0000
  H   H171      1.0  0.34243637406665767  0.21411066374754759  0.6905636186226994  1.0000
  H   H172      1.0  0.27742835834238033  0.2242483628506778  0.6843527883103911  1.0000
  C   C259      1.0  0.2596842961702544  0.3687553244967872  0.7887504597804965  1.0000
  C   C260      1.0  0.22412926140271966  0.3759015911959062  0.7979539955636854  1.0000
  C   C261      1.0  0.21557264713744445  0.38624893052553483  0.8338070315970328  1.0000
  C   C262      1.0  0.24251146206843402  0.3888640105421512  0.8604387098463188  1.0000
  C   C263      1.0  0.277426297454661  0.37888686507167696  0.8517058013244789  1.0000
  C   C264      1.0  0.28616483895865935  0.36951955259887065  0.8157755657030756  1.0000
  H   H173      1.0  0.20351450179828387  0.37497931356423353  0.7770936496788661  1.0000
  H   H174      1.0  0.18833793220451986  0.39300563906224295  0.8404135575996715  1.0000
  H   H175      1.0  0.2979089104709496  0.3787301163726961  0.8725450400076398  1.0000
  H   H176      1.0  0.31357375237509266  0.3632879305973263  0.8088738430752818  1.0000
  C   C265      1.0  0.35104087527587685  0.07106956209240985  0.3780761743984347  1.0000
  C   C266      1.0  0.3672445210549757  0.04290194918538481  0.39518592984269385  1.0000
  C   C267      1.0  0.40296937028035784  0.03470485557126568  0.38755362381620323  1.0000
  C   C268      1.0  0.42234516620643603  0.054254062888121624  0.3623338473993405  1.0000
  C   C269      1.0  0.40634569318674163  0.08286850740741802  0.34572217284341705  1.0000
  C   C270      1.0  0.37066128540040905  0.09126437809797443  0.35365772899463505  1.0000
  H   H177      1.0  0.3522733168991852  0.0275452887973775  0.41449928730511576  1.0000
  H   H178      1.0  0.4154905398157063  0.013100956386010498  0.40119801632510027  1.0000
  H   H179      1.0  0.42091785972606255  0.09773410737854626  0.32571282102773325  1.0000
  H   H180      1.0  0.35778650314826305  0.11259239025882348  0.3398678980459312  1.0000
  C   C271      1.0  0.26053298432476046  0.20470075299831858  0.5497477920526449  1.0000
  C   C272      1.0  0.2514026767243936  0.21095383442610174  0.5862896534404438  1.0000
  C   C273      1.0  0.23100984906798155  0.24000661914323668  0.5956152795480956  1.0000
  C   C274      1.0  0.2207726662661846  0.26366078834158346  0.5687269381537744  1.0000
  C   C275      1.0  0.22820405391323753  0.25645999259544694  0.5319065908166272  1.0000
  C   C276      1.0  0.2475159236886986  0.22667365668574646  0.5224093488791203  1.0000
  H   H181      1.0  0.2607367571299243  0.19395185818733146  0.6075896165620152  1.0000
  H   H182      1.0  0.22385370445581684  0.2442301540785799  0.6238041176677872  1.0000
  H   H183      1.0  0.21998002817949489  0.27413832198655813  0.5107934263384059  1.0000
  H   H184      1.0  0.25289283072773683  0.2211622203875766  0.493994151994328  1.0000
  C   C277      1.0  0.4072488901933414  0.21624816938194688  0.35286684024504167  1.0000
  C   C278      1.0  0.39879286429277394  0.1846286460722774  0.33639492150304595  1.0000
  C   C279      1.0  0.4038227136461064  0.17978914431819834  0.29863810115077954  1.0000
  C   C280      1.0  0.41645372924282  0.20693654661410918  0.27717496007662895  1.0000
  C   C281      1.0  0.42210217791669696  0.23932268303141202  0.29333458218527536  1.0000
  C   C282      1.0  0.4186075766247637  0.24374564969547446  0.3312810964237412  1.0000
  H   H185      1.0  0.38957524636689356  0.1635169472917529  0.35303436128970944  1.0000
  H   H186      1.0  0.39864129745135946  0.15483577175556423  0.2862305756096044  1.0000
  H   H187      1.0  0.4287828780651973  0.26109540990161856  0.2766700669385711  1.0000
  H   H188      1.0  0.42413241232258425  0.2685715928533488  0.34379499705942207  1.0000
  C   C283      1.0  0.23931893231506005  0.2854640874224766  0.3917521330062095  1.0000
  C   C284      1.0  0.27163342784185635  0.29828775495509324  0.40569054186679937  1.0000
  C   C285      1.0  0.2773349439410759  0.3340197087682933  0.40829226655357276  1.0000
  C   C286      1.0  0.25086281855522496  0.35694150680832687  0.39647522299310317  1.0000
  C   C287      1.0  0.21838830908090115  0.3440736894560229  0.38339877948488066  1.0000
  C   C288      1.0  0.21257643461944123  0.30849184415191677  0.38093391724746906  1.0000
  H   H189      1.0  0.2927226798675338  0.2809203522030107  0.413482394626738  1.0000
  H   H190      1.0  0.3025738245167593  0.3438356963172632  0.41850332940138996  1.0000
  H   H191      1.0  0.197642008374285  0.36163484501673143  0.3752054978479139  1.0000
  H   H192      1.0  0.1874397094921399  0.2989079923786386  0.3701894657230675  1.0000
  N   N1        1.0  0.1390891662773404  0.2336745157552695  0.4482094040461274  1.0000
  C   C289      1.0  0.16381892025336403  0.20525720497417643  0.45778826446970183  1.0000
  C   C290      1.0  0.1558423999899689  0.26703385196131935  0.4578237358573936  1.0000
  C   C291      1.0  0.10530730006741043  0.2298589550918947  0.4688057435767176  1.0000
  C   C292      1.0  0.13138208171729657  0.23273280071024127  0.408434919471369  1.0000
  H   H193      1.0  0.1520607540222453  0.17959080808556324  0.4512279140407848  1.0000
  H   H194      1.0  0.1707720754807717  0.20568537519479674  0.48750200468036686  1.0000
  H   H195      1.0  0.18941544043214475  0.20721012028655583  0.44235467311065346  1.0000
  H   H196      1.0  0.1389013682298989  0.2890148893613135  0.44879040958217725  1.0000
  H   H197      1.0  0.15992181696289437  0.26954470410424874  0.4879364567780308  1.0000
  H   H198      1.0  0.182358545005222  0.2698209089489642  0.44434623320530514  1.0000
  H   H199      1.0  0.08623608843166293  0.2511551261815334  0.4624171233299366  1.0000
  H   H200      1.0  0.11005102653725457  0.23033736400710106  0.4989379866213867  1.0000
  H   H201      1.0  0.09167026576714613  0.20515121579295306  0.46187196214689796  1.0000
  H   H202      1.0  0.1126529336624812  0.25383346354928804  0.40040935507683745  1.0000
  H   H203      1.0  0.11902847737247568  0.207814863083933  0.40002710166569555  1.0000
  H   H204      1.0  0.15617536489138278  0.23602917008713767  0.39200635681212886  1.0000
  N   N2        1.0  0.8777060527758206  0.9804087863649023  0.6642632246093004  1.0000
  C   C293      1.0  0.8575433708591891  0.9478356636372773  0.667767403796678  1.0000
  C   C294      1.0  0.8533977586247202  0.009922228845208547  0.6709120206011431  1.0000
  C   C295      1.0  0.8928616757454655  0.9827389953478284  0.6269441941198362  1.0000
  C   C296      1.0  0.9070361454377209  0.9810704796331863  0.6915121630028538  1.0000
  H   H205      1.0  0.8449719216615905  0.9457030081555173  0.6953244407849765  1.0000
  H   H206      1.0  0.8753836819899604  0.9250574496079678  0.6641063997750792  1.0000
  H   H207      1.0  0.8358092719576784  0.9458582903469153  0.64697444840484  1.0000
  H   H208      1.0  0.8418836647321768  0.009099818193668563  0.6990677502237422  1.0000
  H   H209      1.0  0.8677541170579749  0.0350000830703896  0.668654098985999  1.0000
  H   H210      1.0  0.8307905358407198  0.010151637322573404  0.6510635651176765  1.0000
  H   H211      1.0  0.9075063266428588  0.007445315087612148  0.6231027210802215  1.0000
  H   H212      1.0  0.8716112991310593  0.9811648647471811  0.6055257823496885  1.0000
  H   H213      1.0  0.9120225248948732  0.9612979343600089  0.6214284420842747  1.0000
  H   H214      1.0  0.9222617316375155  0.005719273640793832  0.6904287368014215  1.0000
  H   H215      1.0  0.9261770712788489  0.9594003190414009  0.6871350373832895  1.0000
  H   H216      1.0  0.8966514042819664  0.9786790084026923  0.7199462642494517  1.0000
  N   N3        1.0  0.3626838934732071  0.9716918888292052  0.9404334333481764  1.0000
  C   C297      1.0  0.34821275266897633  0.954658416319071  0.9072320260726059  1.0000
  C   C298      1.0  0.3624611020864082  0.9470492620112559  0.9712307980349011  1.0000
  C   C299      1.0  0.3403807357853839  0.0020558619298385317  0.9496614225507293  1.0000
  C   C300      1.0  0.3997700049498005  0.9830176871510571  0.9334135050579973  1.0000
  H   H217      1.0  0.35155269558556335  0.9712740399775424  0.8826672692974096  1.0000
  H   H218      1.0  0.319310516100798  0.9485735446681555  0.9100734065511997  1.0000
  H   H219      1.0  0.3624464165651841  0.9300589222315082  0.9012307363335327  1.0000
  H   H220      1.0  0.3730430659271766  0.9589124813144967  0.9968924312057552  1.0000
  H   H221      1.0  0.3350396520773667  0.9373800927437996  0.976958941351812  1.0000
  H   H222      1.0  0.37944996924337315  0.9240737162754012  0.9651555766121419  1.0000
  H   H223      1.0  0.3395916968207909  0.02074010503587309  0.9265391346025951  1.0000
  H   H224      1.0  0.3509347907059552  0.016020825001525685  0.9741071141967461  1.0000
  H   H225      1.0  0.3122874645852749  0.99448740173767  0.9555455400639176  1.0000
  H   H226      1.0  0.41170534373191536  0.9958581389368396  0.9578653806311088  1.0000
  H   H227      1.0  0.4009046430239517  0.0014921865858974481  0.9101612831881639  1.0000
  H   H228      1.0  0.4171542789864544  0.9608202873343428  0.9258628301664834  1.0000
  N   N4        1.0  0.35848336977761563  0.6341198159168149  0.9761095799713614  1.0000
  C   C301      1.0  0.38885574962705083  0.6116962981190842  0.9656141236379566  1.0000
  C   C302      1.0  0.3680897984769566  0.6705895867994562  0.969778977204505  1.0000
  C   C303      1.0  0.3502171389418069  0.6291106213772357  0.01532612048912596  1.0000
  C   C304      1.0  0.3267978536296339  0.6250630403168269  0.9537465274693653  1.0000
  H   H229      1.0  0.38309673766493163  0.5840936833966635  0.971494929426845  1.0000
  H   H230      1.0  0.4136013503712078  0.6187779733447394  0.9808723513318934  1.0000
  H   H231      1.0  0.39468879926656764  0.6134847136040832  0.9357619517039449  1.0000
  H   H232      1.0  0.39057765820108525  0.6789831408462516  0.9877915073662417  1.0000
  H   H233      1.0  0.3764035329482961  0.6749679196705745  0.9409195370371494  1.0000
  H   H234      1.0  0.34512206207607526  0.6880781730197203  0.9755446937885806  1.0000
  H   H235      1.0  0.3428637700225282  0.6018333420901907  0.02107806647703958  1.0000
  H   H236      1.0  0.3275783968208221  0.645807542261494  0.02420219867287332  1.0000
  H   H237      1.0  0.37349503593507943  0.6359119453706668  0.03305863212288607  1.0000
  H   H238      1.0  0.33182151521762315  0.6292998362869627  0.9240870222592684  1.0000
  H   H239      1.0  0.3031655204847053  0.6411288337619336  0.9612236037858314  1.0000
  H   H240      1.0  0.3193284951864122  0.5974280810303358  0.9571142447555359  1.0000
  N   N5        1.0  0.14963001555426966  0.6288785298765779  0.29641273971037496  1.0000
  C   C305      1.0  0.14436094593334392  0.5955231762906527  0.2773025090479319  1.0000
  C   C306      1.0  0.11939865538223932  0.6353607463290888  0.3216104149653858  1.0000
  C   C307      1.0  0.15133392075991242  0.6568559943303334  0.26910591984037735  1.0000
  C   C308      1.0  0.1833623427810884  0.6278191756017152  0.3176194988740597  1.0000
  H   H241      1.0  0.16661341057804704  0.5900951300339011  0.2578267173951014  1.0000
  H   H242      1.0  0.11890397290174251  0.5952774213102385  0.26145205181477693  1.0000
  H   H243      1.0  0.1437814982098743  0.5736543554156993  0.296978066981889  1.0000
  H   H244      1.0  0.12234352726605198  0.6606281292024921  0.3360551280046301  1.0000
  H   H245      1.0  0.09345058212126556  0.6362169518146067  0.3065687306364518  1.0000
  H   H246      1.0  0.11742177636580275  0.6149128290171243  0.34277273223828786  1.0000
  H   H247      1.0  0.1561595724436154  0.6821924039604246  0.2825451965903343  1.0000
  H   H248      1.0  0.12580794191726893  0.6591979804114414  0.2534634087698387  1.0000
  H   H249      1.0  0.17343076028186222  0.6526272252391881  0.249143585302553  1.0000
  H   H250      1.0  0.20690633089080357  0.6241048545114585  0.2994058944061544  1.0000
  H   H251      1.0  0.18362159383668664  0.606045601053763  0.33739393969320386  1.0000
  H   H252      1.0  0.18760448933348842  0.6521637932804799  0.333435604176289  1.0000
  N   N6        1.0  0.644829966950453  0.8158743368945692  0.3510685216216089  1.0000
  C   C309      1.0  0.6558520849455282  0.8514570264707103  0.3420773435917436  1.0000
  C   C310      1.0  0.6134962200896685  0.8060604161358162  0.3285298427249398  1.0000
  C   C311      1.0  0.635209181907259  0.8142783835839825  0.39030617023164527  1.0000
  C   C312      1.0  0.6747262222791749  0.7918181869714204  0.34359043643157317  1.0000
  H   H253      1.0  0.6339326980798031  0.870246756808689  0.3475627948275712  1.0000
  H   H254      1.0  0.6633027662922363  0.8538538052241911  0.312665293248065  1.0000
  H   H255      1.0  0.6793583029001123  0.8596890407746738  0.3586853421327888  1.0000
  H   H256      1.0  0.6055169710681272  0.7787963660672322  0.33321192337101  1.0000
  H   H257      1.0  0.5899115849544919  0.8225283087942743  0.33503781899495344  1.0000
  H   H258      1.0  0.618987095423785  0.8089179723491018  0.2987190063162793  1.0000
  H   H259      1.0  0.6583007028604504  0.8215607740164164  0.4080964207884009  1.0000
  H   H260      1.0  0.6265957017055654  0.7878518789130561  0.3981379264487469  1.0000
  H   H261      1.0  0.6128130335321953  0.8323471060951361  0.39682407203446896  1.0000
  H   H262      1.0  0.6671226500006141  0.7645951100927252  0.34914582851028103  1.0000
  H   H263      1.0  0.698420505598215  0.7979680226001717  0.3609839773845487  1.0000
  H   H264      1.0  0.6833733372403431  0.7930322332515428  0.3144158681339112  1.0000
  N   N7        1.0  0.8827883933555674  0.760417174958825  0.5066333502774811  1.0000
  C   C313      1.0  0.8919770693153161  0.72867388450156  0.526912447914035  1.0000
  C   C314      1.0  0.9144923526313413  0.7721735310162836  0.4860374473358965  1.0000
  C   C315      1.0  0.8715018287325049  0.7875579187455898  0.5328748584233917  1.0000
  C   C316      1.0  0.8532590116054067  0.7531810211744894  0.48073187961053465  1.0000
  H   H265      1.0  0.8687437171761663  0.7190053621359125  0.5428531851540112  1.0000
  H   H266      1.0  0.9142437104292885  0.7334423681065304  0.5467207367952384  1.0000
  H   H267      1.0  0.9007587519142932  0.7076840500030087  0.5079460174528333  1.0000
  H   H268      1.0  0.9092067456297603  0.7970156046056315  0.47177124140335186  1.0000
  H   H269      1.0  0.9378099992847431  0.7762345505411065  0.5045737484345043  1.0000
  H   H270      1.0  0.9226728352623191  0.7530024652461049  0.464743272120264  1.0000
  H   H271      1.0  0.892296891510864  0.7921672072447743  0.5541528536707068  1.0000
  H   H272      1.0  0.8465784158762268  0.7803131460041838  0.5475199852296974  1.0000
  H   H273      1.0  0.8665457259393518  0.8126251973697777  0.5189409967133252  1.0000
  H   H274      1.0  0.8461334327875104  0.7765778640319616  0.4646340216212197  1.0000
  H   H275      1.0  0.8287243374077772  0.7446199680458315  0.4952706392479176  1.0000
  H   H276      1.0  0.8607001339016742  0.73241336705547  0.4608806433751736  1.0000
  N   N8        1.0  0.31564117166938155  0.2629716689198921  0.8174920749992012  1.0000
  C   C317      1.0  0.3504682561030233  0.24579635731929644  0.8113338535748932  1.0000
  C   C318      1.0  0.3191845754197801  0.28859196821718897  0.8474889394377484  1.0000
  C   C319      1.0  0.28871068051520704  0.2368685968541333  0.8276817918462439  1.0000
  C   C320      1.0  0.30414958058976976  0.28045399017839534  0.783504105350314  1.0000
  H   H277      1.0  0.37180617338808103  0.2647626153539933  0.8047584406541816  1.0000
  H   H278      1.0  0.3491067595086927  0.22714379507135443  0.788112071955351  1.0000
  H   H279      1.0  0.35916510192065376  0.23106405655123724  0.8358986024227545  1.0000
  H   H280      1.0  0.2933815038910182  0.30205534005099954  0.8529207950917871  1.0000
  H   H281      1.0  0.32780582965334926  0.27617125792207686  0.8735118594961405  1.0000
  H   H282      1.0  0.3394072665271277  0.3086787781187045  0.8408624133532634  1.0000
  H   H283      1.0  0.2620398604080069  0.2488755233182747  0.8324659256540171  1.0000
  H   H284      1.0  0.29662611460172106  0.22293966688954286  0.8530757678347577  1.0000
  H   H285      1.0  0.28538282204036525  0.21722027731595725  0.805607930996942  1.0000
  H   H286      1.0  0.2777432763257905  0.29337869866551763  0.7869949448681552  1.0000
  H   H287      1.0  0.30144889996453916  0.26185166784213104  0.7602586592655188  1.0000
  H   H288      1.0  0.32361243313929183  0.3005959450149785  0.7750313417272938  1.0000
  N   N9        1.0  0.8388594951473717  0.794445775213783  0.8084008154912297  1.0000
  C   C321      1.0  0.8612841937465272  0.7840853874396391  0.776874715977384  1.0000
  C   C322      1.0  0.840505980837887  0.767468415491385  0.8368889971096204  1.0000
  C   C323      1.0  0.8014718528465892  0.7989526700197337  0.796025647767244  1.0000
  C   C324      1.0  0.8522615699150125  0.8273759115846282  0.8237253023261731  1.0000
  H   H289      1.0  0.8522712259689477  0.7590678853381382  0.7648536097277612  1.0000
  H   H290      1.0  0.8898073436000479  0.7809422452880057  0.7850086073818474  1.0000
  H   H291      1.0  0.8604469548270433  0.8036285863002022  0.7546421890493401  1.0000
  H   H292      1.0  0.8244343887451343  0.774714723701349  0.8613821971311741  1.0000
  H   H293      1.0  0.8298929637743822  0.7423310935802602  0.8266182236827326  1.0000
  H   H294      1.0  0.8684680658758627  0.7628415364027519  0.8462395148405978  1.0000
  H   H295      1.0  0.7841578903905211  0.8089619376721612  0.8184517168302051  1.0000
  H   H296      1.0  0.7898176541001852  0.7741678711023744  0.7861257125771831  1.0000
  H   H297      1.0  0.7995459027306492  0.8177957761692894  0.7731956523407805  1.0000
  H   H298      1.0  0.8802908619375727  0.8247892080242528  0.8336845612871754  1.0000
  H   H299      1.0  0.8354150768160499  0.8364795752708847  0.8470071545006642  1.0000
  H   H300      1.0  0.852006401021673  0.8480170672866366  0.8026979135787243  1.0000
  N   N10       1.0  0.28787870540542976  0.10641941135817809  0.6419305320951662  1.0000
  C   C325      1.0  0.26210209491185726  0.11269339150112591  0.6719402866245513  1.0000
  C   C326      1.0  0.268872494823474  0.10712240421115223  0.6063656451699851  1.0000
  C   C327      1.0  0.3048619537854893  0.07225673296914352  0.6467974351745066  1.0000
  C   C328      1.0  0.31567840218866017  0.1335170827765285  0.6426197301890479  1.0000
  H   H301      1.0  0.27553772170636676  0.11224378137443204  0.6991614587437557  1.0000
  H   H302      1.0  0.24097559219991704  0.09248307467528669  0.6725538307389899  1.0000
  H   H303      1.0  0.24872560977364994  0.13827366454899287  0.6692508807525096  1.0000
  H   H304      1.0  0.25521655205067606  0.1323003975452986  0.6019755530731118  1.0000
  H   H305      1.0  0.2876345409509017  0.10339902834832917  0.5829688766270535  1.0000
  H   H306      1.0  0.24821129286413293  0.08653443993750999  0.6046038106114975  1.0000
  H   H307      1.0  0.3246780674363214  0.06675554096673303  0.62481517148091  1.0000
  H   H308      1.0  0.28462115185327247  0.051187210830073306  0.6462752080543137  1.0000
  H   H309      1.0  0.3189484250024593  0.0705629027684693  0.6736667821838705  1.0000
  H   H310      1.0  0.30375511978067904  0.15970229702584487  0.6398513077207566  1.0000
  H   H311      1.0  0.33499961787500965  0.13022599534563417  0.6196743241682664  1.0000
  H   H312      1.0  0.3310947657270761  0.1331708980793483  0.6687899230747235  1.0000
  N   N11       1.0  0.04777911332853501  0.8493045077531296  0.451172623725911  1.0000
  C   C329      1.0  0.05330858388168517  0.8777674588971499  0.424982382450452  1.0000
  C   C330      1.0  0.0171032530893358  0.857659428089524  0.47506574142826313  1.0000
  C   C331      1.0  0.08027890315164742  0.8448313686838799  0.4738048169810511  1.0000
  C   C332      1.0  0.04028091382232368  0.816948545959969  0.43086667828029623  1.0000
  H   H313      1.0  0.07751515501871732  0.873305874818913  0.4079539130892547  1.0000
  H   H314      1.0  0.05700302489689098  0.9029355312298928  0.43928344771524813  1.0000
  H   H315      1.0  0.030214968575629664  0.8803087212552303  0.4057771334810444  1.0000
  H   H316      1.0  0.021330485103878694  0.882270722989724  0.4903310572101776  1.0000
  H   H317      1.0  0.9920236767633824  0.860460895376198  0.45872358694393167  1.0000
  H   H318      1.0  0.012790004919233546  0.8370742418228637  0.49575604970080084  1.0000
  H   H319      1.0  0.08709856264242585  0.8687940470121682  0.4892560278721411  1.0000
  H   H320      1.0  0.10383988109155609  0.8382014551823385  0.4565647890086085  1.0000
  H   H321      1.0  0.07713950357421766  0.8236241954059565  0.4939808326171498  1.0000
  H   H322      1.0  0.03385281612133251  0.7953754892597943  0.4496835269418291  1.0000
  H   H323      1.0  0.06362814332500749  0.8087111724320935  0.4141092693958152  1.0000
  H   H324      1.0  0.017314478547846065  0.820131601811454  0.41163591565115754  1.0000
  N   N12       1.0  0.13367578901857569  0.4544297302762452  0.888247801060532  1.0000
  C   C333      1.0  0.13932349608480488  0.4225225508900428  0.9095961065187741  1.0000
  C   C334      1.0  0.1686381545421418  0.47025525957801567  0.8796904998455553  1.0000
  C   C335      1.0  0.11195094864512603  0.47893578799468284  0.9100619270590717  1.0000
  C   C336      1.0  0.11466009329825899  0.44606345565911226  0.8537445965546234  1.0000
  H   H325      1.0  0.1134950004005652  0.4105983190093549  0.9177531896471777  1.0000
  H   H326      1.0  0.1550753242742768  0.42754399857965597  0.9349933103205086  1.0000
  H   H327      1.0  0.1542965042450421  0.4027437297712387  0.8936088415348139  1.0000
  H   H328      1.0  0.18523915286298348  0.4528608929006176  0.8623056833032611  1.0000
  H   H329      1.0  0.1654780081112699  0.4950601943163175  0.8647463978470528  1.0000
  H   H330      1.0  0.1844171687545058  0.4755417878923355  0.9050445407436205  1.0000
  H   H331      1.0  0.10704169269456186  0.5033154955150696  0.8948369354683535  1.0000
  H   H332      1.0  0.12549994834765454  0.48573312433075994  0.9363241164121497  1.0000
  H   H333      1.0  0.08535239791322279  0.46770550322599336  0.9168994831536107  1.0000
  H   H334      1.0  0.1109837332870099  0.46932722994201004  0.8364056657456229  1.0000
  H   H335      1.0  0.08762001361736411  0.43527660186231604  0.8591997729882759  1.0000
  H   H336      1.0  0.129445424466249  0.4264255696909228  0.837284812026096  1.0000
  N   N13       1.0  0.6544239987207863  0.793874591746889  0.9829026795286627  1.0000
  C   C337      1.0  0.649132252647372  0.778364678915056  0.01941897874080123  1.0000
  C   C338      1.0  0.6733990177452008  0.769194661478057  0.9587143116660374  1.0000
  C   C339      1.0  0.6757471081812181  0.8258002698842766  0.9866860083989666  1.0000
  C   C340      1.0  0.6192546182774933  0.802292394600111  0.9667356386887663  1.0000
  H   H337      1.0  0.6327113362050376  0.7545016421224406  0.01772020526361784  1.0000
  H   H338      1.0  0.6355744573323592  0.7967177658321546  0.03849777548282329  1.0000
  H   H339      1.0  0.6750623167615516  0.7714211598919185  0.03240087457345142  1.0000
  H   H340      1.0  0.6575876457267102  0.7452359185903205  0.954238490936287  1.0000
  H   H341      1.0  0.6788508877726442  0.7806566010320529  0.9313400183238132  1.0000
  H   H342      1.0  0.6996221419818325  0.7614919427515192  0.9705647413215512  1.0000
  H   H343      1.0  0.7029389142769036  0.8204019477572612  0.9977831478806036  1.0000
  H   H344      1.0  0.6628602106274116  0.8446517258180868  0.00566395908194095  1.0000
  H   H345      1.0  0.6791866654522746  0.8388355454527464  0.9598073166612784  1.0000
  H   H346      1.0  0.6019045003227328  0.7791196467491712  0.9640741729703112  1.0000
  H   H347      1.0  0.6220218248722734  0.8134414133408765  0.9388032940034593  1.0000
  H   H348      1.0  0.6045794026711725  0.8215598468735431  0.983814575550567  1.0000
  N   N14       1.0  0.4599645145666683  0.20358048751221744  0.013127847545375104  1.0000
  C   C341      1.0  0.4594408051295498  0.17441817359410763  0.9867831090282827  1.0000
  C   C342      1.0  0.4363180331138775  0.23126466981281604  0.999503901889683  1.0000
  C   C343      1.0  0.4968829510258607  0.21681022685720946  0.016942591809949503  1.0000
  C   C344      1.0  0.44699468459692926  0.1919510869122656  0.049266879418142784  1.0000
  H   H349      1.0  0.4687734493458876  0.18257372461051108  0.9591908948668679  1.0000
  H   H350      1.0  0.4318567844959368  0.16410820682920313  0.9829966103273525  1.0000
  H   H351      1.0  0.4769904893622197  0.15288686459228723  0.9959025189153764  1.0000
  H   H352      1.0  0.43551911379387065  0.2535691656064604  0.018647284969272038  1.0000
  H   H353      1.0  0.44513861266367283  0.24068635355487167  0.9722413686964014  1.0000
  H   H354      1.0  0.4082597592613494  0.22207238782245173  0.9964866082956604  1.0000
  H   H355      1.0  0.4981729977139944  0.2387281330116304  0.03680692805411656  1.0000
  H   H356      1.0  0.5075694497886941  0.22612793890422186  0.9903721759448549  1.0000
  H   H357      1.0  0.5154795186318232  0.19644551066390845  0.02690197292197083  1.0000
  H   H358      1.0  0.46418983706178485  0.17109428314805736  0.06058818248496567  1.0000
  H   H359      1.0  0.41913605946741117  0.1819543666583007  0.04747043692390607  1.0000
  H   H360      1.0  0.44687905229650027  0.21361511721047213  0.06958879703710297  1.0000
  N   N15       1.0  0.24801373405208432  0.7340585205578896  0.03864627366379314  1.0000
  C   C345      1.0  0.22305698435942115  0.724517706281196  0.06832292995737925  1.0000
  C   C346      1.0  0.22772765994744343  0.747691817585835  0.007028700849373682  1.0000
  C   C347      1.0  0.26841178596508974  0.7032433053289573  0.02686175863473439  1.0000
  C   C348      1.0  0.2730373406072651  0.7607324475669177  0.052282703911674444  1.0000
  H   H361      1.0  0.20403293057302765  0.7041179373876474  0.05921195974632165  1.0000
  H   H362      1.0  0.2070331492933527  0.7471162466641472  0.07778557308802427  1.0000
  H   H363      1.0  0.2376450602385266  0.714508354692215  0.09279257240781817  1.0000
  H   H364      1.0  0.24594173752984153  0.7547729076542511  0.9841094820902084  1.0000
  H   H365      1.0  0.2087686746862836  0.7281219931019407  0.9958197040813405  1.0000
  H   H366      1.0  0.2120292903057938  0.7710647828949457  0.014661694724684704  1.0000
  H   H367      1.0  0.25059354647739945  0.6832382152402824  0.01465237861182467  1.0000
  H   H368      1.0  0.28291374043936995  0.6914133448023373  0.05031526999796677  1.0000
  H   H369      1.0  0.28863821067135903  0.7099835081719651  0.00568975283726969  1.0000
  H   H370      1.0  0.2586308183137597  0.7842852457796965  0.061769049623640056  1.0000
  H   H371      1.0  0.2922024721490304  0.7686682934024727  0.030566334987968572  1.0000
  H   H372      1.0  0.2891631813004888  0.7510680288548031  0.0758126285046164  1.0000
  N   N16       1.0  0.5941850172108178  0.017698780441818274  0.33199270022280675  1.0000
  C   C349      1.0  0.5609266498064618  0.038428859268650806  0.3323281354921099  1.0000
  C   C350      1.0  0.6167993312425651  0.027525840010417024  0.363664231848737  1.0000
  C   C351      1.0  0.614008551444507  0.024055875703196783  0.2976724667238442  1.0000
  C   C352      1.0  0.5850431866531791  0.9806844429522079  0.33432327045581073  1.0000
  H   H373      1.0  0.5429214373552151  0.031276578434987545  0.30911168442858405  1.0000
  H   H374      1.0  0.5666703578567577  0.0665240773452207  0.3302426699229544  1.0000
  H   H375      1.0  0.5453668693723638  0.03424615961860544  0.35793970365989863  1.0000
  H   H376      1.0  0.6421405161140306  0.012323421201313467  0.36415220765434386  1.0000
  H   H377      1.0  0.6245990303787243  0.055256796463863056  0.36255564604655743  1.0000
  H   H378      1.0  0.6027761784689097  0.023088491883392237  0.390095496804837  1.0000
  H   H379      1.0  0.621837885619445  0.05169587084344651  0.2952868271905116  1.0000
  H   H380      1.0  0.5977395235772888  0.017080664271529544  0.2731449131478186  1.0000
  H   H381      1.0  0.6391970178426506  0.008647958011025692  0.29662442179458104  1.0000
  H   H382      1.0  0.5682328457626097  0.9721455488368163  0.3107140276412181  1.0000
  H   H383      1.0  0.5697239569727569  0.9748859423618151  0.35971125928309033  1.0000
  H   H384      1.0  0.6093810647666407  0.9640740894138172  0.3344876806655327  1.0000
  N   N17       1.0  0.6916937320041588  0.06991351378223729  0.8600243445982607  1.0000
  C   C353      1.0  0.7265910633614712  0.08347213992633934  0.8477753999051436  1.0000
  C   C354      1.0  0.6716160970949839  0.05642113710131539  0.8280843264916542  1.0000
  C   C355      1.0  0.6709674733755829  0.09784483703885132  0.8778700460656961  1.0000
  C   C356      1.0  0.6977686890605619  0.04176322886852918  0.8864222011780545  1.0000
  H   H385      1.0  0.7426570357622684  0.09331975849041545  0.8713786587877175  1.0000
  H   H386      1.0  0.7231947299223911  0.10515486335327051  0.8282154241586094  1.0000
  H   H387      1.0  0.7429728131464688  0.06313645028313997  0.8340546006313887  1.0000
  H   H388      1.0  0.6866999712644196  0.03541055888406108  0.8139505350584737  1.0000
  H   H389      1.0  0.6454516504576909  0.04528503169840952  0.8364933531736201  1.0000
  H   H390      1.0  0.6662930564804682  0.07708808329826977  0.8077221572904  1.0000
  H   H391      1.0  0.6440271113863678  0.08884466009301394  0.8864397226762263  1.0000
  H   H392      1.0  0.667290192969274  0.12026764053848388  0.8592374182202024  1.0000
  H   H393      1.0  0.6849874929002129  0.10778950794919884  0.9027387978952909  1.0000
  H   H394      1.0  0.6721581605567708  0.03019046211642129  0.8958221308168659  1.0000
  H   H395      1.0  0.7129570747972201  0.05094369694533484  0.9108945881630802  1.0000
  H   H396      1.0  0.7139079885597022  0.020815392225373545  0.8737698075548935  1.0000
  N   N18       1.0  0.8364801939095005  0.2812253113609296  0.835030340284251  1.0000
  C   C357      1.0  0.8616305368594671  0.25237186605278455  0.8283172179792077  1.0000
  C   C358      1.0  0.8559986883848861  0.3108420365365606  0.8511673159817369  1.0000
  C   C359      1.0  0.8081674842238094  0.27000373989352355  0.8605850370602552  1.0000
  C   C360      1.0  0.8200665389528592  0.29170509932701966  0.7999074394759257  1.0000
  H   H397      1.0  0.874438590045783  0.24363566875149406  0.8542233226913126  1.0000
  H   H398      1.0  0.8833747984942941  0.260017574671304  0.8091687637274444  1.0000
  H   H399      1.0  0.8477182518628108  0.2296918885412428  0.815868601698372  1.0000
  H   H400      1.0  0.8682172508443761  0.3042100454759713  0.8780946540052111  1.0000
  H   H401      1.0  0.877893210037427  0.31974633066132435  0.8328715618280619  1.0000
  H   H402      1.0  0.8378958316283753  0.3332657619974958  0.8558082399023432  1.0000
  H   H403      1.0  0.7880581677313621  0.29080768296294845  0.8653648941636761  1.0000
  H   H404      1.0  0.8194079017714272  0.2628343442763503  0.8877817688359634  1.0000
  H   H405      1.0  0.793541302402444  0.24710780826721512  0.849744594492338  1.0000
  H   H406      1.0  0.8005154468681001  0.3131035970853683  0.8039718850511315  1.0000
  H   H407      1.0  0.8055523640366008  0.26980154944812895  0.7866862291637094  1.0000
  H   H408      1.0  0.8406757312986267  0.30082431147593824  0.7802107441865415  1.0000
  N   N19       1.0  0.891114408255059  0.4987911312653103  0.35246047412163456  1.0000
  C   C361      1.0  0.8544143510661388  0.5111653144157607  0.35998676655621215  1.0000
  C   C362      1.0  0.8926053201352947  0.4839330165534358  0.3150607075120772  1.0000
  C   C363      1.0  0.9010292760675043  0.4720599392542154  0.37940318924432187  1.0000
  C   C364      1.0  0.9163192612147841  0.5280530360269997  0.35534735197267786  1.0000
  H   H409      1.0  0.8346668101713346  0.48974351021721796  0.357914969899481  1.0000
  H   H410      1.0  0.8461680877131459  0.5313988848768635  0.34006548665063757  1.0000
  H   H411      1.0  0.8522983348430959  0.5225441525106614  0.38799292397876955  1.0000
  H   H412      1.0  0.8851811153440357  0.5034410356994072  0.294057063849305  1.0000
  H   H413      1.0  0.9199879807399324  0.4745495785513247  0.30826241390376824  1.0000
  H   H414      1.0  0.8740582991186021  0.4616721452084214  0.3118582028580703  1.0000
  H   H415      1.0  0.901529968137677  0.48251212096121415  0.40786660359255045  1.0000
  H   H416      1.0  0.9279627075875132  0.46095692075844613  0.3735956217088584  1.0000
  H   H417      1.0  0.8816549851163484  0.4502891063565947  0.37906406534581766  1.0000
  H   H418      1.0  0.9440833230851243  0.5200388721761252  0.34815767114333107  1.0000
  H   H419      1.0  0.9168925520401647  0.5392090578925471  0.3835086731100612  1.0000
  H   H420      1.0  0.9088016687599939  0.5492599051992967  0.3363051240023225  1.0000
  N   N20       1.0  0.3399739187035408  0.8062495293670545  0.7887936223971779  1.0000
  C   C365      1.0  0.31813335794142045  0.7749422842338543  0.7942959637992506  1.0000
  C   C366      1.0  0.34206872711752107  0.8260344900871793  0.8234783273636096  1.0000
  C   C367      1.0  0.32345139083675833  0.8279924007934746  0.7601822431630327  1.0000
  C   C368      1.0  0.37635317400055546  0.7959456571111274  0.7772342908832895  1.0000
  H   H421      1.0  0.3173678811179622  0.7587264051517951  0.7690392598596538  1.0000
  H   H422      1.0  0.2899871613733658  0.7814139664589274  0.8015627606889071  1.0000
  H   H423      1.0  0.329124592128436  0.7585533744183857  0.8166422041560929  1.0000
  H   H424      1.0  0.3549018247483027  0.8105157227592671  0.8454480757665143  1.0000
  H   H425      1.0  0.3582331913469185  0.8499628300348591  0.8202109337763154  1.0000
  H   H426      1.0  0.31502447229495056  0.8337179857867879  0.8332708950530272  1.0000
  H   H427      1.0  0.3386785679688331  0.8523178068930564  0.7561566242660056  1.0000
  H   H428      1.0  0.2954785906111354  0.83525152619929  0.7673580638556237  1.0000
  H   H429      1.0  0.32266716552770897  0.8144149183509869  0.7332502057040077  1.0000
  H   H430      1.0  0.3942949348357938  0.8186287484915012  0.7749986993622114  1.0000
  H   H431      1.0  0.37599488059262665  0.78251416731961  0.750193036305186  1.0000
  H   H432      1.0  0.38882488465466847  0.7780105039604923  0.7972603736221274  1.0000
  N   N21       1.0  0.5406985400326297  0.3592216175413381  0.29644945165155684  1.0000
  C   C369      1.0  0.5605571651410515  0.3872774799028636  0.31502190356415916  1.0000
  C   C370      1.0  0.5610183715674564  0.3265788099155351  0.29961434717801416  1.0000
  C   C371      1.0  0.5360271885791372  0.36787710817592395  0.2573175589703653  1.0000
  C   C372      1.0  0.5052104904274507  0.35523044934254766  0.3137674387416625  1.0000
  H   H433      1.0  0.5459555507047432  0.41229058101155575  0.31299947654217997  1.0000
  H   H434      1.0  0.5874762980154713  0.39089719529015077  0.30259134613422695  1.0000
  H   H435      1.0  0.5645221394505134  0.38167066182180315  0.34465115212353675  1.0000
  H   H436      1.0  0.5464505066253887  0.30474217342045434  0.28651922887982606  1.0000
  H   H437      1.0  0.5875030637906258  0.3282505840667777  0.2857945916945274  1.0000
  H   H438      1.0  0.5657582152814095  0.31945256758872276  0.3287250483826085  1.0000
  H   H439      1.0  0.5621865443335512  0.37087101356413793  0.2431657047144116  1.0000
  H   H440      1.0  0.5203487383297789  0.3921216606553467  0.2537706479306888  1.0000
  H   H441      1.0  0.5211629698494263  0.34730706814194473  0.24254741483356201  1.0000
  H   H442      1.0  0.48886851834654516  0.37920034005859976  0.3112692461001906  1.0000
  H   H443      1.0  0.5075587221399491  0.3488704384372601  0.343369352384422  1.0000
  H   H444      1.0  0.48947999547351106  0.3342485961969444  0.3004119549037949  1.0000
  N   N22       1.0  0.8463203986443022  0.074952291302795  0.4411031236107661  1.0000
  C   C373      1.0  0.8800776839683179  0.06320443648055309  0.4581711917779775  1.0000
  C   C374      1.0  0.8320935248176545  0.1049480695704416  0.4616822052900057  1.0000
  C   C375      1.0  0.8199062714830712  0.04658347343678014  0.44170895349667916  1.0000
  C   C376      1.0  0.8532397435347676  0.08508126813875788  0.4027684700326501  1.0000
  H   H445      1.0  0.8915742431581115  0.040679130452989154  0.44304982659116626  1.0000
  H   H446      1.0  0.8758580878759405  0.055108272940591924  0.4870765035675959  1.0000
  H   H447      1.0  0.9005498289644891  0.08406963340962066  0.45831423861579695  1.0000
  H   H448      1.0  0.8509103484487088  0.12722286640392896  0.460967333201341  1.0000
  H   H449      1.0  0.8062048018144332  0.11391299564102943  0.4499121214350008  1.0000
  H   H450      1.0  0.8273256309196538  0.09861501141473372  0.49097478208342193  1.0000
  H   H451      1.0  0.7946097721083273  0.05400261100634711  0.42757390842662846  1.0000
  H   H452      1.0  0.8131275166231279  0.0390380229205175  0.47024421637280966  1.0000
  H   H453      1.0  0.830370433775876  0.023101931015494293  0.4276190115264698  1.0000
  H   H454      1.0  0.8282183079115386  0.09352229870077901  0.3888101339890809  1.0000
  H   H455      1.0  0.8645709740245826  0.0632049468674649  0.3865918527356039  1.0000
  H   H456      1.0  0.8726627307909154  0.1067897422148122  0.4013163607109528  1.0000
  N   N23       1.0  0.02889765951784673  0.4421154680887699  0.22616567892623832  1.0000
  C   C377      1.0  0.0374757680590212  0.40487214207193495  0.22390374285511672  1.0000
  C   C378      1.0  0.0015169683252242991  0.45067865940662266  0.19835919742349148  1.0000
  C   C379      1.0  0.06154549778844203  0.4625369235609349  0.21926050156812593  1.0000
  C   C380      1.0  0.01503598543899187  0.4504158189179619  0.2631200250461741  1.0000
  H   H457      1.0  0.013485336383073141  0.38870263509145675  0.22917234244067808  1.0000
  H   H458      1.0  0.05800959137075979  0.3974405983326892  0.24451698372658934  1.0000
  H   H459      1.0  0.048031467226116176  0.39758202522859215  0.19645437674114688  1.0000
  H   H460      1.0  0.994642498867409  0.47865850931994924  0.19908604925415876  1.0000
  H   H461      1.0  0.010872053997941665  0.44423883456781876  0.17021768507577362  1.0000
  H   H462      1.0  0.9763454686547985  0.436021102039239  0.20302437484407004  1.0000
  H   H463      1.0  0.055992371389178376  0.49074972255985877  0.22074739915252348  1.0000
  H   H464      1.0  0.07302309054585727  0.4566465157050021  0.19181236186619366  1.0000
  H   H465      1.0  0.08270240123850327  0.4568920608961168  0.23989156031210185  1.0000
  H   H466      1.0  0.03504092703147976  0.44397191208877806  0.284757642718826  1.0000
  H   H467      1.0  0.9902917776014216  0.4355542873852522  0.2690730007534812  1.0000
  H   H468      1.0  0.008383930911606052  0.4783571211432884  0.26589731744163236  1.0000
  N   N24       1.0  0.16069295826956886  0.773457982858987  0.6319961544631695  1.0000
  C   C381      1.0  0.12790433271486198  0.7527106703980415  0.636861604955203  1.0000
  C   C382      1.0  0.1914900974034585  0.754914946267684  0.6480874070983536  1.0000
  C   C383      1.0  0.15635982937413254  0.8071825130101541  0.6506711127935988  1.0000
  C   C384      1.0  0.16702961579279513  0.7790114542500685  0.5924574090862125  1.0000
  H   H469      1.0  0.12318066163107029  0.7468444954083251  0.6662928095352179  1.0000
  H   H470      1.0  0.12961188843834281  0.7276149293377132  0.6219953216471938  1.0000
  H   H471      1.0  0.10376100380424441  0.7666553606704963  0.6267875975674071  1.0000
  H   H472      1.0  0.21673487100501396  0.7697158127421864  0.6446884390907399  1.0000
  H   H473      1.0  0.18776564173701987  0.7506930126043246  0.678043871514506  1.0000
  H   H474      1.0  0.1953753754617677  0.729135735508285  0.6350801442569007  1.0000
  H   H475      1.0  0.15185773665973804  0.8039425325862929  0.6806342467528895  1.0000
  H   H476      1.0  0.13302585565073458  0.8217198029155106  0.6397199137766022  1.0000
  H   H477      1.0  0.18049911607058433  0.823686067355692  0.6474120696819224  1.0000
  H   H478      1.0  0.19176199964539428  0.794314894426798  0.5876831713898288  1.0000
  H   H479      1.0  0.1444816819163345  0.793283900538175  0.5794454021252166  1.0000
  H   H480      1.0  0.17016189816048605  0.7541662915928623  0.5773301891208125  1.0000
  N   N25       1.0  0.8620940788660848  0.2820375167576085  0.3217891601358398  1.0000
  C   C385      1.0  0.8599661914108335  0.2895736807649873  0.3615255541909286  1.0000
  C   C386      1.0  0.8988899994139695  0.28874914110537936  0.30888130316175993  1.0000
  C   C387      1.0  0.8365692178142494  0.30427274897071477  0.30179513618851533  1.0000
  C   C388      1.0  0.8530233983930848  0.2454200119581517  0.3149966718088674  1.0000
  H   H481      1.0  0.8327881736810487  0.28426615422474677  0.37250981035792763  1.0000
  H   H482      1.0  0.8664948393482357  0.31707274145736875  0.3676582287249946  1.0000
  H   H483      1.0  0.8792108914042096  0.2734719237254484  0.37730057440713816  1.0000
  H   H484      1.0  0.9014452895836111  0.28421750859677636  0.278834943518729  1.0000
  H   H485      1.0  0.9070296407917566  0.31585946479958027  0.31448654659185477  1.0000
  H   H486      1.0  0.9186737388504786  0.27181736025666564  0.323017910598036  1.0000
  H   H487      1.0  0.8375891079936727  0.2994291370945197  0.27167934906828045  1.0000
  H   H488      1.0  0.8423413204740978  0.3320954876986093  0.3063396223930261  1.0000
  H   H489      1.0  0.808569034711148  0.2995933901160162  0.31076773741235203  1.0000
  H   H490      1.0  0.8259289764324916  0.2389842366411692  0.325624459832147  1.0000
  H   H491      1.0  0.8725801319966511  0.22796437013406418  0.3285852231469842  1.0000
  H   H492      1.0  0.8531352164500005  0.2391365011597102  0.2851651969543072  1.0000
  N   N26       1.0  0.8506878370140698  0.7963205019862988  0.282650477994624  1.0000
  C   C389      1.0  0.8776383559354219  0.8138691688134061  0.25978304464913227  1.0000
  C   C390      1.0  0.843380864969132  0.8173471600518564  0.3157161091624431  1.0000
  C   C391      1.0  0.8646428491108437  0.762194563068262  0.2935981200025778  1.0000
  C   C392      1.0  0.817295803779793  0.7918502820581431  0.2614226693570877  1.0000
  H   H493      1.0  0.8837312065898157  0.7985582370905158  0.23456796903513188  1.0000
  H   H494      1.0  0.9033095713181368  0.8173656485640847  0.2749636824111298  1.0000
  H   H495      1.0  0.8681878298068658  0.8398267516653922  0.2511336185431611  1.0000
  H   H496      1.0  0.8248066243507606  0.8039471536415032  0.33474372902155797  1.0000
  H   H497      1.0  0.8684426025728683  0.8229274623340851  0.33115486788397475  1.0000
  H   H498      1.0  0.8309319003118212  0.8425544147829547  0.30857212193001954  1.0000
  H   H499      1.0  0.8710739967735391  0.7459607241166454  0.26920888245954505  1.0000
  H   H500      1.0  0.844987183321958  0.7476782001785619  0.3104326356310897  1.0000
  H   H501      1.0  0.8896364975924589  0.7647233817614069  0.3100291488477286  1.0000
  H   H502      1.0  0.8220688369349493  0.7765173162054302  0.2360333266235198  1.0000
  H   H503      1.0  0.8057729815858915  0.8170802675951604  0.2529712160767444  1.0000
  H   H504      1.0  0.7965171754123065  0.7781046483048562  0.2775844488787071  1.0000
  N   N27       1.0  0.9988743718845459  0.6168779200557897  0.8295140404701479  1.0000
  C   C393      1.0  0.018641119556970898  0.6016064436652394  0.8605875770519223  1.0000
  C   C394      1.0  0.9602807126454193  0.6184663967453908  0.8382077360827132  1.0000
  C   C395      1.0  0.0042371240411360755  0.5954008906743513  0.7963629542312187  1.0000
  C   C396      1.0  0.012451699184707898  0.6520694363688525  0.8228807563492004  1.0000
  H   H505      1.0  0.047970398202257014  0.6011924393903578  0.8553210013782349  1.0000
  H   H506      1.0  0.009924370732809606  0.5745918532837889  0.8657443081675046  1.0000
  H   H507      1.0  0.014287591106037167  0.6167664815750707  0.8862580260871127  1.0000
  H   H508      1.0  0.944802749307105  0.6312497560124684  0.8159751197491382  1.0000
  H   H509      1.0  0.9488475452904943  0.5921911575784398  0.8420725494498086  1.0000
  H   H510      1.0  0.9552852085704072  0.6334357869730234  0.863854791871778  1.0000
  H   H511      1.0  0.03305544182450437  0.5938314759086266  0.7888839145540417  1.0000
  H   H512      1.0  0.9895363943335957  0.6062441125414768  0.7724636413726169  1.0000
  H   H513      1.0  0.9943928972403042  0.5685664207899155  0.800668521947286  1.0000
  H   H514      1.0  0.009194455140685953  0.6688145406887773  0.8476128140342178  1.0000
  H   H515      1.0  0.9981196223750173  0.6646556477202465  0.7997681517320825  1.0000
  H   H516      1.0  0.04145740978158874  0.6518608385941654  0.8160024519957321  1.0000
  N   N28       1.0  0.3058080230473206  0.47196019272528245  0.7829026510237256  1.0000
  C   C397      1.0  0.32916419014639037  0.441143822287422  0.7835351174725502  1.0000
  C   C398      1.0  0.32491013904204297  0.5015368814340153  0.7995371454369629  1.0000
  C   C399      1.0  0.2727844176631066  0.4650963277156296  0.803850367621091  1.0000
  C   C400      1.0  0.2962615988228557  0.48012038986313776  0.744571306518768  1.0000
  H   H517      1.0  0.31625560080655346  0.41883751940321606  0.7694786174593662  1.0000
  H   H518      1.0  0.3354445579164952  0.4331768822788508  0.8121193403329745  1.0000
  H   H519      1.0  0.35496497423554557  0.445886988419164  0.7693097386736701  1.0000
  H   H520      1.0  0.33071238151200205  0.4970682697357422  0.8291222813717772  1.0000
  H   H521      1.0  0.3508067724994661  0.5065102991739664  0.785599674383453  1.0000
  H   H522      1.0  0.30877168115780534  0.5256051809327001  0.7975536862776801  1.0000
  H   H523      1.0  0.2787820040296791  0.4584972426168832  0.8329049886206925  1.0000
  H   H524      1.0  0.25756824671321565  0.4431403830748602  0.7918030329119234  1.0000
  H   H525      1.0  0.25474762998878625  0.4880281439498247  0.8040933624702662  1.0000
  H   H526      1.0  0.27839186016279455  0.5031582434836465  0.7431863531182974  1.0000
  H   H527      1.0  0.2819166451393205  0.45816091036012807  0.7312245032467218  1.0000
  H   H528      1.0  0.3204701960757994  0.4856628191765486  0.7279276707871967  1.0000
  N   N29       1.0  0.8472097743732728  0.8541739921787257  0.002511054454189532  1.0000
  C   C401      1.0  0.8759127615158505  0.8767065051997438  0.016878108893151778  1.0000
  C   C402      1.0  0.8576598784655954  0.81763246661865  0.007157554093716767  1.0000
  C   C403      1.0  0.8416545617413018  0.8612618524297874  0.9631269443860786  1.0000
  C   C404      1.0  0.8137744863832441  0.8611384740198564  0.022941331286026267  1.0000
  H   H529      1.0  0.8691105395412307  0.9044796096417512  0.013204899455738106  1.0000
  H   H530      1.0  0.9017143404134415  0.8717489776261689  0.002560225001749794  1.0000
  H   H531      1.0  0.8804787365494459  0.8722756304928985  0.04666230299101448  1.0000
  H   H532      1.0  0.8361419751161722  0.7998053113871259  0.997728478365756  1.0000
  H   H533      1.0  0.8821611703481365  0.8110379016763114  0.9912974159400856  1.0000
  H   H534      1.0  0.8632303416460116  0.8115478279101511  0.036398428696506224  1.0000
  H   H535      1.0  0.8669413501488397  0.8587044371283374  0.9473220419502786  1.0000
  H   H536      1.0  0.8307657747438233  0.8877038299093944  0.9586195729118735  1.0000
  H   H537      1.0  0.8222380827822694  0.8428723894326171  0.9507972938731687  1.0000
  H   H538      1.0  0.7912065225843851  0.8452778877625219  0.012518016881244876  1.0000
  H   H539      1.0  0.8052316902730985  0.8885545218564959  0.020337296624286516  1.0000
  H   H540      1.0  0.8167209695034574  0.8551687565773232  0.05260401714620522  1.0000
  N   N30       1.0  0.08436528441774042  0.8908337670909955  0.7461330904494662  1.0000
  C   C405      1.0  0.09522934479822388  0.8892993015897726  0.707199859409417  1.0000
  C   C406      1.0  0.10854289793682176  0.8688642723078744  0.7681344396597719  1.0000
  C   C407      1.0  0.04717083318229265  0.8783642393037817  0.7498029377009249  1.0000
  C   C408      1.0  0.08664003954259097  0.9268918052231263  0.7593913434262489  1.0000
  H   H541      1.0  0.07726949906826036  0.9050940139509202  0.6896313573416154  1.0000
  H   H542      1.0  0.09454320830919687  0.8623844254082427  0.6964634528158131  1.0000
  H   H543      1.0  0.1230733479422227  0.8988386191740054  0.7034608240202731  1.0000
  H   H544      1.0  0.10074064357322089  0.8686725048524926  0.7975305025890316  1.0000
  H   H545      1.0  0.10827644002081235  0.8416154148976548  0.7582636899183951  1.0000
  H   H546      1.0  0.1367488538675643  0.8779005149059274  0.7664633255207776  1.0000
  H   H547      1.0  0.03792409311218625  0.8794477422217453  0.7787593532234228  1.0000
  H   H548      1.0  0.044708872933943766  0.8510781614077353  0.7405430355750188  1.0000
  H   H549      1.0  0.02812043132855857  0.8939326075032884  0.7331333344838726  1.0000
  H   H550      1.0  0.11438890637805925  0.9370784358327139  0.7568051139567359  1.0000
  H   H551      1.0  0.0788416515077896  0.9290129403921357  0.7887521435344598  1.0000
  H   H552      1.0  0.06864247045753752  0.9441546601576102  0.7434372770696293  1.0000
  N   N31       1.0  0.5011734422096638  0.3343726902934688  0.9559290122300119  1.0000
  C   C409      1.0  0.5048069406737334  0.31349487189866604  0.9895318223452158  1.0000
  C   C410      1.0  0.535184323496224  0.3525154256401777  0.9488289873784279  1.0000
  C   C411      1.0  0.4720469491890634  0.3598873454167923  0.9607669210063279  1.0000
  C   C412      1.0  0.4927778893788139  0.3115210331418698  0.9244860474558514  1.0000
  H   H553      1.0  0.5268333362633965  0.29424280369504713  0.9869137263067703  1.0000
  H   H554      1.0  0.47979998614160924  0.2992106655198241  0.9955674945606502  1.0000
  H   H555      1.0  0.5106412492319659  0.3299033661693941  0.013989862505070949  1.0000
  H   H556      1.0  0.5422796756660315  0.3701849497740617  0.971862514624303  1.0000
  H   H557      1.0  0.557722513212753  0.33384841520768  0.9452901741725361  1.0000
  H   H558      1.0  0.5335430906051764  0.3681466480539444  0.9233595393104217  1.0000
  H   H559      1.0  0.47660725636047274  0.37673831626567356  0.9851408123643486  1.0000
  H   H560      1.0  0.4457346087267343  0.3470471380858381  0.9644905640530098  1.0000
  H   H561      1.0  0.4692843330426523  0.3768414738623671  0.9363558219651229  1.0000
  H   H562      1.0  0.4874636497970734  0.32664133177692156  0.8991570336676691  1.0000
  H   H563      1.0  0.4685948025889044  0.2956737417473067  0.9298417582055633  1.0000
  H   H564      1.0  0.5152952049109811  0.2935236545830782  0.9184038832000174  1.0000
  N   N32       1.0  0.4777743855554759  0.7987460920382201  0.15108320334574013  1.0000
  C   C413      1.0  0.4419232781330364  0.7890194988769805  0.13735894795905937  1.0000
  C   C414      1.0  0.49031881420775913  0.7726509966103196  0.17760723812632565  1.0000
  C   C415      1.0  0.47582625716171134  0.832918916984005  0.16926399611563087  1.0000
  C   C416      1.0  0.5030791992183257  0.8004319967630571  0.12006062685745002  1.0000
  H   H565      1.0  0.43148368918267815  0.8083729830571255  0.11760459452129722  1.0000
  H   H566      1.0  0.42231736679321097  0.7870657277423012  0.16016501342838305  1.0000
  H   H567      1.0  0.4423772576874186  0.7635111149852896  0.12313372052366359  1.0000
  H   H568      1.0  0.5177142587575717  0.7785523496067545  0.18774757451554458  1.0000
  H   H569      1.0  0.47265449282003574  0.7715681966619198  0.2020159610742971  1.0000
  H   H570      1.0  0.4908901826215507  0.7463391124383901  0.16524581389738666  1.0000
  H   H571      1.0  0.5024490394815659  0.8410480791076275  0.1799690705607372  1.0000
  H   H572      1.0  0.45703015019831034  0.8326733603701767  0.1928372248565894  1.0000
  H   H573      1.0  0.46643795021905693  0.8532412617041141  0.1500686170920734  1.0000
  H   H574      1.0  0.530353192301431  0.8079743590718911  0.12957808590551098  1.0000
  H   H575      1.0  0.4943384126123978  0.8197558350047508  0.099391870251904  1.0000
  H   H576      1.0  0.5054756791133568  0.77502592926155  0.10588069597975283  1.0000
  N   N33       1.0  0.8622906631985867  0.6344297173025067  0.10357177353364204  1.0000
  C   C417      1.0  0.8884015523347523  0.6629608680662051  0.10628434662402642  1.0000
  C   C418      1.0  0.8812872954679009  0.6017475589676893  0.0955321842352616  1.0000
  C   C419      1.0  0.836664035855111  0.6417717795400293  0.07375560654205353  1.0000
  C   C420      1.0  0.8427652870657036  0.631355248928952  0.13858370065738784  1.0000
  H   H577      1.0  0.8749719177076228  0.6878582360040468  0.11328889612724387  1.0000
  H   H578      1.0  0.9027968649732716  0.6669244139309021  0.07996900812204467  1.0000
  H   H579      1.0  0.9086215414237031  0.6581769597676359  0.12812262729174972  1.0000
  H   H580      1.0  0.8959476349839959  0.6031686865723442  0.06900573079062983  1.0000
  H   H581      1.0  0.9010311411788726  0.5955481862590466  0.11742942643296812  1.0000
  H   H582      1.0  0.8623149467754572  0.5796780857713086  0.09338429529425989  1.0000
  H   H583      1.0  0.8159787256715786  0.6212676739570746  0.07128817081214192  1.0000
  H   H584      1.0  0.8505733332449018  0.643171158813493  0.04692668288424318  1.0000
  H   H585      1.0  0.8228139911154895  0.6669685627645989  0.07819409772639836  1.0000
  H   H586      1.0  0.8614466136225445  0.6268513338901138  0.16190349461431738  1.0000
  H   H587      1.0  0.8232552461570913  0.6097153418084914  0.13784277414741292  1.0000
  H   H588      1.0  0.8276824641259827  0.6554423987986802  0.14502459175500595  1.0000
  N   N34       1.0  0.997246250123601  0.328633540227089  0.6616421225756618  1.0000
  C   C421      1.0  0.9593871389485233  0.33287204008264093  0.6507319296852137  1.0000
  C   C422      1.0  0.010728799474920336  0.3616072219552068  0.6768692336521626  1.0000
  C   C423      1.0  0.018847261542121574  0.3185726066350348  0.6293881147667859  1.0000
  C   C424      1.0  2.8280013714354624e-05  0.3014970970130648  0.6897773161966152  1.0000
  H   H589      1.0  0.948157183681368  0.3084381502376572  0.6394537603985169  1.0000
  H   H590      1.0  0.9563400970809474  0.35268359653267695  0.6289609776991548  1.0000
  H   H591      1.0  0.9425015070077234  0.3407904946001304  0.6744738605395811  1.0000
  H   H592      1.0  0.03917500469708113  0.3593206298644973  0.685650525461462  1.0000
  H   H593      1.0  0.009117342146060636  0.38266369180432674  0.6563297175174887  1.0000
  H   H594      1.0  0.9950623498610482  0.36986907620639053  0.7013916575529957  1.0000
  H   H595      1.0  0.010291100696768307  0.2931084662082958  0.61815604987838  1.0000
  H   H596      1.0  0.047771510423681995  0.31651136256740775  0.6364867329994918  1.0000
  H   H597      1.0  0.016033212956890086  0.33757410980983094  0.6067806115756462  1.0000
  H   H598      1.0  0.028335517877405625  0.29598884998872854  0.6969487536922534  1.0000
  H   H599      1.0  0.9877756281446025  0.27679845433464223  0.6803749374480466  1.0000
  H   H600      1.0  0.9863384579744247  0.30950917837683806  0.7154268360719894  1.0000
  N   N35       1.0  0.08245679598128342  0.21765907677870802  0.7641593703663643  1.0000
  C   C425      1.0  0.06138460069166407  0.24618733584268304  0.7804343800297626  1.0000
  C   C426      1.0  0.058065595085463606  0.19321741039183704  0.7454620911990437  1.0000
  C   C427      1.0  0.10235499771739653  0.19956697573120039  0.79338002221836  1.0000
  C   C428      1.0  0.10806375014810943  0.2317392713150394  0.7373598070925279  1.0000
  H   H601      1.0  0.07885755118261684  0.265305349768498  0.7946627952856071  1.0000
  H   H602      1.0  0.04180710276818966  0.2364234022761492  0.8008082294297093  1.0000
  H   H603      1.0  0.04601027178806927  0.2604206578893518  0.7591209337868734  1.0000
  H   H604      1.0  0.03795813251755664  0.18244748777738418  0.7647770118186268  1.0000
  H   H605      1.0  0.04268173037759948  0.20612795274424422  0.7232125521828242  1.0000
  H   H606      1.0  0.07294190177217152  0.17122763024180723  0.7329410222041562  1.0000
  H   H607      1.0  0.08386500515401196  0.18845814287775942  0.8140705672044295  1.0000
  H   H608      1.0  0.12090448910561102  0.21744640368333776  0.8080138062896511  1.0000
  H   H609      1.0  0.11884072337047868  0.17806912444060327  0.78196529716761  1.0000
  H   H610      1.0  0.09397557980536853  0.24493417023966585  0.7144541036073372  1.0000
  H   H611      1.0  0.12530371462980017  0.21112860920653057  0.7252663073634371  1.0000
  H   H612      1.0  0.12610893722939576  0.25111361162971074  0.750352010939783  1.0000
  N   N36       1.0  0.19515980375039757  0.376586478371488  0.4965409035058913  1.0000
  C   C429      1.0  0.16089811507810478  0.3580826476177721  0.500972143470473  1.0000
  C   C430      1.0  0.22382670550724576  0.3516097505272928  0.48755334749341334  1.0000
  C   C431      1.0  0.20427558828813686  0.3946458664677274  0.5311188127574009  1.0000
  C   C432      1.0  0.19171609978947207  0.40197978288647385  0.46662367742446414  1.0000
  H   H613      1.0  0.13894305380602456  0.37597944977741327  0.5090867769946097  1.0000
  H   H614      1.0  0.16294284987512037  0.33783588859099994  0.5224440478452023  1.0000
  H   H615      1.0  0.15249926133042563  0.34534089583987837  0.4749632697582149  1.0000
  H   H616      1.0  0.24936089753951846  0.3649507792575795  0.48085373638982376  1.0000
  H   H617      1.0  0.2293791459270277  0.3340637089964068  0.5109545995134038  1.0000
  H   H618      1.0  0.2166021013193861  0.33532537014378605  0.4634590769171733  1.0000
  H   H619      1.0  0.23038530304487614  0.4082596116675383  0.5289079167744503  1.0000
  H   H620      1.0  0.20649841720849912  0.3761398488211131  0.5543482408588735  1.0000
  H   H621      1.0  0.18356893972451122  0.4140957728307746  0.5385900430074246  1.0000
  H   H622      1.0  0.18608490628228175  0.38910380511598736  0.4398641922789056  1.0000
  H   H623      1.0  0.21684033487826776  0.4170039726277377  0.4630235005373894  1.0000
  H   H624      1.0  0.16969978674449623  0.42069798818518117  0.47189854678978294  1.0000
  N   N37       1.0  0.7439076183344406  0.37955013784975233  0.03089085251173307  1.0000
  C   C433      1.0  0.7275491280141615  0.3763802298549412  0.9941196922908221  1.0000
  C   C434      1.0  0.7240574262287331  0.35770061457955704  0.056943272959006475  1.0000
  C   C435      1.0  0.7425968419283244  0.4159386452961164  0.04320646062734035  1.0000
  C   C436      1.0  0.7815366591273702  0.3679982887900742  0.029211142465823015  1.0000
  H   H625      1.0  0.7419828394350927  0.39215405569789513  0.9734526929909595  1.0000
  H   H626      1.0  0.699059743566969  0.3846745606389324  0.9940914910216403  1.0000
  H   H627      1.0  0.7283074191556368  0.34917095040651736  0.9841467750610757  1.0000
  H   H628      1.0  0.73641081568472  0.3584751316382088  0.08475066440054779  1.0000
  H   H629      1.0  0.6956977832538104  0.3660621215361148  0.05955770657808812  1.0000
  H   H630      1.0  0.7238238854575543  0.33020290953741044  0.047742646118306586  1.0000
  H   H631      1.0  0.7546976930558612  0.4190906250548496  0.07096523441320368  1.0000
  H   H632      1.0  0.7145693438601883  0.42558689488878776  0.044649616286619453  1.0000
  H   H633      1.0  0.7574982952641961  0.43298290752329943  0.024098806630029612  1.0000
  H   H634      1.0  0.7951628302026225  0.37061821009233104  0.0562258442984116  1.0000
  H   H635      1.0  0.7971319331980656  0.3829483769508431  0.008811765578732755  1.0000
  H   H636      1.0  0.7833895178430551  0.3403536235982514  0.021049788932287372  1.0000
  N   N38       1.0  0.312637242350911  0.7818291391638288  0.3120752578889171  1.0000
  C   C437      1.0  0.34502761368468904  0.8033257334728979  0.31633180023567414  1.0000
  C   C438      1.0  0.31539555557589205  0.751450517680715  0.33624679696296955  1.0000
  C   C439      1.0  0.30936604178065213  0.770183498513962  0.27355258601745874  1.0000
  C   C440      1.0  0.2807213784255863  0.8022878369753768  0.3222236357072268  1.0000
  H   H637      1.0  0.3481590939208139  0.8128125319348389  0.3450269158430193  1.0000
  H   H638      1.0  0.3439903896981525  0.8263799564987677  0.2982992517431617  1.0000
  H   H639      1.0  0.3696342005777438  0.7885784881113533  0.3091002409083368  1.0000
  H   H640      1.0  0.3177917589779866  0.75929101513566  0.36554856153096793  1.0000
  H   H641      1.0  0.29126678489496244  0.7347985578966023  0.33393761164800123  1.0000
  H   H642      1.0  0.3390257782456844  0.7352173238957815  0.32913088209475655  1.0000
  H   H643      1.0  0.285139564777331  0.7539693533974581  0.26940858464425943  1.0000
  H   H644      1.0  0.33297183899539695  0.7545381336061155  0.26496082485106853  1.0000
  H   H645      1.0  0.30715103343973044  0.7924488519466217  0.2545551527936883  1.0000
  H   H646      1.0  0.2558516384495028  0.7867080872941927  0.31958635781311767  1.0000
  H   H647      1.0  0.27758587685588965  0.8254228113617192  0.3045246763127032  1.0000
  H   H648      1.0  0.28230441597404005  0.8116702698498417  0.35107238454677675  1.0000
  N   N39       1.0  0.4959126294841544  0.1495377801376541  0.38057969193601643  1.0000
  C   C441      1.0  0.4639657989615438  0.13942329328245814  0.4017901026776622  1.0000
  C   C442      1.0  0.5014527730851583  0.18721105278650438  0.3839193987385046  1.0000
  C   C443      1.0  0.4907672358987457  0.14025471993873478  0.341569274672999  1.0000
  C   C444      1.0  0.5275799752770307  0.13117529065299474  0.39500122197431303  1.0000
  H   H649      1.0  0.439523044895301  0.15263037470457097  0.39164085339415783  1.0000
  H   H650      1.0  0.4667001805576784  0.14639702322966303  0.43128892659616813  1.0000
  H   H651      1.0  0.45898419708027044  0.11113107224516078  0.39991117467069326  1.0000
  H   H652      1.0  0.5257193113835129  0.19562288795550806  0.36873755110133916  1.0000
  H   H653      1.0  0.47827054637457367  0.20182674064063905  0.3727181077981918  1.0000
  H   H654      1.0  0.5047081593269858  0.19531265074607942  0.4130416366022036  1.0000
  H   H655      1.0  0.5146524116532933  0.14691637426511356  0.3249495092530842  1.0000
  H   H656      1.0  0.4675201889240552  0.15413170659539477  0.32955108476461537  1.0000
  H   H657      1.0  0.48575444860256073  0.11213621744557513  0.33803435226847406  1.0000
  H   H658      1.0  0.5522008653283109  0.13824904197461543  0.3796162850173112  1.0000
  H   H659      1.0  0.5241047798085213  0.10268256995438545  0.39287026897750843  1.0000
  H   H660      1.0  0.5323769339665952  0.1377595823961103  0.42433752389494994  1.0000
  N   N40       1.0  0.31393062371479036  0.2882810396706765  0.2963727059256102  1.0000
  C   C445      1.0  0.32646756640492713  0.26823711676793305  0.3282998285835923  1.0000
  C   C446      1.0  0.2987414521944304  0.3215954651709033  0.3088990185883696  1.0000
  C   C447      1.0  0.28603426105490126  0.26845629029504126  0.276719281034338  1.0000
  C   C448      1.0  0.3443252277625049  0.2947223677373023  0.2714639467588851  1.0000
  H   H661      1.0  0.3039945300089157  0.2618218886243712  0.34699795091105784  1.0000
  H   H662      1.0  0.3467961903189526  0.2827007947674304  0.34456933055610034  1.0000
  H   H663      1.0  0.3388782300557999  0.2433356473112059  0.319646920265457  1.0000
  H   H664      1.0  0.2755176760796768  0.31768703277399907  0.3274185981926811  1.0000
  H   H665      1.0  0.3188415348383921  0.3373261866465559  0.32409840533187667  1.0000
  H   H666      1.0  0.28903810892836634  0.3373296561740444  0.2854027411866181  1.0000
  H   H667      1.0  0.2757828807856468  0.2829243525065115  0.25255450109007865  1.0000
  H   H668      1.0  0.2627930465250382  0.2630176543140239  0.2949120723455803  1.0000
  H   H669      1.0  0.2965646294204113  0.2431965432752255  0.2667251527327714  1.0000
  H   H670      1.0  0.3357205047560182  0.3095270508067621  0.24692749904448236  1.0000
  H   H671      1.0  0.35650765623881653  0.27014129777080476  0.26149658384053887  1.0000
  H   H672      1.0  0.36579119324469794  0.3098860756202522  0.2853035749185782  1.0000
  N   N41       1.0  0.30396857425519813  0.9853906966680546  0.31862137172727  1.0000
  C   C449      1.0  0.31389263325747835  0.9534698536616178  0.29868586984522427  1.0000
  C   C450      1.0  0.306390006024254  0.9795451158110461  0.3585798042703711  1.0000
  C   C451      1.0  0.2668453831072269  0.9951061323553794  0.3091567232069453  1.0000
  C   C452      1.0  0.328523787362555  0.013485271301650448  0.3080872543946986  1.0000
  H   H673      1.0  0.294874473570969  0.9322152444851816  0.3046933667729478  1.0000
  H   H674      1.0  0.3412203254644407  0.9445199288342395  0.3063454002485785  1.0000
  H   H675      1.0  0.31375176481557376  0.9572633228967166  0.2684949238164154  1.0000
  H   H676      1.0  0.28758406525471375  0.9590153628526253  0.3675216816399252  1.0000
  H   H677      1.0  0.33374151472095537  0.9713895408346925  0.36694686330120974  1.0000
  H   H678      1.0  0.29971506597546904  0.003414339039139014  0.37434945238866096  1.0000
  H   H679      1.0  0.26389600772887956  0.9999351734905895  0.2792821086014628  1.0000
  H   H680      1.0  0.25849495603528244  0.018996996240599806  0.32408111078843754  1.0000
  H   H681      1.0  0.24770413318712348  0.9742848678744277  0.31673014397303567  1.0000
  H   H682      1.0  0.32008480201440553  0.038521869575900425  0.32036502269625616  1.0000
  H   H683      1.0  0.32922390907561266  0.01705170994489591  0.27788084815199493  1.0000
  H   H684      1.0  0.3563798796115504  0.008257822027522232  0.3174451364003579  1.0000
  N   N42       1.0  0.8019173270941247  0.2243023722029572  0.6000061696844238  1.0000
  C   C453      1.0  0.7697942614600217  0.24657029699962646  0.6011843060382772  1.0000
  C   C454      1.0  0.7974529560431407  0.19541236025451458  0.6259035530532518  1.0000
  C   C455      1.0  0.833674204951056  0.24479549355086197  0.6105571884700834  1.0000
  C   C456      1.0  0.8067831510245932  0.21046536845339497  0.5624623590167733  1.0000
  H   H685      1.0  0.7453296862772969  0.2319394025782366  0.593265090292683  1.0000
  H   H686      1.0  0.7723117710384548  0.2687602248217483  0.5821076280941846  1.0000
  H   H687      1.0  0.7653283230342031  0.2571947129460389  0.6292750282866985  1.0000
  H   H688      1.0  0.8211088867079925  0.17795740512539088  0.62555435378596  1.0000
  H   H689      1.0  0.7941456646297441  0.20485561947312042  0.6546212458660319  1.0000
  H   H690      1.0  0.7736359098517767  0.17946068571124932  0.619006242835676  1.0000
  H   H691      1.0  0.8583095053522374  0.2287159875383313  0.6100022123534227  1.0000
  H   H692      1.0  0.8310728720661896  0.2554985967514495  0.6388328962026539  1.0000
  H   H693      1.0  0.8381556580311318  0.2666873923011995  0.5914867764598918  1.0000
  H   H694      1.0  0.8304726151451823  0.19305337900052555  0.5608718244614764  1.0000
  H   H695      1.0  0.811072598762621  0.23151729418106287  0.5423185611128012  1.0000
  H   H696      1.0  0.7831500815864388  0.19525551710626607  0.5532426452231136  1.0000
  N   N43       1.0  0.35895724890922187  0.8985643224854161  0.5547719584464716  1.0000
  C   C457      1.0  0.37290490125965614  0.9012284888876094  0.5926516694602322  1.0000
  C   C458      1.0  0.35374173387478175  0.9336206630557731  0.5397989817152107  1.0000
  C   C459      1.0  0.32442056965979404  0.8800421857872279  0.5549898577766683  1.0000
  C   C460      1.0  0.384710852028695  0.8793514495395012  0.5316659931493352  1.0000
  H   H697      1.0  0.3542573760273933  0.9159489270796003  0.6106981414622115  1.0000
  H   H698      1.0  0.3991670163282021  0.9146715905877354  0.593581277901571  1.0000
  H   H699      1.0  0.37654279650456035  0.8753671672406805  0.605304196840914  1.0000
  H   H700      1.0  0.342759455885382  0.9327671186140477  0.51144097393259  1.0000
  H   H701      1.0  0.33465585312264  0.9489428082674014  0.5567504571511717  1.0000
  H   H702      1.0  0.379344525604056  0.9481620202510755  0.5386925558944897  1.0000
  H   H703      1.0  0.312186081420923  0.8789193044797875  0.5271482240628174  1.0000
  H   H704      1.0  0.3047800565636445  0.8931683513087552  0.5731065784421129  1.0000
  H   H705      1.0  0.32749886689068053  0.8531457630519098  0.5650104259347344  1.0000
  H   H706      1.0  0.3740289321077169  0.875308751342216  0.5034727598597757  1.0000
  H   H707      1.0  0.3907396612530501  0.8534506929597819  0.5431486691395649  1.0000
  H   H708      1.0  0.41041812903154795  0.8935527648838086  0.5288366085616394  1.0000
  N   N44       1.0  0.6768026191948188  0.23328428885790203  0.16673455615671098  1.0000
  C   C461      1.0  0.7110216886373978  0.21639934344197237  0.1569783304438817  1.0000
  C   C462      1.0  0.6588344579698953  0.2457783912250463  0.13320809713547543  1.0000
  C   C463      1.0  0.6837531762994074  0.2628776341866527  0.19146513798456138  1.0000
  C   C464      1.0  0.653526063226028  0.208110504073616  0.1854088514773985  1.0000
  H   H709      1.0  0.7068774831955811  0.19437158225792975  0.13773411371373845  1.0000
  H   H710      1.0  0.7250516323633279  0.2064668746169291  0.18172454045908307  1.0000
  H   H711      1.0  0.7295240500938108  0.23457604289329265  0.14320047563145188  1.0000
  H   H712      1.0  0.6320955558978528  0.2570858704389803  0.13952790236432078  1.0000
  H   H713      1.0  0.6748821717843725  0.2661697397721202  0.1196188953091153  1.0000
  H   H714      1.0  0.6550066629684771  0.22461095696021857  0.11280348311675421  1.0000
  H   H715      1.0  0.6937115403143959  0.25410340075845284  0.21852337004344247  1.0000
  H   H716      1.0  0.6590623246993429  0.2781748624179859  0.19654828352417117  1.0000
  H   H717      1.0  0.7040478712111558  0.28074095524391113  0.17990272723373765  1.0000
  H   H718      1.0  0.6660346357764704  0.1986872092798653  0.2112695672409867  1.0000
  H   H719      1.0  0.6480619874497899  0.18529799604547414  0.16763211640057796  1.0000
  H   H720      1.0  0.6273099315609274  0.21982572485094015  0.19279206154419504  1.0000
  N   N45       1.0  0.32461173015725703  0.46847512503842326  0.14867239141974883  1.0000
  C   C465      1.0  0.30307054720682675  0.5004736745015794  0.15032140138224998  1.0000
  C   C466      1.0  0.3013040647732434  0.43913209126646563  0.13856748409548444  1.0000
  C   C467      1.0  0.3410448318380511  0.4620687168077987  0.18488327011799904  1.0000
  C   C468      1.0  0.35306789165371205  0.4722573931968565  0.12091875860742402  1.0000
  H   H721      1.0  0.3200990503459301  0.5233288922195395  0.15649885111923673  1.0000
  H   H722      1.0  0.28228912168168263  0.4991008436112708  0.17212619695380588  1.0000
  H   H723      1.0  0.2892833160899698  0.5054483588961586  0.12383034821987667  1.0000
  H   H724      1.0  0.3164929106055849  0.41439154158356634  0.13793113264303847  1.0000
  H   H725      1.0  0.27898956252295526  0.4360479168954781  0.15840400681281142  1.0000
  H   H726      1.0  0.28939756452580095  0.4424611760282142  0.11082594527249214  1.0000
  H   H727      1.0  0.35755624391653695  0.43814317280972237  0.18455864438647196  1.0000
  H   H728      1.0  0.320310963799602  0.4589309805676196  0.20652923284834585  1.0000
  H   H729      1.0  0.3588477710104937  0.4836833191063839  0.19329782451357372  1.0000
  H   H730      1.0  0.3698691399119505  0.4485454995641137  0.11907572038122921  1.0000
  H   H731      1.0  0.37099083312197745  0.49436033337251484  0.12751613073878967  1.0000
  H   H732      1.0  0.3416066014967333  0.4765594554131279  0.09311280588916401  1.0000
  N   N46       1.0  0.8927713876411519  0.45350798899486106  0.035794486876532305  1.0000
  C   C469      1.0  0.9120081183989143  0.4532971134118473  0.00042339809066183065  1.0000
  C   C470      1.0  0.9184253046729927  0.46000558362782956  0.06590205156401718  1.0000
  C   C471      1.0  0.8753490627832768  0.41966855748569654  0.04125440119433388  1.0000
  C   C472      1.0  0.8653544053079802  0.48108009950467956  0.035596856431268975  1.0000
  H   H733      1.0  0.8933075854798386  0.4492187842092851  0.9770023301634476  1.0000
  H   H734      1.0  0.9321030236752122  0.4320526739015004  0.9991236144420893  1.0000
  H   H735      1.0  0.9262155285462997  0.478084383410358  0.9956149134353953  1.0000
  H   H736      1.0  0.9390113886420398  0.4392465962328948  0.0673308774894108  1.0000
  H   H737      1.0  0.9324385174750612  0.4850734903286348  0.06229928508026017  1.0000
  H   H738      1.0  0.9046371801993516  0.46111135722171565  0.09290917492047224  1.0000
  H   H739      1.0  0.8605009549697075  0.41877331718761646  0.06762570118879263  1.0000
  H   H740      1.0  0.8952288846850451  0.39814616690132365  0.041495877144720694  1.0000
  H   H741      1.0  0.8562941432738669  0.41368686598543764  0.01866218953020371  1.0000
  H   H742      1.0  0.8452078817145797  0.476715555479769  0.013579377536914405  1.0000
  H   H743      1.0  0.8774945587241906  0.5069209513127525  0.030759269838181114  1.0000
  H   H744      1.0  0.8508297081830483  0.48248600825911725  0.062198786453318444  1.0000
  N   N47       1.0  0.7751182142826317  0.9925990131524397  0.22648735613165635  1.0000
  C   C473      1.0  0.7754893664000533  0.9735391285801316  0.19125745714988157  1.0000
  C   C474      1.0  0.7934057339629633  0.026131800326340215  0.22211939259293598  1.0000
  C   C475      1.0  0.7938909058729275  0.9720793265029307  0.25467182962243806  1.0000
  C   C476      1.0  0.7376861442067252  0.9986759355821173  0.23791012840515607  1.0000
  H   H745      1.0  0.7614288037984688  0.9482900580292862  0.19362570770673854  1.0000
  H   H746      1.0  0.8032931146852723  0.9680179817490653  0.18208266692217065  1.0000
  H   H747      1.0  0.7618029648454134  0.9883358646665156  0.16923562291404343  1.0000
  H   H748      1.0  0.7938782680093942  0.0409138146747976  0.24838253404871966  1.0000
  H   H749      1.0  0.8216655044243746  0.022618483228677322  0.21326771203653047  1.0000
  H   H750      1.0  0.7797221950817829  0.04252622727545319  0.20139971939676243  1.0000
  H   H751      1.0  0.7821314800544021  0.9458997255877527  0.2573361324698699  1.0000
  H   H752      1.0  0.792089915394674  0.984519639303527  0.2820683279601783  1.0000
  H   H753      1.0  0.8227532898675025  0.9687269498830791  0.2481784684338997  1.0000
  H   H754      1.0  0.7363186358514073  0.01355329655456572  0.26398996634405025  1.0000
  H   H755      1.0  0.7232797761599348  0.9739927659334041  0.24248464723586194  1.0000
  H   H756      1.0  0.7224949974898833  0.013425814161133642  0.21693853152534287  1.0000
  N   N48       1.0  0.4947592759171853  0.009293814764347541  0.8277390715830675  1.0000
  C   C477      1.0  0.49722872353396974  0.045293625522275116  0.8410173397080032  1.0000
  C   C478      1.0  0.46147862281356167  0.004989996068053282  0.8061938267672711  1.0000
  C   C479      1.0  0.4943430972817366  0.9856837049539475  0.8594050650292417  1.0000
  C   C480      1.0  0.5260155478517751  0.0013050049759339988  0.8043800084277078  1.0000
  H   H757      1.0  0.49835960614648833  0.06377765316351347  0.8177929026980738  1.0000
  H   H758      1.0  0.5217593322751871  0.04960683703280244  0.8577867277667095  1.0000
  H   H759      1.0  0.4737468107871535  0.05251886050985588  0.8581613187756663  1.0000
  H   H760      1.0  0.4590491444484073  0.9782698891381488  0.7950883778764637  1.0000
  H   H761      1.0  0.4372318908687158  0.009924690839511419  0.823250053268524  1.0000
  H   H762      1.0  0.46039105937479474  0.02306532605816103  0.7826217383008479  1.0000
  H   H763      1.0  0.4706335176536403  0.990462522242604  0.8771195133876134  1.0000
  H   H764      1.0  0.5187554614110345  0.9886729691183889  0.8766592055530338  1.0000
  H   H765      1.0  0.49307118101801606  0.9582050903832916  0.8503108306180913  1.0000
  H   H766      1.0  0.5249867869073316  0.9742686682980214  0.7938570764455598  1.0000
  H   H767      1.0  0.5515948647062987  0.004243027358221463  0.8198590453750031  1.0000
  H   H768      1.0  0.5272487833689494  0.01875384482743825  0.7802819479769526  1.0000
