data_image0
_chemical_formula_structural       NCFeS2FeS2FeSFeS3FeS2FeS2FeHFeS4H2FeH3C6H4CHC2HCH4C6H4C6H6C4H4C4H4SH3NSHCHCH3FeC2HC2H3CHNH5SH4NHCH3C3H6CHCSCH2CH6NC2SCH7C2H4CNSH3CHC2HSH2NC2HCHC2HCHCH7SCHCHCH4FeS2FeS2FeSFeS3FeS2FeS2FeCFeS4CH3CHC6H4C2FeH2CH4C3HC2H2CHC6H6C4H4C3NCH11C2SH2CH2SHNC4H2CH9NH2SCH5C2H2CH2NH3CH3FeH2CHCH2CNHCHCHS2H2SHC2NC4H5CH2CH4S2CH3FeS2HSHFeSHFeSCSFe2SHFeSHFeSFeS4HFeS2FeSFeSHCHCHS2H4SH2S3HCHFeH3C2SCSCHCFeH4CH3C2HCHCHCHC7H4C7NH2SHNC3SCH2C3H2C3H2C6H2CH10CFeH2FeH3NC4H12NC4H12C3SHCH2NH3C2HC2HCH2NH4SC2HSFeS2HSC2SHFeSHSHFeS2FeSHFeSFeS3C2FeS2FeSFeSH2SHC2NSHCFeH7CH2Fe2HCHC2HNHCHCHNH5C2HS2CH4C6H5CHC3FeH3C4FeCH2SHC3H2C4HC6H2CN2C4H9NH6CH3SC2H3CSHC2HC2HCH5SH4FeCSHCHNCH2CHC2H3CH2CH4CH2CSHFeSFeS2CH4FeH2SCFeSHC2FeSCSFeS2FeSHFeS3CFeS2CHFeH2SHS3H2FeCHCNH2CHCH3CH2SHC3FeHNC8H4CFeHC3H2C6H2SHC5H2CHCHS2HCS2CFeC2HC6H4S2C2FeC2HCH2FeH2SCH2NC4H12CSH4CH2CHSNH2NCHCHSHNC3H2CH4CHSCH3FeHCSH2SHSHCHC2H4SHCH2CNC4H12SH2NFeCFeC3HSFeC2HCHSH3CHFeHSCH2CFeHCH3CHCH9C2H4CFeCFeS2CSH3SH2S2FeS2HSFeSHSFeS2FeSFe2SH3FeS2HCFeSCSHSCFeNH3C4NH8SNHSCFeCH2SFeC6H4C2SC3H2C2SNC2H4C4SH2C2SC5H2CNC2HC6H4SCHCH5CH2CSH2SHCHNC2HCNHC2HFeHCH7CNCH3CS2H2CHC3H3SHC2H2CH3CHCSC2H2C2H2CSFeCH3SHCHC2H8CHCHCS3CFeCHCSH2C2Fe2HSHCNC4H21CHC2HCFeH2CH3C2HFe2H2CH4FeCH3CH6CHCHCHCHCH3S2HSHCFeSC2FeS2FeS2FeHFeS3HSFeS2FeSFe2SNHSCNHSFeS2FeSNFeSFeS3CHCHSH2C2H4C6H4C6H6CH4NH2C6H4C6H10C6H4C6H10FeHCHCHNSH2CH2CSH4SH7CSH3SH3FeH2CH3CH3CH2C2H2NC2HC2H2NC4H12SHSH2C2HNHCHFeC2HC2FeH2CHNC4H13CNC4H9CH2C2NC2HCH4CSH7NCH2SH2CH5CH2CS2H2SHSFeSHSFeS2FeS2FeHFeS3HSFeS2FeSNFeSH2SC2HSFeS2FeSHFeSFeS3CHCHCNH3CH3C6H4C6H4CHC3Fe2SHC7H4C6H7FeHC7H4C6H4NH2CH3CFeHSHCHCNH2CH7CH6C2HCNC2H2CHC4H4CHNC4H12CH3C2SHCH4CSHCH4CH2CFeH3CHCH2C2H4CH2CHNH8C2H2SHCNCH4NH3CHCH3NH3SH5SH2SH4C2H3C2H9SHC2S2HCFeS2FeS2H3C2HS2FeHCFeHSHFeSCSFeS2FeS2FeSFeCS2C6H8C2H4CNC5H3C3H2C3HC7H4C2SFeSFeH2SNHCH3SC2HSH2CH4CH3CHCH6NH5CSH3C2FeNH3C3HCHCH3C2HC2HFeCNHCFeCH6CH4CFeSH4NC2SC3HCSHNCH2C2H3CHFeS2FeS2CSHFeH2FeHFeH2FeHSCFeSNSFeS2FeS2FeHFeCS2C6H8C3H5C4H6CH2C3HSC6H4C2HCHSH2CHSHSH3C2H3C4S2CSHCHC2NHSHCHC2HCHCH2FeCFeHCH2C3SHSH3Fe2HSCHCH5NH2NCH5CH10C2H4NSH2CSFeS2FeS2FeSFeCS3FeS2FeS2FeSFeS3CH2SH5C3H5C6H4C2H3SH2CHC2H2C2HCH2C6H4C6H4SFeHC2HCHCH4C2HSCHCH5CH2NC4H17CHNH2CH3CNFeHC2H2CH2CSH2C3NCHCH3SH2CHCH3NS2CH3FeS2FeS2FeSFeCS3FeS2FeS2FeSFeS3H2CH5C2H2C2H3C6H4C2SHC2HN2HC3HSCH2CHC6H4C6H7CHCH2C2H6CNH6C2H2C2SHNC3H8NC4H2NC2H3NH5C2H2SH4CH2NC2H4CHSFeCS2H4SCH4CHCH4CH2C2H4CH6CHFeCHCH2S2H2FeS2FeHFeS3H3NCFeS2FeS2FeSFeS3HSFeSHFeSFeSHSFeS2FeNCFeHFeS3CHCH3C6H4C6H4FeC2HC7H4C2FeH3CHC6H4C6H10CH2C7H6C6HNH2NHCH4SCHSHCHCH4SH2SHCH3C2NC4FeH7SH2C2H2CH4CH4N2C2HC2HCH3CH9NC3H11CHSH6CH2CH4SH3CH4CHCH3SH3C2H3CH2CSH2CH5SH2CHNHC2NSH3FeS2FeSFeS3H2NH2FeS2FeS2FeSFeS3CSFeSHFeSFeS3FeS2H3FeHFeS3CH4C7H4C6H4CNCFeH2C5H3SH2CHCH3C6H4C6H4CH2CNHCHCHC6H4CH2C3H4C3H4NHCH2CHCHCHCH3NCHCHCH4CHNC2H4CHCHCH4SH2SH3SCHCH3CHFeSH3CH6CH4SC3H4C2SCNHCHSH2SHC3H2FeH2SH5C2HNC2NHC2H2CFeHCH6CH5CH4C2HNH14NCNHFeS2C2FeSCFeS2HNH3SHSHCHC2HFeH3Fe2SFeH2SHFeS2FeSFeS5FeSFeSH3C6HC5NH4C3H3CNFeH4CH2NC6H4C6H6CH6C2H2C5H4C3H3CFeH3NCSCHSC2SHCHSCHSHC3HSH2CHCH5SHSHS2FeHC2SCFeH2SCSH2FeHSH2CSHCH2CSCHCH2CH2CNC4H13FeH4CFeNFeC2S2C3NC4H13FeH2SH6CHCHCHCHCSCSC2SNH4CHC4FeH3C2H2CH2C2H7CHC2FeS2H2FeHCS2CH2C2HSHSH2SH6CFe2SFeSCSCFeS2FeSFeS5FeSFeSHSC6H2C5H2CH2C3HSH2SH5FeH3C6H2SHC6H4C2HCHCH2SH3SHC3HNH6FeH2CH2NC2H3FeCH3NSCNC4H9NHC3H2CFeCHCSHCHC2HCH2FeH8S2H2FeHNC3H2CH5C2FeS2C2HCHSHSFeSFe2C3HCSH3CH2SHCSCHC2HSHC2H3FeCH2C3H2SH2CNCHFeHSH4C2H3CHC
_chemical_formula_sum              "N128 C1280 Fe256 S512 H2048"
_cell_length_a       62.725
_cell_length_b       62.8393
_cell_length_c       48.8584
_cell_angle_alpha    90.446
_cell_angle_beta     90.3924
_cell_angle_gamma    85.1144

_space_group_name_H-M_alt    "P 1"
_space_group_IT_number       1

loop_
  _space_group_symop_operation_xyz
  'x, y, z'

loop_
  _atom_site_type_symbol
  _atom_site_label
  _atom_site_symmetry_multiplicity
  _atom_site_fract_x
  _atom_site_fract_y
  _atom_site_fract_z
  _atom_site_occupancy
  N   N1        1.0  0.19138  0.23542  0.09226  1.0000
  C   C1        1.0  0.00321  0.31887  0.29744  1.0000
  Fe  Fe1       1.0  0.11857  0.25246  0.31976  1.0000
  S   S1        1.0  0.10036  0.22331  0.32302  1.0000
  S   S2        1.0  0.15439  0.25236  0.32013  1.0000
  Fe  Fe2       1.0  0.07854  0.28293  0.31285  1.0000
  S   S3        1.0  0.05726  0.25627  0.31607  1.0000
  S   S4        1.0  0.06778  0.31789  0.30656  1.0000
  Fe  Fe3       1.0  0.07886  0.24429  0.35075  1.0000
  S   S5        1.0  0.06349  0.23449  0.39025  1.0000
  Fe  Fe4       1.0  0.08089  0.23813  0.28808  1.0000
  S   S6        1.0  0.06738  0.22214  0.25084  1.0000
  S   S7        1.0  0.09845  0.27249  0.34960  1.0000
  S   S8        1.0  0.10079  0.26569  0.28278  1.0000
  Fe  Fe5       1.0  0.05612  0.21390  0.07426  1.0000
  S   S9        1.0  0.08270  0.18816  0.06793  1.0000
  S   S10       1.0  0.02160  0.20530  0.07688  1.0000
  Fe  Fe6       1.0  0.08814  0.24863  0.08103  1.0000
  S   S11       1.0  0.11591  0.22475  0.07375  1.0000
  S   S12       1.0  0.09945  0.28069  0.09263  1.0000
  Fe  Fe7       1.0  0.09596  0.21224  0.03972  1.0000
  H   H1        1.0  0.18382  0.21063  0.25068  1.0000
  Fe  Fe8       1.0  0.09901  0.20446  0.10265  1.0000
  S   S13       1.0  0.11606  0.19242  0.14133  1.0000
  S   S14       1.0  0.06886  0.23757  0.04524  1.0000
  S   S15       1.0  0.07167  0.22874  0.11058  1.0000
  S   S16       1.0  0.17797  0.27375  0.17598  1.0000
  H   H2        1.0  0.08060  0.16110  0.13533  1.0000
  H   H3        1.0  0.05576  0.12206  0.12008  1.0000
  Fe  Fe9       1.0  0.21176  0.28261  0.16806  1.0000
  H   H4        1.0  0.07948  0.13678  0.15413  1.0000
  H   H5        1.0  0.17019  0.22967  0.12534  1.0000
  H   H6        1.0  0.15185  0.29326  0.38386  1.0000
  C   C2        1.0  0.12188  0.27834  0.11485  1.0000
  C   C3        1.0  0.12462  0.26149  0.13345  1.0000
  C   C4        1.0  0.14185  0.26035  0.15207  1.0000
  C   C5        1.0  0.15702  0.27553  0.15154  1.0000
  C   C6        1.0  0.15460  0.29212  0.13255  1.0000
  C   C7        1.0  0.13688  0.29370  0.11455  1.0000
  H   H7        1.0  0.11320  0.24951  0.13387  1.0000
  H   H8        1.0  0.14349  0.24750  0.16676  1.0000
  H   H9        1.0  0.16602  0.30410  0.13225  1.0000
  H   H10       1.0  0.13480  0.30683  0.10031  1.0000
  C   C8        1.0  0.04037  0.32643  0.30233  1.0000
  H   H11       1.0  0.01967  0.14085  0.15750  1.0000
  C   C9        1.0  0.20827  0.21941  0.10216  1.0000
  C   C10       1.0  0.00569  0.30471  0.36465  1.0000
  H   H12       1.0  0.02806  0.26691  0.37461  1.0000
  C   C11       1.0  0.02505  0.31174  0.29876  1.0000
  H   H13       1.0  0.02032  0.33206  0.40124  1.0000
  H   H14       1.0  0.20911  0.21928  0.12494  1.0000
  H   H15       1.0  0.06901  0.25602  0.19722  1.0000
  H   H16       1.0  0.02996  0.29488  0.29727  1.0000
  C   C12       1.0  0.07772  0.22990  0.42145  1.0000
  C   C13       1.0  0.06688  0.22280  0.44429  1.0000
  C   C14       1.0  0.02563  0.27816  0.39231  1.0000
  C   C15       1.0  0.20188  0.25716  0.27339  1.0000
  C   C16       1.0  0.11021  0.22904  0.44911  1.0000
  C   C17       1.0  0.09943  0.23321  0.42404  1.0000
  H   H17       1.0  0.05007  0.22029  0.44254  1.0000
  H   H18       1.0  0.03153  0.13707  0.10966  1.0000
  H   H19       1.0  0.06925  0.21255  0.48648  1.0000
  H   H20       1.0  0.10790  0.23892  0.40672  1.0000
  C   C18       1.0  0.08186  0.21412  0.22106  1.0000
  C   C19       1.0  0.07022  0.21024  0.19723  1.0000
  C   C20       1.0  0.08075  0.20429  0.17278  1.0000
  C   C21       1.0  0.10305  0.20143  0.17191  1.0000
  C   C22       1.0  0.11483  0.20510  0.19583  1.0000
  C   C23       1.0  0.10427  0.21175  0.22030  1.0000
  H   H21       1.0  0.05290  0.21207  0.19763  1.0000
  H   H22       1.0  0.07152  0.20123  0.15474  1.0000
  H   H23       1.0  0.13212  0.20283  0.19542  1.0000
  H   H24       1.0  0.11340  0.21462  0.23863  1.0000
  H   H25       1.0  0.10951  0.29266  0.21854  1.0000
  H   H26       1.0  0.15734  0.24228  0.09607  1.0000
  C   C24       1.0  0.08443  0.26350  0.19908  1.0000
  C   C25       1.0  0.16826  0.23348  0.34150  1.0000
  C   C26       1.0  0.15754  0.21898  0.35672  1.0000
  C   C27       1.0  0.16915  0.20422  0.37383  1.0000
  H   H27       1.0  0.05697  0.14561  0.09971  1.0000
  H   H28       1.0  0.14033  0.21913  0.35540  1.0000
  H   H29       1.0  0.16076  0.19306  0.38545  1.0000
  H   H30       1.0  0.20587  0.21425  0.27355  1.0000
  C   C28       1.0  0.02233  0.14264  0.05378  1.0000
  C   C29       1.0  0.02834  0.16356  0.05766  1.0000
  C   C30       1.0  0.01418  0.17918  0.06984  1.0000
  C   C31       1.0  0.04827  0.13853  0.11674  1.0000
  H   H31       1.0  0.21871  0.28290  0.40243  1.0000
  H   H32       1.0  0.03353  0.13060  0.04468  1.0000
  H   H33       1.0  0.04398  0.16753  0.05130  1.0000
  H   H34       1.0  0.05846  0.30145  0.38212  1.0000
  S   S17       1.0  0.23414  0.25296  0.16590  1.0000
  H   H35       1.0  0.03666  0.15163  0.18293  1.0000
  H   H36       1.0  0.02204  0.17313  0.12878  1.0000
  H   H37       1.0  0.07280  0.29316  0.23747  1.0000
  N   N2        1.0  0.02421  0.30065  0.38334  1.0000
  S   S18       1.0  0.20598  0.18754  0.39970  1.0000
  H   H38       1.0  0.14388  0.16184  0.41688  1.0000
  C   C32       1.0  0.14196  0.16618  0.47175  1.0000
  H   H39       1.0  0.22431  0.23274  0.23674  1.0000
  C   C33       1.0  0.10212  0.29611  0.19809  1.0000
  H   H40       1.0  0.00451  0.32137  0.35675  1.0000
  H   H41       1.0  0.00698  0.29377  0.34659  1.0000
  H   H42       1.0  0.09114  0.25934  0.21970  1.0000
  Fe  Fe10      1.0  0.23650  0.20271  0.40903  1.0000
  C   C34       1.0  0.07228  0.29147  0.16774  1.0000
  C   C35       1.0  0.07770  0.21848  0.46928  1.0000
  H   H43       1.0  0.18184  0.25375  0.39788  1.0000
  C   C36       1.0  0.03885  0.17346  0.13615  1.0000
  C   C37       1.0  0.15715  0.19418  0.44693  1.0000
  H   H44       1.0  0.16670  0.30779  0.42734  1.0000
  H   H45       1.0  0.05062  0.28943  0.21513  1.0000
  H   H46       1.0  0.04549  0.35982  0.30628  1.0000
  C   C38       1.0  0.99648  0.34071  0.29951  1.0000
  H   H47       1.0  0.17917  0.22365  0.28316  1.0000
  N   N3        1.0  0.08131  0.28686  0.19532  1.0000
  H   H48       1.0  0.06981  0.30896  0.16399  1.0000
  H   H49       1.0  0.00680  0.37235  0.30386  1.0000
  H   H50       1.0  0.03529  0.31237  0.42187  1.0000
  H   H51       1.0  0.19154  0.26426  0.42948  1.0000
  H   H52       1.0  0.04370  0.12559  0.16850  1.0000
  S   S19       1.0  0.11039  0.20516  0.99737  1.0000
  H   H53       1.0  0.20815  0.27153  0.37196  1.0000
  H   H54       1.0  0.08308  0.28447  0.15137  1.0000
  H   H55       1.0  0.16097  0.14094  0.43270  1.0000
  H   H56       1.0  0.11365  0.28954  0.18232  1.0000
  N   N4        1.0  0.18441  0.28768  0.39813  1.0000
  H   H57       1.0  0.05658  0.28469  0.16490  1.0000
  C   C39       1.0  0.18038  0.16633  0.46793  1.0000
  H   H58       1.0  0.16368  0.26861  0.42058  1.0000
  H   H59       1.0  0.09554  0.25573  0.18357  1.0000
  H   H60       1.0  0.04769  0.18143  0.11998  1.0000
  C   C40       1.0  0.18016  0.26771  0.41215  1.0000
  C   C41       1.0  0.06641  0.29626  0.21638  1.0000
  C   C42       1.0  0.03372  0.34834  0.30366  1.0000
  H   H61       1.0  0.20581  0.27241  0.26399  1.0000
  H   H62       1.0  0.03854  0.18383  0.15474  1.0000
  H   H63       1.0  0.16610  0.21433  0.09494  1.0000
  H   H64       1.0  0.22436  0.22290  0.09472  1.0000
  H   H65       1.0  0.14275  0.14886  0.47656  1.0000
  H   H66       1.0  0.19475  0.30268  0.43502  1.0000
  C   C43       1.0  0.00210  0.13711  0.06196  1.0000
  H   H67       1.0  0.22630  0.28576  0.02326  1.0000
  C   C44       1.0  0.15918  0.15835  0.42832  1.0000
  S   S20       1.0  0.22791  0.29866  0.13367  1.0000
  C   C45       1.0  0.09953  0.22123  0.47168  1.0000
  H   H68       1.0  0.10032  0.31377  0.19559  1.0000
  H   H69       1.0  0.21669  0.24961  0.28318  1.0000
  C   C46       1.0  0.18289  0.30557  0.41805  1.0000
  H   H70       1.0  0.20665  0.23932  0.05357  1.0000
  H   H71       1.0  0.20970  0.29980  0.37464  1.0000
  H   H72       1.0  0.17848  0.24737  0.05395  1.0000
  H   H73       1.0  0.19588  0.25748  0.12511  1.0000
  H   H74       1.0  0.20534  0.20303  0.09512  1.0000
  H   H75       1.0  0.17364  0.26852  0.23431  1.0000
  N   N5        1.0  0.15967  0.17124  0.45374  1.0000
  C   C47       1.0  0.19055  0.23314  0.34339  1.0000
  C   C48       1.0  0.19145  0.20421  0.37610  1.0000
  S   S21       1.0  0.99584  0.11025  0.05846  1.0000
  C   C49       1.0  0.20209  0.21852  0.36049  1.0000
  H   H76       1.0  0.21184  0.26107  0.09563  1.0000
  H   H77       1.0  0.19907  0.24431  0.33191  1.0000
  H   H78       1.0  0.03939  0.27451  0.40656  1.0000
  H   H79       1.0  0.19404  0.16984  0.45465  1.0000
  H   H80       1.0  0.19020  0.26139  0.28992  1.0000
  H   H81       1.0  0.17243  0.16170  0.41435  1.0000
  H   H82       1.0  0.18617  0.32085  0.40818  1.0000
  C   C50       1.0  0.03668  0.14201  0.16367  1.0000
  C   C51       1.0  0.07121  0.15293  0.15079  1.0000
  H   H83       1.0  0.16973  0.27899  0.36039  1.0000
  H   H84       1.0  0.14231  0.17509  0.49153  1.0000
  H   H85       1.0  0.18278  0.14918  0.47362  1.0000
  H   H86       1.0  0.04372  0.32164  0.36195  1.0000
  C   C52       1.0  0.02151  0.31496  0.40743  1.0000
  N   N6        1.0  0.04877  0.15174  0.14185  1.0000
  S   S22       1.0  0.23088  0.29736  0.20129  1.0000
  H   H87       1.0  0.07219  0.16196  0.17039  1.0000
  H   H88       1.0  0.18371  0.26940  0.09496  1.0000
  H   H89       1.0  0.18763  0.21948  0.05364  1.0000
  C   C53       1.0  0.17036  0.23017  0.10257  1.0000
  H   H90       1.0  0.21931  0.21834  0.36152  1.0000
  C   C54       1.0  0.19103  0.23538  0.06200  1.0000
  C   C55       1.0  0.19588  0.25680  0.10238  1.0000
  H   H91       1.0  0.06350  0.31389  0.21415  1.0000
  S   S23       1.0  0.23000  0.23786  0.41333  1.0000
  H   H92       1.0  0.00672  0.31223  0.41889  1.0000
  H   H93       1.0  0.12686  0.23198  0.45103  1.0000
  N   N7        1.0  0.19318  0.24274  0.25291  1.0000
  C   C56       1.0  0.20612  0.28541  0.38631  1.0000
  C   C57       1.0  0.17226  0.25233  0.24286  1.0000
  H   H94       1.0  0.16027  0.25405  0.25963  1.0000
  C   C58       1.0  0.20825  0.23969  0.22981  1.0000
  H   H95       1.0  0.16567  0.24243  0.22636  1.0000
  C   C59       1.0  0.01183  0.35549  0.30222  1.0000
  C   C60       1.0  0.19041  0.22188  0.26559  1.0000
  H   H96       1.0  0.20229  0.22891  0.21384  1.0000
  C   C61       1.0  0.16852  0.29202  0.37597  1.0000
  H   H97       1.0  0.04638  0.29450  0.35037  1.0000
  C   C62       1.0  0.04406  0.30477  0.36891  1.0000
  H   H98       1.0  0.01088  0.27427  0.40300  1.0000
  H   H99       1.0  0.17102  0.19903  0.43513  1.0000
  H   H100      1.0  0.21053  0.25514  0.21975  1.0000
  H   H101      1.0  0.17099  0.30712  0.36515  1.0000
  H   H102      1.0  0.15573  0.20432  0.46574  1.0000
  H   H103      1.0  0.12607  0.17080  0.46215  1.0000
  H   H104      1.0  0.14254  0.19807  0.43428  1.0000
  S   S24       1.0  0.23782  0.25799  0.48271  1.0000
  C   C63       1.0  0.23915  0.25410  0.01161  1.0000
  H   H105      1.0  0.99775  0.15385  0.48023  1.0000
  C   C64       1.0  0.99374  0.17379  0.07736  1.0000
  H   H106      1.0  0.23959  0.28281  0.07126  1.0000
  C   C65       1.0  0.23496  0.27111  0.03011  1.0000
  H   H107      1.0  0.18142  0.17605  0.48696  1.0000
  H   H108      1.0  0.24163  0.29184  0.30866  1.0000
  H   H109      1.0  0.03845  0.20229  0.65278  1.0000
  H   H110      1.0  0.06307  0.30977  0.90778  1.0000
  Fe  Fe11      1.0  0.11972  0.24535  0.81651  1.0000
  S   S25       1.0  0.10281  0.21660  0.82754  1.0000
  S   S26       1.0  0.15501  0.24884  0.82065  1.0000
  Fe  Fe12      1.0  0.07858  0.27098  0.79770  1.0000
  S   S27       1.0  0.05851  0.24430  0.80774  1.0000
  S   S28       1.0  0.06661  0.30274  0.77895  1.0000
  Fe  Fe13      1.0  0.07846  0.24056  0.84639  1.0000
  S   S29       1.0  0.06316  0.24057  0.88847  1.0000
  Fe  Fe14      1.0  0.08488  0.22316  0.78778  1.0000
  S   S30       1.0  0.07780  0.19700  0.75768  1.0000
  S   S31       1.0  0.09653  0.26903  0.83759  1.0000
  S   S32       1.0  0.10379  0.25007  0.77551  1.0000
  Fe  Fe15      1.0  0.05676  0.21098  0.57618  1.0000
  S   S33       1.0  0.08401  0.18683  0.56581  1.0000
  S   S34       1.0  0.02219  0.20201  0.57667  1.0000
  Fe  Fe16      1.0  0.08765  0.24565  0.58946  1.0000
  S   S35       1.0  0.11624  0.22342  0.57963  1.0000
  S   S36       1.0  0.09698  0.27784  0.60409  1.0000
  Fe  Fe17      1.0  0.09727  0.21389  0.54293  1.0000
  C   C66       1.0  0.09689  0.21475  0.96713  1.0000
  Fe  Fe18      1.0  0.09945  0.19978  0.60359  1.0000
  S   S37       1.0  0.11489  0.18021  0.63796  1.0000
  S   S38       1.0  0.06925  0.23758  0.55144  1.0000
  S   S39       1.0  0.07163  0.22238  0.61522  1.0000
  S   S40       1.0  0.18189  0.27353  0.67585  1.0000
  C   C67       1.0  0.00432  0.31040  0.80238  1.0000
  H   H111      1.0  0.18962  0.22655  0.90919  1.0000
  H   H112      1.0  0.03744  0.15184  0.69165  1.0000
  H   H113      1.0  0.01004  0.36172  0.78429  1.0000
  C   C68       1.0  0.15435  0.23021  0.96168  1.0000
  H   H114      1.0  0.01508  0.30453  0.91048  1.0000
  C   C69       1.0  0.12171  0.27605  0.62179  1.0000
  C   C70       1.0  0.12804  0.25797  0.63731  1.0000
  C   C71       1.0  0.14676  0.25733  0.65331  1.0000
  C   C72       1.0  0.15982  0.27438  0.65315  1.0000
  C   C73       1.0  0.15394  0.29221  0.63693  1.0000
  C   C74       1.0  0.13473  0.29317  0.62162  1.0000
  H   H115      1.0  0.11817  0.24468  0.63759  1.0000
  H   H116      1.0  0.15107  0.24354  0.66596  1.0000
  H   H117      1.0  0.16367  0.30563  0.63711  1.0000
  H   H118      1.0  0.12986  0.30727  0.60980  1.0000
  C   C75       1.0  0.04021  0.31367  0.78549  1.0000
  C   C76       1.0  0.03465  0.33548  0.78083  1.0000
  Fe  Fe19      1.0  0.24041  0.20312  0.90187  1.0000
  H   H119      1.0  0.19404  0.24122  0.53574  1.0000
  H   H120      1.0  0.15957  0.24621  0.56174  1.0000
  C   C77       1.0  0.02486  0.30109  0.79587  1.0000
  H   H121      1.0  0.13948  0.24036  0.96692  1.0000
  H   H122      1.0  0.16006  0.25307  0.59731  1.0000
  H   H123      1.0  0.20371  0.22845  0.60966  1.0000
  H   H124      1.0  0.02881  0.28421  0.79901  1.0000
  C   C78       1.0  0.07671  0.23053  0.91830  1.0000
  C   C79       1.0  0.06796  0.23603  0.94403  1.0000
  C   C80       1.0  0.05646  0.29614  0.89695  1.0000
  H   H125      1.0  0.11288  0.29104  0.67674  1.0000
  C   C81       1.0  0.10548  0.20896  0.94132  1.0000
  C   C82       1.0  0.09559  0.21698  0.91702  1.0000
  H   H126      1.0  0.05326  0.24630  0.94529  1.0000
  H   H127      1.0  0.20181  0.22002  0.55930  1.0000
  C   C83       1.0  0.99891  0.33232  0.79853  1.0000
  H   H128      1.0  0.10224  0.21225  0.89730  1.0000
  C   C84       1.0  0.09038  0.19384  0.72541  1.0000
  C   C85       1.0  0.09691  0.17311  0.71647  1.0000
  C   C86       1.0  0.10509  0.16940  0.69006  1.0000
  C   C87       1.0  0.10603  0.18625  0.67171  1.0000
  C   C88       1.0  0.09948  0.20715  0.68046  1.0000
  C   C89       1.0  0.09189  0.21097  0.70742  1.0000
  H   H129      1.0  0.09567  0.15979  0.73011  1.0000
  H   H130      1.0  0.11024  0.15327  0.68362  1.0000
  H   H131      1.0  0.10029  0.22030  0.66652  1.0000
  H   H132      1.0  0.08654  0.22698  0.71401  1.0000
  H   H133      1.0  0.15397  0.24209  0.89377  1.0000
  H   H134      1.0  0.05023  0.29754  0.71131  1.0000
  C   C90       1.0  0.19322  0.23098  0.83956  1.0000
  C   C91       1.0  0.17126  0.22880  0.83761  1.0000
  C   C92       1.0  0.16292  0.21098  0.84922  1.0000
  C   C93       1.0  0.17650  0.19581  0.86347  1.0000
  H   H135      1.0  0.19988  0.24477  0.83112  1.0000
  H   H136      1.0  0.14601  0.20908  0.84776  1.0000
  H   H137      1.0  0.16993  0.18248  0.87333  1.0000
  H   H138      1.0  0.05698  0.31581  0.68515  1.0000
  C   C94       1.0  0.02318  0.13734  0.56576  1.0000
  C   C95       1.0  0.02963  0.15826  0.56738  1.0000
  C   C96       1.0  0.01463  0.17552  0.57274  1.0000
  N   N8        1.0  0.19095  0.24993  0.57836  1.0000
  C   C97       1.0  0.20182  0.23750  0.55589  1.0000
  H   H139      1.0  0.03496  0.12410  0.56169  1.0000
  H   H140      1.0  0.04625  0.16096  0.56451  1.0000
  H   H141      1.0  0.00747  0.32060  0.88114  1.0000
  H   H142      1.0  0.05135  0.28491  0.91269  1.0000
  H   H143      1.0  0.10273  0.26559  0.71124  1.0000
  H   H144      1.0  0.04263  0.27594  0.85198  1.0000
  H   H145      1.0  0.18139  0.27684  0.55278  1.0000
  H   H146      1.0  0.16576  0.23116  0.97908  1.0000
  H   H147      1.0  0.11964  0.19794  0.94007  1.0000
  H   H148      1.0  0.06458  0.15158  0.68037  1.0000
  H   H149      1.0  0.01375  0.17957  0.63032  1.0000
  C   C98       1.0  0.19842  0.19840  0.86579  1.0000
  C   C99       1.0  0.20678  0.21563  0.85305  1.0000
  S   S41       1.0  0.21503  0.18233  0.88780  1.0000
  H   H150      1.0  0.22375  0.21746  0.85407  1.0000
  H   H151      1.0  0.05178  0.17893  0.61472  1.0000
  C   C100      1.0  0.16890  0.24361  0.58108  1.0000
  H   H152      1.0  0.18260  0.25979  0.95519  1.0000
  H   H153      1.0  0.05839  0.30928  0.84403  1.0000
  S   S42       1.0  0.23783  0.25499  0.66701  1.0000
  H   H154      1.0  0.08664  0.26423  0.66509  1.0000
  N   N9        1.0  0.19571  0.24712  0.75326  1.0000
  C   C101      1.0  0.20466  0.26064  0.77464  1.0000
  C   C102      1.0  0.21055  0.24486  0.72990  1.0000
  C   C103      1.0  0.17477  0.25724  0.74401  1.0000
  C   C104      1.0  0.19288  0.22574  0.76439  1.0000
  H   H155      1.0  0.19317  0.26391  0.79171  1.0000
  H   H156      1.0  0.20826  0.27638  0.76635  1.0000
  C   C105      1.0  0.04618  0.31778  0.85760  1.0000
  H   H157      1.0  0.21343  0.26070  0.72141  1.0000
  H   H158      1.0  0.22633  0.23685  0.73609  1.0000
  H   H159      1.0  0.20404  0.23540  0.71291  1.0000
  H   H160      1.0  0.16305  0.25878  0.76111  1.0000
  H   H161      1.0  0.16777  0.24780  0.72735  1.0000
  H   H162      1.0  0.17632  0.27354  0.73589  1.0000
  H   H163      1.0  0.20820  0.21799  0.77260  1.0000
  H   H164      1.0  0.18677  0.21500  0.74849  1.0000
  H   H165      1.0  0.18117  0.22669  0.78138  1.0000
  N   N10       1.0  0.03854  0.30339  0.87853  1.0000
  H   H166      1.0  0.02518  0.27298  0.88021  1.0000
  H   H167      1.0  0.21962  0.25022  0.60279  1.0000
  S   S43       1.0  0.11425  0.21355  0.50171  1.0000
  C   C106      1.0  0.09875  0.30213  0.68222  1.0000
  H   H168      1.0  0.14994  0.21344  0.96049  1.0000
  H   H169      1.0  0.10429  0.31390  0.69725  1.0000
  H   H170      1.0  0.09589  0.28807  0.73346  1.0000
  H   H171      1.0  0.13274  0.24637  0.91827  1.0000
  H   H172      1.0  0.19517  0.25485  0.62161  1.0000
  C   C107      1.0  0.17030  0.25881  0.93874  1.0000
  C   C108      1.0  0.20287  0.24566  0.60423  1.0000
  H   H173      1.0  0.21881  0.24102  0.55415  1.0000
  H   H174      1.0  0.03282  0.32444  0.84426  1.0000
  C   C109      1.0  0.08956  0.27771  0.71722  1.0000
  H   H175      1.0  0.04641  0.34532  0.77267  1.0000
  H   H176      1.0  0.06046  0.26694  0.68007  1.0000
  N   N11       1.0  0.08136  0.29044  0.69352  1.0000
  H   H177      1.0  0.09353  0.31092  0.66327  1.0000
  H   H178      1.0  0.04670  0.13468  0.66369  1.0000
  H   H179      1.0  0.01761  0.15104  0.63271  1.0000
  C   C110      1.0  0.07359  0.27603  0.67227  1.0000
  H   H180      1.0  0.05957  0.19075  0.67432  1.0000
  H   H181      1.0  0.02691  0.32924  0.90502  1.0000
  H   H182      1.0  0.21984  0.25294  0.78337  1.0000
  Fe  Fe20      1.0  0.21506  0.28425  0.66856  1.0000
  H   H183      1.0  0.19535  0.22262  0.94493  1.0000
  H   H184      1.0  0.07286  0.16714  0.63606  1.0000
  C   C111      1.0  0.07804  0.22832  0.96826  1.0000
  H   H185      1.0  0.15645  0.27037  0.94391  1.0000
  C   C112      1.0  0.01407  0.34481  0.78738  1.0000
  H   H186      1.0  0.06886  0.31677  0.71876  1.0000
  H   H187      1.0  0.06974  0.28738  0.88539  1.0000
  C   C113      1.0  0.19016  0.27299  0.57224  1.0000
  N   N12       1.0  0.16370  0.23687  0.93573  1.0000
  H   H188      1.0  0.17750  0.26427  0.91950  1.0000
  C   C114      1.0  0.14771  0.23627  0.91341  1.0000
  H   H189      1.0  0.05352  0.33158  0.86708  1.0000
  C   C115      1.0  0.18261  0.22219  0.92899  1.0000
  H   H190      1.0  0.20649  0.27840  0.57021  1.0000
  S   S44       1.0  0.23331  0.29905  0.70270  1.0000
  S   S45       1.0  0.23202  0.29992  0.63455  1.0000
  H   H191      1.0  0.16874  0.22646  0.58657  1.0000
  H   H192      1.0  0.05506  0.15051  0.61888  1.0000
  S   S46       1.0  0.99443  0.10672  0.56720  1.0000
  H   H193      1.0  0.23388  0.28652  0.52860  1.0000
  C   C116      1.0  0.00164  0.13340  0.56924  1.0000
  C   C117      1.0  0.06357  0.30583  0.70246  1.0000
  N   N13       1.0  0.04145  0.16795  0.65358  1.0000
  C   C118      1.0  0.01920  0.16620  0.64424  1.0000
  C   C119      1.0  0.05592  0.16604  0.62978  1.0000
  C   C120      1.0  0.04778  0.15072  0.67318  1.0000
  C   C121      1.0  0.04299  0.18891  0.66707  1.0000
  H   H194      1.0  0.07670  0.26913  0.72676  1.0000
  H   H195      1.0  0.17844  0.20537  0.92686  1.0000
  H   H196      1.0  0.03238  0.19092  0.68524  1.0000
  H   H197      1.0  0.00791  0.16676  0.66174  1.0000
  H   H198      1.0  0.14326  0.21973  0.90959  1.0000
  C   C122      1.0  0.03022  0.28464  0.86500  1.0000
  H   H199      1.0  0.06746  0.28507  0.65390  1.0000
  H   H200      1.0  0.18197  0.28277  0.58882  1.0000
  C   C123      1.0  0.02125  0.31495  0.89455  1.0000
  H   H201      1.0  0.01617  0.28935  0.85175  1.0000
  H   H202      1.0  0.23591  0.14763  0.92774  1.0000
  H   H203      1.0  0.99359  0.16163  0.97689  1.0000
  H   H204      1.0  0.07107  0.23280  0.98779  1.0000
  S   S47       1.0  0.22979  0.25662  0.97776  1.0000
  S   S48       1.0  0.23257  0.23849  0.90389  1.0000
  C   C124      1.0  0.99305  0.17160  0.57616  1.0000
  H   H205      1.0  0.24173  0.12242  0.88842  1.0000
  H   H206      1.0  0.99254  0.30061  0.81060  1.0000
  H   H207      1.0  0.99211  0.15915  0.51566  1.0000
  Fe  Fe21      1.0  0.07269  0.80380  0.15492  1.0000
  S   S49       1.0  0.10241  0.81991  0.14565  1.0000
  S   S50       1.0  0.07899  0.76833  0.15590  1.0000
  H   H208      1.0  0.15091  0.80040  0.48233  1.0000
  S   S51       1.0  0.20747  0.73939  0.08534  1.0000
  H   H209      1.0  0.11995  0.77766  0.44556  1.0000
  Fe  Fe22      1.0  0.22529  0.77683  0.02859  1.0000
  S   S52       1.0  0.20547  0.74963  0.01968  1.0000
  H   H210      1.0  0.15417  0.77299  0.47097  1.0000
  Fe  Fe23      1.0  0.18748  0.76108  0.05732  1.0000
  S   S53       1.0  0.15154  0.76171  0.05660  1.0000
  C   C125      1.0  0.23523  0.74417  0.46024  1.0000
  S   S54       1.0  0.20586  0.78985  0.06459  1.0000
  Fe  Fe24      1.0  0.06140  0.77051  0.19566  1.0000
  Fe  Fe25      1.0  0.06306  0.74236  0.38759  1.0000
  S   S55       1.0  0.08509  0.71215  0.38780  1.0000
  H   H211      1.0  0.13074  0.69473  0.10607  1.0000
  Fe  Fe26      1.0  0.06431  0.74694  0.45029  1.0000
  S   S56       1.0  0.08618  0.71733  0.45512  1.0000
  H   H212      1.0  0.22985  0.74971  0.39131  1.0000
  Fe  Fe27      1.0  0.10416  0.72907  0.41929  1.0000
  S   S57       1.0  0.13884  0.73636  0.42426  1.0000
  Fe  Fe28      1.0  0.06475  0.70325  0.42365  1.0000
  S   S58       1.0  0.05431  0.67012  0.43284  1.0000
  S   S59       1.0  0.08328  0.75962  0.41657  1.0000
  S   S60       1.0  0.04162  0.73250  0.42117  1.0000
  S   S61       1.0  0.99403  0.81842  0.18368  1.0000
  H   H213      1.0  0.03136  0.60908  0.03182  1.0000
  Fe  Fe29      1.0  0.22113  0.76724  0.32289  1.0000
  S   S62       1.0  0.19255  0.78981  0.31461  1.0000
  S   S63       1.0  0.21133  0.73474  0.33422  1.0000
  Fe  Fe30      1.0  0.21187  0.80302  0.28135  1.0000
  S   S64       1.0  0.19765  0.81015  0.23909  1.0000
  Fe  Fe31      1.0  0.20830  0.81116  0.34398  1.0000
  S   S65       1.0  0.18780  0.82016  0.38092  1.0000
  H   H214      1.0  0.21364  0.71119  0.44338  1.0000
  C   C126      1.0  0.01508  0.61001  0.04092  1.0000
  H   H215      1.0  0.22718  0.84557  0.24242  1.0000
  C   C127      1.0  0.00707  0.62266  0.37854  1.0000
  H   H216      1.0  0.01226  0.69253  0.42095  1.0000
  S   S66       1.0  0.07870  0.75041  0.22860  1.0000
  S   S67       1.0  0.04439  0.74262  0.10191  1.0000
  H   H217      1.0  0.01202  0.59362  0.04759  1.0000
  H   H218      1.0  0.16665  0.79142  0.09690  1.0000
  H   H219      1.0  0.00803  0.67632  0.48687  1.0000
  H   H220      1.0  0.12211  0.79157  0.02507  1.0000
  S   S68       1.0  0.04205  0.80332  0.13077  1.0000
  H   H221      1.0  0.05422  0.78262  0.07755  1.0000
  H   H222      1.0  0.09048  0.73491  0.05366  1.0000
  S   S69       1.0  0.02988  0.76651  0.17506  1.0000
  S   S70       1.0  0.23993  0.69661  0.03967  1.0000
  S   S71       1.0  0.05703  0.80631  0.19618  1.0000
  H   H223      1.0  0.14704  0.81528  0.13062  1.0000
  C   C128      1.0  0.21300  0.72524  0.42958  1.0000
  H   H224      1.0  0.11945  0.74162  0.10363  1.0000
  Fe  Fe32      1.0  0.02667  0.80253  0.17232  1.0000
  H   H225      1.0  0.00363  0.65127  0.03045  1.0000
  H   H226      1.0  0.00481  0.59398  0.33818  1.0000
  H   H227      1.0  0.99577  0.58776  0.00248  1.0000
  C   C129      1.0  0.05635  0.77652  0.03412  1.0000
  C   C130      1.0  0.11442  0.79565  0.00501  1.0000
  S   S72       1.0  0.22415  0.82788  0.30962  1.0000
  C   C131      1.0  0.10558  0.72442  0.05573  1.0000
  S   S73       1.0  0.23957  0.77861  0.28721  1.0000
  C   C132      1.0  0.07023  0.75360  0.26280  1.0000
  H   H228      1.0  0.07426  0.70918  0.08497  1.0000
  C   C133      1.0  0.99892  0.60432  0.99685  1.0000
  Fe  Fe33      1.0  0.04727  0.76766  0.13509  1.0000
  H   H229      1.0  0.01653  0.85482  0.16586  1.0000
  H   H230      1.0  0.11660  0.81274  0.00108  1.0000
  H   H231      1.0  0.09108  0.68732  0.07104  1.0000
  H   H232      1.0  0.03604  0.72660  0.48758  1.0000
  C   C134      1.0  0.04950  0.77300  0.29814  1.0000
  H   H233      1.0  0.03814  0.78614  0.30404  1.0000
  H   H234      1.0  0.99586  0.56538  0.10598  1.0000
  H   H235      1.0  0.05975  0.79267  0.02940  1.0000
  C   C135      1.0  0.02771  0.66271  0.43517  1.0000
  C   C136      1.0  0.02434  0.64214  0.44448  1.0000
  H   H236      1.0  0.10545  0.72469  0.12535  1.0000
  C   C137      1.0  0.22965  0.78631  0.21085  1.0000
  H   H237      1.0  0.01873  0.64006  0.00177  1.0000
  C   C138      1.0  0.00994  0.67672  0.42838  1.0000
  H   H238      1.0  0.03796  0.63118  0.44982  1.0000
  C   C139      1.0  0.22331  0.81450  0.41424  1.0000
  H   H239      1.0  0.04890  0.78166  0.25540  1.0000
  C   C140      1.0  0.23114  0.75495  0.41305  1.0000
  C   C141      1.0  0.15683  0.73666  0.39666  1.0000
  C   C142      1.0  0.16058  0.71906  0.37911  1.0000
  C   C143      1.0  0.17711  0.71867  0.35966  1.0000
  C   C144      1.0  0.18951  0.73611  0.35707  1.0000
  C   C145      1.0  0.18503  0.75410  0.37382  1.0000
  C   C146      1.0  0.16912  0.75415  0.39393  1.0000
  H   H240      1.0  0.15143  0.70534  0.38135  1.0000
  H   H241      1.0  0.18049  0.70468  0.34684  1.0000
  H   H242      1.0  0.19437  0.76772  0.37200  1.0000
  H   H243      1.0  0.16656  0.76773  0.40763  1.0000
  C   C147      1.0  0.00349  0.63564  0.44712  1.0000
  C   C148      1.0  0.22295  0.80192  0.46130  1.0000
  C   C149      1.0  0.11357  0.78860  0.46214  1.0000
  C   C150      1.0  0.20969  0.79798  0.20948  1.0000
  C   C151      1.0  0.19957  0.80093  0.18385  1.0000
  C   C152      1.0  0.20933  0.79221  0.15985  1.0000
  C   C153      1.0  0.05559  0.77051  0.27060  1.0000
  N   N14       1.0  0.12355  0.78263  0.48875  1.0000
  H   H244      1.0  0.18431  0.81026  0.18245  1.0000
  H   H245      1.0  0.20150  0.79473  0.14018  1.0000
  S   S74       1.0  0.05015  0.76281  0.35237  1.0000
  H   H246      1.0  0.02943  0.70447  0.46672  1.0000
  N   N15       1.0  0.10755  0.71460  0.08312  1.0000
  C   C154      1.0  0.20124  0.81319  0.41195  1.0000
  C   C155      1.0  0.18998  0.80619  0.43452  1.0000
  C   C156      1.0  0.20086  0.80035  0.45909  1.0000
  S   S75       1.0  0.23681  0.78826  0.35266  1.0000
  C   C157      1.0  0.09030  0.70026  0.08675  1.0000
  H   H247      1.0  0.17290  0.80521  0.43291  1.0000
  H   H248      1.0  0.19857  0.73590  0.43520  1.0000
  C   C158      1.0  0.07877  0.73921  0.28270  1.0000
  C   C159      1.0  0.07247  0.74154  0.31022  1.0000
  C   C160      1.0  0.05785  0.75852  0.31801  1.0000
  H   H249      1.0  0.09004  0.72602  0.27672  1.0000
  H   H250      1.0  0.07879  0.73014  0.32530  1.0000
  C   C161      1.0  0.05498  0.76147  0.01297  1.0000
  C   C162      1.0  0.05035  0.74069  0.01925  1.0000
  C   C163      1.0  0.04662  0.73519  0.04656  1.0000
  H   H251      1.0  0.11669  0.80513  0.45632  1.0000
  H   H252      1.0  0.04258  0.71924  0.05128  1.0000
  C   C164      1.0  0.11600  0.80583  0.11893  1.0000
  C   C165      1.0  0.10475  0.79356  0.10077  1.0000
  C   C166      1.0  0.11575  0.78085  0.08088  1.0000
  C   C167      1.0  0.13814  0.77963  0.07979  1.0000
  C   C168      1.0  0.14940  0.79217  0.09764  1.0000
  C   C169      1.0  0.13829  0.80560  0.11685  1.0000
  H   H253      1.0  0.08752  0.79392  0.10202  1.0000
  H   H254      1.0  0.10682  0.77163  0.06678  1.0000
  C   C170      1.0  0.04802  0.75028  0.06774  1.0000
  H   H255      1.0  0.00725  0.63921  0.38683  1.0000
  H   H256      1.0  0.09080  0.74222  0.10189  1.0000
  H   H257      1.0  0.19223  0.79495  0.47643  1.0000
  H   H258      1.0  0.12605  0.74889  0.48007  1.0000
  H   H259      1.0  0.14194  0.71269  0.08272  1.0000
  H   H260      1.0  0.21683  0.76611  0.41757  1.0000
  H   H261      1.0  0.11891  0.73449  0.05184  1.0000
  H   H262      1.0  0.01525  0.62022  0.05963  1.0000
  H   H263      1.0  0.00118  0.61981  0.45451  1.0000
  H   H264      1.0  0.02269  0.61864  0.36827  1.0000
  C   C171      1.0  0.02371  0.71514  0.48390  1.0000
  Fe  Fe34      1.0  0.22774  0.73092  0.04850  1.0000
  H   H265      1.0  0.13052  0.68933  0.06982  1.0000
  H   H266      1.0  0.09111  0.69273  0.10731  1.0000
  Fe  Fe35      1.0  0.22726  0.76726  0.09042  1.0000
  H   H267      1.0  0.23766  0.78392  0.23028  1.0000
  H   H268      1.0  0.23324  0.83350  0.20975  1.0000
  H   H269      1.0  0.09588  0.78788  0.46282  1.0000
  N   N16       1.0  0.11799  0.78283  0.34474  1.0000
  C   C172      1.0  0.10064  0.79712  0.35702  1.0000
  C   C173      1.0  0.11533  0.78250  0.31465  1.0000
  C   C174      1.0  0.11702  0.76100  0.35541  1.0000
  C   C175      1.0  0.13895  0.79060  0.35189  1.0000
  H   H270      1.0  0.10195  0.79745  0.37974  1.0000
  H   H271      1.0  0.08459  0.79173  0.35184  1.0000
  H   H272      1.0  0.10094  0.81379  0.34962  1.0000
  H   H273      1.0  0.12798  0.77158  0.30481  1.0000
  H   H274      1.0  0.09956  0.77688  0.30864  1.0000
  H   H275      1.0  0.11612  0.79869  0.30587  1.0000
  H   H276      1.0  0.12958  0.74959  0.34621  1.0000
  H   H277      1.0  0.10120  0.75486  0.35115  1.0000
  H   H278      1.0  0.11947  0.76061  0.37794  1.0000
  H   H279      1.0  0.14141  0.79139  0.37446  1.0000
  H   H280      1.0  0.14058  0.80689  0.34381  1.0000
  H   H281      1.0  0.15240  0.77985  0.34350  1.0000
  N   N17       1.0  0.13439  0.78173  0.20968  1.0000
  C   C176      1.0  0.11356  0.79421  0.21345  1.0000
  C   C177      1.0  0.14247  0.78554  0.18196  1.0000
  C   C178      1.0  0.13168  0.75875  0.21290  1.0000
  C   C179      1.0  0.14981  0.78848  0.23030  1.0000
  H   H282      1.0  0.10181  0.78973  0.19782  1.0000
  H   H283      1.0  0.11495  0.81167  0.21118  1.0000
  H   H284      1.0  0.10656  0.79136  0.23383  1.0000
  H   H285      1.0  0.13134  0.78029  0.16589  1.0000
  H   H286      1.0  0.14402  0.80285  0.17860  1.0000
  H   H287      1.0  0.15846  0.77688  0.17847  1.0000
  H   H288      1.0  0.14706  0.74883  0.21002  1.0000
  H   H289      1.0  0.11990  0.75326  0.19780  1.0000
  H   H290      1.0  0.12550  0.75532  0.23357  1.0000
  H   H291      1.0  0.16577  0.77943  0.22800  1.0000
  H   H292      1.0  0.14426  0.78594  0.25148  1.0000
  H   H293      1.0  0.15231  0.80574  0.22825  1.0000
  C   C180      1.0  0.12860  0.70224  0.08557  1.0000
  C   C181      1.0  0.22954  0.78092  0.16129  1.0000
  C   C182      1.0  0.05309  0.77089  0.06144  1.0000
  S   S76       1.0  0.05470  0.77016  0.48435  1.0000
  H   H294      1.0  0.10572  0.71216  0.03917  1.0000
  C   C183      1.0  0.10577  0.73150  0.10442  1.0000
  H   H295      1.0  0.12759  0.75389  0.00836  1.0000
  H   H296      1.0  0.00625  0.61177  0.39631  1.0000
  N   N18       1.0  0.23269  0.73653  0.43181  1.0000
  H   H297      1.0  0.04912  0.72905  0.00301  1.0000
  H   H298      1.0  0.00348  0.89291  0.15870  1.0000
  H   H299      1.0  0.00392  0.54984  0.06017  1.0000
  C   C184      1.0  0.14694  0.78392  0.48711  1.0000
  C   C185      1.0  0.00314  0.64020  0.01261  1.0000
  H   H300      1.0  0.21048  0.71943  0.40830  1.0000
  C   C186      1.0  0.23961  0.77805  0.18690  1.0000
  C   C187      1.0  0.99227  0.88147  0.16402  1.0000
  H   H301      1.0  0.23208  0.82032  0.39727  1.0000
  C   C188      1.0  0.23406  0.80901  0.43880  1.0000
  H   H302      1.0  0.00890  0.72461  0.47689  1.0000
  H   H303      1.0  0.09693  0.79411  0.00716  1.0000
  N   N19       1.0  0.99863  0.61851  0.02113  1.0000
  H   H304      1.0  0.00548  0.63242  0.32507  1.0000
  H   H305      1.0  0.22137  0.75535  0.46645  1.0000
  H   H306      1.0  0.15523  0.77878  0.00081  1.0000
  H   H307      1.0  0.23656  0.73074  0.47507  1.0000
  S   S77       1.0  0.23914  0.79459  0.99376  1.0000
  C   C189      1.0  0.99970  0.85991  0.16806  1.0000
  C   C190      1.0  0.23699  0.84681  0.22365  1.0000
  H   H308      1.0  0.23140  0.86201  0.21333  1.0000
  S   S78       1.0  0.23759  0.79502  0.49143  1.0000
  Fe  Fe36      1.0  0.07519  0.81743  0.65515  1.0000
  S   S79       1.0  0.10399  0.83342  0.64166  1.0000
  S   S80       1.0  0.08475  0.78314  0.66317  1.0000
  H   H309      1.0  0.12888  0.79199  0.74324  1.0000
  S   S81       1.0  0.20955  0.74448  0.59019  1.0000
  C   C191      1.0  0.23267  0.78407  0.66072  1.0000
  C   C192      1.0  0.11991  0.75925  0.98878  1.0000
  S   S82       1.0  0.20468  0.75092  0.52368  1.0000
  H   H310      1.0  0.14107  0.78525  0.88267  1.0000
  Fe  Fe37      1.0  0.18835  0.76450  0.56149  1.0000
  S   S83       1.0  0.15243  0.76532  0.56319  1.0000
  H   H311      1.0  0.04111  0.66484  0.87103  1.0000
  S   S84       1.0  0.20688  0.79354  0.56424  1.0000
  H   H312      1.0  0.12392  0.76332  0.63559  1.0000
  Fe  Fe38      1.0  0.06095  0.73583  0.88422  1.0000
  S   S85       1.0  0.08520  0.70744  0.88528  1.0000
  S   S86       1.0  0.04156  0.74667  0.84693  1.0000
  Fe  Fe39      1.0  0.06510  0.74425  0.94597  1.0000
  S   S87       1.0  0.08893  0.71603  0.95162  1.0000
  H   H313      1.0  0.00348  0.61382  0.93129  1.0000
  Fe  Fe40      1.0  0.10430  0.72736  0.91349  1.0000
  S   S88       1.0  0.13791  0.73803  0.91756  1.0000
  Fe  Fe41      1.0  0.06737  0.69892  0.92327  1.0000
  S   S89       1.0  0.05873  0.66469  0.92850  1.0000
  S   S90       1.0  0.08115  0.75637  0.90910  1.0000
  S   S91       1.0  0.04226  0.72649  0.92074  1.0000
  C   C193      1.0  0.05047  0.77479  0.56676  1.0000
  C   C194      1.0  0.00317  0.86991  0.67404  1.0000
  Fe  Fe42      1.0  0.22678  0.75989  0.82500  1.0000
  S   S92       1.0  0.19728  0.78120  0.81710  1.0000
  S   S93       1.0  0.21772  0.72745  0.83789  1.0000
  Fe  Fe43      1.0  0.21485  0.79420  0.78210  1.0000
  S   S94       1.0  0.19663  0.79675  0.74168  1.0000
  Fe  Fe44      1.0  0.21239  0.80439  0.84439  1.0000
  S   S95       1.0  0.19165  0.81526  0.88048  1.0000
  H   H314      1.0  0.09576  0.78420  0.83328  1.0000
  H   H315      1.0  0.16386  0.81919  0.69483  1.0000
  S   S96       1.0  0.05930  0.74854  0.61111  1.0000
  H   H316      1.0  0.15050  0.80031  0.97704  1.0000
  C   C195      1.0  0.03992  0.68998  0.51647  1.0000
  C   C196      1.0  0.04954  0.77927  0.53867  1.0000
  N   N20       1.0  0.01441  0.68274  0.85159  1.0000
  S   S97       1.0  0.05783  0.82265  0.69506  1.0000
  H   H317      1.0  0.16807  0.79898  0.59753  1.0000
  C   C197      1.0  0.13742  0.79537  0.72409  1.0000
  Fe  Fe45      1.0  0.06566  0.78747  0.70150  1.0000
  H   H318      1.0  0.21593  0.76083  0.92531  1.0000
  H   H319      1.0  0.04407  0.78666  0.58125  1.0000
  H   H320      1.0  0.05297  0.70040  0.52115  1.0000
  H   H321      1.0  0.13096  0.78526  0.70771  1.0000
  H   H322      1.0  0.15461  0.78995  0.72701  1.0000
  H   H323      1.0  0.10504  0.80786  0.84842  1.0000
  H   H324      1.0  0.14877  0.82635  0.62721  1.0000
  C   C198      1.0  0.14626  0.82207  0.69171  1.0000
  H   H325      1.0  0.14072  0.84856  0.73466  1.0000
  H   H326      1.0  0.23833  0.73825  0.89254  1.0000
  Fe  Fe46      1.0  0.22815  0.73387  0.55266  1.0000
  Fe  Fe47      1.0  0.02939  0.81277  0.67116  1.0000
  H   H327      1.0  0.01884  0.65120  0.83411  1.0000
  C   C199      1.0  0.05085  0.77065  0.77148  1.0000
  H   H328      1.0  0.02662  0.67212  0.81237  1.0000
  C   C200      1.0  0.04145  0.76451  0.79594  1.0000
  C   C201      1.0  0.13209  0.75889  0.84150  1.0000
  H   H329      1.0  0.12818  0.73371  0.58560  1.0000
  N   N21       1.0  0.12966  0.78249  0.84127  1.0000
  H   H330      1.0  0.09700  0.79614  0.51271  1.0000
  C   C202      1.0  0.05897  0.75482  0.57591  1.0000
  H   H331      1.0  0.13399  0.80786  0.81312  1.0000
  C   C203      1.0  0.01465  0.66804  0.82781  1.0000
  H   H332      1.0  0.15991  0.82687  0.74350  1.0000
  N   N22       1.0  0.23954  0.73556  0.93645  1.0000
  H   H333      1.0  0.14293  0.83881  0.68449  1.0000
  H   H334      1.0  0.04114  0.77904  0.75592  1.0000
  H   H335      1.0  0.11687  0.81433  0.50531  1.0000
  H   H336      1.0  0.10297  0.78449  0.86883  1.0000
  H   H337      1.0  0.02447  0.76820  0.79908  1.0000
  C   C204      1.0  0.03219  0.65782  0.93336  1.0000
  C   C205      1.0  0.02771  0.63636  0.93061  1.0000
  H   H338      1.0  0.13392  0.82889  0.75897  1.0000
  S   S98       1.0  0.08546  0.77435  0.73761  1.0000
  S   S99       1.0  0.03608  0.77752  0.68034  1.0000
  C   C206      1.0  0.23686  0.80598  0.94002  1.0000
  H   H339      1.0  0.04053  0.62433  0.92572  1.0000
  H   H340      1.0  0.19387  0.79548  0.97801  1.0000
  H   H341      1.0  0.12231  0.79393  0.53026  1.0000
  H   H342      1.0  0.01873  0.68975  0.94226  1.0000
  C   C207      1.0  0.15951  0.73441  0.89459  1.0000
  C   C208      1.0  0.17421  0.75000  0.89421  1.0000
  C   C209      1.0  0.19158  0.74817  0.87621  1.0000
  C   C210      1.0  0.19507  0.73018  0.85931  1.0000
  C   C211      1.0  0.18060  0.71431  0.85997  1.0000
  C   C212      1.0  0.16258  0.71661  0.87722  1.0000
  H   H343      1.0  0.17205  0.76378  0.90765  1.0000
  H   H344      1.0  0.20254  0.76056  0.87581  1.0000
  H   H345      1.0  0.18323  0.70034  0.84696  1.0000
  H   H346      1.0  0.15142  0.70440  0.87755  1.0000
  H   H347      1.0  0.99875  0.66875  0.81744  1.0000
  C   C213      1.0  0.10739  0.79011  0.84825  1.0000
  H   H348      1.0  0.16139  0.78531  0.85715  1.0000
  C   C214      1.0  0.21092  0.79087  0.71098  1.0000
  C   C215      1.0  0.19969  0.78634  0.68689  1.0000
  C   C216      1.0  0.21051  0.78297  0.66185  1.0000
  Fe  Fe48      1.0  0.05480  0.77645  0.64107  1.0000
  H   H349      1.0  0.99923  0.67911  0.52158  1.0000
  H   H350      1.0  0.18261  0.78539  0.68752  1.0000
  H   H351      1.0  0.20169  0.77979  0.64337  1.0000
  C   C217      1.0  0.22517  0.80047  0.96286  1.0000
  C   C218      1.0  0.20299  0.79958  0.96040  1.0000
  C   C219      1.0  0.19266  0.80433  0.93515  1.0000
  C   C220      1.0  0.20452  0.80956  0.91221  1.0000
  Fe  Fe49      1.0  0.22942  0.77247  0.59052  1.0000
  C   C221      1.0  0.14257  0.83123  0.73959  1.0000
  H   H352      1.0  0.14877  0.75201  0.62181  1.0000
  H   H353      1.0  0.17553  0.80383  0.93329  1.0000
  S   S100      1.0  0.22666  0.82054  0.80845  1.0000
  H   H354      1.0  0.12337  0.78471  0.79802  1.0000
  C   C222      1.0  0.08519  0.75511  0.78763  1.0000
  C   C223      1.0  0.07581  0.74903  0.81215  1.0000
  C   C224      1.0  0.05393  0.75389  0.81644  1.0000
  H   H355      1.0  0.10205  0.75108  0.78410  1.0000
  H   H356      1.0  0.08539  0.74040  0.82760  1.0000
  C   C225      1.0  0.05718  0.76390  0.51942  1.0000
  C   C226      1.0  0.06623  0.74404  0.52847  1.0000
  C   C227      1.0  0.06692  0.73944  0.55666  1.0000
  C   C228      1.0  0.99855  0.67666  0.87171  1.0000
  H   H357      1.0  0.07355  0.72395  0.56358  1.0000
  C   C229      1.0  0.11758  0.81604  0.61800  1.0000
  C   C230      1.0  0.10622  0.80185  0.60267  1.0000
  C   C231      1.0  0.11706  0.78685  0.58526  1.0000
  C   C232      1.0  0.13939  0.78558  0.58354  1.0000
  C   C233      1.0  0.15083  0.79987  0.59866  1.0000
  C   C234      1.0  0.13989  0.81531  0.61558  1.0000
  H   H358      1.0  0.08899  0.80246  0.60409  1.0000
  H   H359      1.0  0.10803  0.77615  0.57328  1.0000
  C   C235      1.0  0.07279  0.76608  0.76736  1.0000
  N   N23       1.0  0.13445  0.81828  0.71706  1.0000
  N   N24       1.0  0.12565  0.72934  0.62906  1.0000
  C   C236      1.0  0.11595  0.73151  0.60147  1.0000
  C   C237      1.0  0.10880  0.72576  0.64914  1.0000
  C   C238      1.0  0.13573  0.74907  0.63632  1.0000
  C   C239      1.0  0.14208  0.71104  0.62922  1.0000
  H   H360      1.0  0.10396  0.74557  0.60049  1.0000
  H   H361      1.0  0.10750  0.71727  0.59568  1.0000
  H   H362      1.0  0.11528  0.72463  0.67038  1.0000
  H   H363      1.0  0.09584  0.73900  0.64881  1.0000
  H   H364      1.0  0.10102  0.71087  0.64447  1.0000
  H   H365      1.0  0.14279  0.74826  0.65726  1.0000
  H   H366      1.0  0.14975  0.70894  0.64975  1.0000
  H   H367      1.0  0.15498  0.71334  0.61419  1.0000
  H   H368      1.0  0.13506  0.69589  0.62368  1.0000
  N   N25       1.0  0.12370  0.78165  0.98291  1.0000
  H   H369      1.0  0.12653  0.74823  0.97244  1.0000
  H   H370      1.0  0.11605  0.80489  0.95152  1.0000
  H   H371      1.0  0.01048  0.70882  0.55053  1.0000
  H   H372      1.0  0.15115  0.78392  0.80741  1.0000
  H   H373      1.0  0.15500  0.77932  0.50684  1.0000
  H   H374      1.0  0.12224  0.75196  0.82534  1.0000
  C   C240      1.0  0.13474  0.79011  0.81372  1.0000
  H   H375      1.0  0.21750  0.75519  0.96118  1.0000
  H   H376      1.0  0.14336  0.80857  0.86209  1.0000
  H   H377      1.0  0.00884  0.71645  0.85982  1.0000
  S   S101      1.0  0.99517  0.82723  0.67599  1.0000
  C   C241      1.0  0.14443  0.79080  0.86168  1.0000
  C   C242      1.0  0.03587  0.68141  0.86445  1.0000
  H   H378      1.0  0.10190  0.82156  0.73126  1.0000
  H   H379      1.0  0.15441  0.77317  0.96472  1.0000
  H   H380      1.0  0.99792  0.72723  0.52609  1.0000
  C   C243      1.0  0.00672  0.63035  0.93381  1.0000
  S   S102      1.0  0.23994  0.69906  0.54699  1.0000
  H   H381      1.0  0.99380  0.48974  0.85272  1.0000
  C   C244      1.0  0.14699  0.78359  0.98126  1.0000
  C   C245      1.0  0.11144  0.82442  0.71272  1.0000
  H   H382      1.0  0.14903  0.75263  0.83801  1.0000
  C   C246      1.0  0.99657  0.89191  0.67370  1.0000
  C   C247      1.0  0.01550  0.67322  0.93972  1.0000
  H   H383      1.0  0.12704  0.75255  0.86141  1.0000
  C   C248      1.0  0.21858  0.74772  0.94048  1.0000
  H   H384      1.0  0.07251  0.73222  0.51378  1.0000
  H   H385      1.0  0.14154  0.81148  0.67476  1.0000
  H   H386      1.0  0.10840  0.84153  0.70697  1.0000
  H   H387      1.0  0.02528  0.72900  0.53576  1.0000
  H   H388      1.0  0.00843  0.90343  0.67493  1.0000
  S   S103      1.0  0.04619  0.81082  0.63043  1.0000
  H   H389      1.0  0.09585  0.78686  0.95721  1.0000
  H   H390      1.0  0.04256  0.79469  0.53184  1.0000
  H   H391      1.0  0.10503  0.81492  0.69579  1.0000
  H   H392      1.0  0.01999  0.86456  0.67559  1.0000
  Fe  Fe50      1.0  0.22474  0.77857  0.52813  1.0000
  C   C249      1.0  0.11344  0.78810  0.95659  1.0000
  S   S104      1.0  0.05901  0.76930  0.97898  1.0000
  H   H393      1.0  0.11989  0.77774  0.93950  1.0000
  C   C250      1.0  0.00862  0.70486  0.84244  1.0000
  H   H394      1.0  0.20517  0.73729  0.93826  1.0000
  N   N26       1.0  0.01992  0.70274  0.50870  1.0000
  C   C251      1.0  0.22665  0.81031  0.91479  1.0000
  H   H395      1.0  0.02012  0.70994  0.82698  1.0000
  H   H396      1.0  0.04566  0.67894  0.49954  1.0000
  C   C252      1.0  0.01309  0.71755  0.53127  1.0000
  H   H397      1.0  0.12600  0.75572  0.51584  1.0000
  C   C253      1.0  0.00302  0.68823  0.50305  1.0000
  C   C254      1.0  0.11450  0.79743  0.51016  1.0000
  H   H398      1.0  0.04815  0.68672  0.85027  1.0000
  H   H399      1.0  0.22979  0.70739  0.95598  1.0000
  H   H400      1.0  0.03604  0.69168  0.88305  1.0000
  C   C255      1.0  0.23314  0.79141  0.70994  1.0000
  H   H401      1.0  0.00290  0.66037  0.87998  1.0000
  H   H402      1.0  0.03764  0.68013  0.53487  1.0000
  C   C256      1.0  0.99453  0.66722  0.94296  1.0000
  H   H403      1.0  0.23586  0.81482  0.89746  1.0000
  H   H404      1.0  0.99746  0.68793  0.88944  1.0000
  H   H405      1.0  0.99237  0.70667  0.83307  1.0000
  H   H406      1.0  0.22718  0.71512  0.90560  1.0000
  C   C257      1.0  0.11911  0.76056  0.49554  1.0000
  H   H407      1.0  0.10161  0.75891  0.49629  1.0000
  H   H408      1.0  0.01464  0.60345  0.98629  1.0000
  C   C258      1.0  0.24025  0.72584  0.90876  1.0000
  S   S105      1.0  0.24162  0.78259  0.85340  1.0000
  H   H409      1.0  0.10254  0.75718  0.99035  1.0000
  Fe  Fe51      1.0  0.41355  0.04130  0.43725  1.0000
  S   S106      1.0  0.33462  0.43559  0.18999  1.0000
  Fe  Fe52      1.0  0.38089  0.07984  0.43207  1.0000
  S   S107      1.0  0.34576  0.09019  0.42537  1.0000
  S   S108      1.0  0.40001  0.05989  0.40123  1.0000
  C   C259      1.0  0.45784  0.08550  0.29547  1.0000
  H   H410      1.0  0.42115  0.00557  0.37232  1.0000
  H   H411      1.0  0.38620  0.16055  0.48972  1.0000
  H   H412      1.0  0.31529  0.43348  0.10390  1.0000
  H   H413      1.0  0.31746  0.39581  0.06336  1.0000
  Fe  Fe53      1.0  0.45997  0.06530  0.22367  1.0000
  H   H414      1.0  0.44820  0.11257  0.32122  1.0000
  H   H415      1.0  0.37077  0.46801  0.35681  1.0000
  S   S109      1.0  0.34351  0.47188  0.26169  1.0000
  C   C260      1.0  0.25664  0.26136  0.32140  1.0000
  Fe  Fe54      1.0  0.42874  0.43396  0.44328  1.0000
  S   S110      1.0  0.40117  0.41376  0.44135  1.0000
  H   H416      1.0  0.39948  0.44771  0.29689  1.0000
  C   C261      1.0  0.43285  0.99227  0.45780  1.0000
  C   C262      1.0  0.42580  0.99742  0.35266  1.0000
  Fe  Fe55      1.0  0.38795  0.43626  0.40852  1.0000
  S   S111      1.0  0.37553  0.42204  0.36938  1.0000
  C   C263      1.0  0.33646  0.39974  0.12837  1.0000
  S   S112      1.0  0.41693  0.45484  0.40825  1.0000
  Fe  Fe56      1.0  0.35844  0.44784  0.16076  1.0000
  S   S113      1.0  0.38345  0.42062  0.16611  1.0000
  S   S114      1.0  0.34985  0.46046  0.11807  1.0000
  Fe  Fe57      1.0  0.35208  0.45197  0.22383  1.0000
  S   S115      1.0  0.37575  0.42395  0.23164  1.0000
  H   H417      1.0  0.39499  0.99239  0.08851  1.0000
  Fe  Fe58      1.0  0.35998  0.40852  0.19584  1.0000
  S   S116      1.0  0.35238  0.37375  0.19154  1.0000
  S   S117      1.0  0.38930  0.41417  0.01109  1.0000
  S   S118      1.0  0.26362  0.24770  0.09963  1.0000
  C   C264      1.0  0.42707  0.99662  0.05293  1.0000
  Fe  Fe59      1.0  0.28361  0.20506  0.41928  1.0000
  S   S119      1.0  0.28032  0.24105  0.42386  1.0000
  S   S120      1.0  0.31761  0.18965  0.42286  1.0000
  C   C265      1.0  0.44558  0.41054  0.02353  1.0000
  H   H418      1.0  0.46402  0.30462  0.36245  1.0000
  Fe  Fe60      1.0  0.25862  0.24047  0.38720  1.0000
  H   H419      1.0  0.34059  0.38163  0.07876  1.0000
  H   H420      1.0  0.29398  0.37998  0.09644  1.0000
  S   S121      1.0  0.26402  0.20504  0.38029  1.0000
  H   H421      1.0  0.47574  0.18212  0.18957  1.0000
  S   S122      1.0  0.27409  0.28294  0.16468  1.0000
  S   S123      1.0  0.25832  0.34513  0.17125  1.0000
  S   S124      1.0  0.41393  0.45633  0.47537  1.0000
  H   H422      1.0  0.46457  0.99789  0.00240  1.0000
  H   H423      1.0  0.32942  0.40161  0.14913  1.0000
  Fe  Fe61      1.0  0.24937  0.31088  0.16692  1.0000
  C   C266      1.0  0.44288  0.00361  0.47826  1.0000
  H   H424      1.0  0.41548  0.43487  0.27017  1.0000
  C   C267      1.0  0.25359  0.25054  0.06611  1.0000
  N   N27       1.0  0.45442  0.39209  0.00700  1.0000
  H   H425      1.0  0.43646  0.42266  0.01053  1.0000
  H   H426      1.0  0.35935  0.00268  0.46661  1.0000
  C   C268      1.0  0.25724  0.23335  0.04781  1.0000
  H   H427      1.0  0.29824  0.38320  0.13246  1.0000
  C   C269      1.0  0.42629  0.47309  0.23365  1.0000
  H   H428      1.0  0.47319  0.36221  0.01302  1.0000
  H   H429      1.0  0.27240  0.22998  0.32752  1.0000
  H   H430      1.0  0.35809  0.48717  0.31432  1.0000
  C   C270      1.0  0.38385  0.14362  0.48463  1.0000
  H   H431      1.0  0.36074  0.11127  0.47179  1.0000
  H   H432      1.0  0.41524  0.04427  0.24677  1.0000
  S   S125      1.0  0.44132  0.06114  0.44441  1.0000
  H   H433      1.0  0.44276  0.00224  0.04704  1.0000
  C   C271      1.0  0.48098  0.14460  0.10576  1.0000
  C   C272      1.0  0.30589  0.41957  0.10798  1.0000
  C   C273      1.0  0.40039  0.01809  0.26486  1.0000
  Fe  Fe62      1.0  0.39904  0.47496  0.44023  1.0000
  H   H434      1.0  0.43421  0.40562  0.03923  1.0000
  N   N28       1.0  0.46780  0.12650  0.10091  1.0000
  C   C274      1.0  0.41130  0.43396  0.29223  1.0000
  C   C275      1.0  0.44893  0.08323  0.34380  1.0000
  C   C276      1.0  0.32611  0.36607  0.18606  1.0000
  C   C277      1.0  0.32336  0.34536  0.17629  1.0000
  C   C278      1.0  0.30272  0.33870  0.17165  1.0000
  C   C279      1.0  0.28461  0.35266  0.17693  1.0000
  C   C280      1.0  0.28737  0.37336  0.18667  1.0000
  C   C281      1.0  0.30799  0.38004  0.19124  1.0000
  H   H435      1.0  0.33728  0.33447  0.17211  1.0000
  H   H436      1.0  0.30083  0.32285  0.16373  1.0000
  H   H437      1.0  0.27346  0.38428  0.19085  1.0000
  H   H438      1.0  0.30982  0.39593  0.19907  1.0000
  C   C282      1.0  0.36587  0.43684  0.34052  1.0000
  Fe  Fe63      1.0  0.41588  0.07493  0.20080  1.0000
  H   H439      1.0  0.48777  0.11342  0.06819  1.0000
  C   C283      1.0  0.35169  0.45852  0.29231  1.0000
  C   C284      1.0  0.35189  0.43630  0.29383  1.0000
  C   C285      1.0  0.35895  0.42556  0.31773  1.0000
  H   H440      1.0  0.34615  0.42735  0.27672  1.0000
  H   H441      1.0  0.35896  0.40835  0.31858  1.0000
  C   C286      1.0  0.37938  0.42846  0.04033  1.0000
  C   C287      1.0  0.38504  0.42033  0.06628  1.0000
  C   C288      1.0  0.37673  0.43045  0.09013  1.0000
  C   C289      1.0  0.36210  0.44848  0.08839  1.0000
  C   C290      1.0  0.35653  0.45675  0.06239  1.0000
  C   C291      1.0  0.36532  0.44694  0.03844  1.0000
  H   H442      1.0  0.39588  0.40606  0.06798  1.0000
  H   H443      1.0  0.38146  0.42397  0.10978  1.0000
  S   S126      1.0  0.42700  0.09220  0.16393  1.0000
  H   H444      1.0  0.33934  0.41008  0.07510  1.0000
  C   C292      1.0  0.46508  0.36038  0.41687  1.0000
  C   C293      1.0  0.45791  0.38138  0.42462  1.0000
  C   C294      1.0  0.47164  0.39412  0.43870  1.0000
  C   C295      1.0  0.44577  0.06322  0.03839  1.0000
  C   C296      1.0  0.46632  0.37634  0.02495  1.0000
  H   H445      1.0  0.45428  0.35055  0.40627  1.0000
  H   H446      1.0  0.44172  0.38762  0.41990  1.0000
  C   C297      1.0  0.40112  0.03555  0.24715  1.0000
  H   H447      1.0  0.32257  0.23363  0.04955  1.0000
  C   C298      1.0  0.42150  0.08616  0.06593  1.0000
  H   H448      1.0  0.46517  0.09498  0.11654  1.0000
  S   S127      1.0  0.41627  0.00553  0.43307  1.0000
  S   S128      1.0  0.37213  0.46784  0.19359  1.0000
  H   H449      1.0  0.31655  0.36575  0.11308  1.0000
  C   C299      1.0  0.36427  0.01342  0.24993  1.0000
  S   S129      1.0  0.25624  0.19989  0.44772  1.0000
  S   S130      1.0  0.40609  0.10238  0.43892  1.0000
  C   C300      1.0  0.36553  0.45915  0.33929  1.0000
  Fe  Fe64      1.0  0.39551  0.43979  0.20120  1.0000
  C   C301      1.0  0.36486  0.03113  0.23251  1.0000
  C   C302      1.0  0.38325  0.04233  0.23112  1.0000
  H   H450      1.0  0.35090  0.03638  0.22043  1.0000
  C   C303      1.0  0.33768  0.11773  0.42228  1.0000
  C   C304      1.0  0.35269  0.13260  0.41821  1.0000
  C   C305      1.0  0.34616  0.15455  0.41776  1.0000
  C   C306      1.0  0.32454  0.16185  0.42101  1.0000
  C   C307      1.0  0.30939  0.14698  0.42432  1.0000
  C   C308      1.0  0.31597  0.12498  0.42498  1.0000
  H   H451      1.0  0.36934  0.12722  0.41539  1.0000
  H   H452      1.0  0.35792  0.16597  0.41498  1.0000
  H   H453      1.0  0.29269  0.15246  0.42684  1.0000
  H   H454      1.0  0.30424  0.11356  0.42797  1.0000
  S   S131      1.0  0.38289  0.06598  0.21152  1.0000
  S   S132      1.0  0.43577  0.09310  0.22939  1.0000
  C   C309      1.0  0.44690  0.06045  0.08842  1.0000
  C   C310      1.0  0.48845  0.26379  0.32484  1.0000
  Fe  Fe65      1.0  0.45064  0.10643  0.19211  1.0000
  C   C311      1.0  0.38197  0.00696  0.26639  1.0000
  C   C312      1.0  0.46039  0.05116  0.31764  1.0000
  H   H455      1.0  0.45120  0.41805  0.28010  1.0000
  C   C313      1.0  0.44502  0.13364  0.10552  1.0000
  H   H456      1.0  0.29284  0.41976  0.09243  1.0000
  H   H457      1.0  0.45842  0.41857  0.03426  1.0000
  Fe  Fe66      1.0  0.38549  0.43726  0.47152  1.0000
  H   H458      1.0  0.45988  0.09516  0.27773  1.0000
  H   H459      1.0  0.47979  0.25904  0.37831  1.0000
  S   S133      1.0  0.42798  0.45065  0.21147  1.0000
  C   C314      1.0  0.35833  0.46997  0.31526  1.0000
  H   H460      1.0  0.34083  0.24786  0.02997  1.0000
  H   H461      1.0  0.44476  0.45728  0.28532  1.0000
  N   N29       1.0  0.38355  0.07736  0.31329  1.0000
  C   C315      1.0  0.39418  0.09708  0.31877  1.0000
  C   C316      1.0  0.36593  0.07584  0.33296  1.0000
  C   C317      1.0  0.39929  0.05862  0.31629  1.0000
  C   C318      1.0  0.37483  0.07788  0.28510  1.0000
  H   H462      1.0  0.38275  0.11155  0.31696  1.0000
  H   H463      1.0  0.40741  0.09877  0.30408  1.0000
  H   H464      1.0  0.40122  0.09711  0.33978  1.0000
  H   H465      1.0  0.35777  0.06097  0.32962  1.0000
  H   H466      1.0  0.37186  0.07577  0.35448  1.0000
  H   H467      1.0  0.35362  0.08961  0.33102  1.0000
  H   H468      1.0  0.39173  0.04343  0.31263  1.0000
  H   H469      1.0  0.40652  0.05794  0.33716  1.0000
  H   H470      1.0  0.41261  0.05909  0.30137  1.0000
  H   H471      1.0  0.36684  0.06313  0.28015  1.0000
  H   H472      1.0  0.38770  0.07906  0.26970  1.0000
  H   H473      1.0  0.36286  0.09175  0.28192  1.0000
  C   C319      1.0  0.48498  0.14858  0.18346  1.0000
  S   S134      1.0  0.46280  0.42005  0.45049  1.0000
  H   H474      1.0  0.45293  0.28073  0.35060  1.0000
  H   H475      1.0  0.29838  0.42231  0.12844  1.0000
  H   H476      1.0  0.40299  0.41917  0.29501  1.0000
  H   H477      1.0  0.34733  0.38477  0.12847  1.0000
  C   C320      1.0  0.30654  0.38125  0.11242  1.0000
  H   H478      1.0  0.43938  0.40071  0.30367  1.0000
  H   H479      1.0  0.39943  0.13405  0.48792  1.0000
  C   C321      1.0  0.26318  0.25331  0.26517  1.0000
  H   H480      1.0  0.34639  0.41333  0.12536  1.0000
  S   S135      1.0  0.42061  0.09530  0.01132  1.0000
  N   N30       1.0  0.31963  0.39926  0.10713  1.0000
  H   H481      1.0  0.41401  0.01352  0.27787  1.0000
  H   H482      1.0  0.29634  0.21296  0.02637  1.0000
  N   N31       1.0  0.31699  0.23333  0.00606  1.0000
  C   C322      1.0  0.47071  0.11867  0.07244  1.0000
  H   H483      1.0  0.31617  0.19916  0.00489  1.0000
  C   C323      1.0  0.27019  0.23795  0.28463  1.0000
  H   H484      1.0  0.44226  0.35873  0.49097  1.0000
  S   S136      1.0  0.47624  0.07952  0.18783  1.0000
  H   H485      1.0  0.45726  0.48279  0.22288  1.0000
  N   N32       1.0  0.43048  0.43414  0.30993  1.0000
  C   C324      1.0  0.42435  0.43150  0.33878  1.0000
  C   C325      1.0  0.44007  0.45468  0.30691  1.0000
  C   C326      1.0  0.44621  0.41641  0.30179  1.0000
  H   H486      1.0  0.43836  0.43161  0.35286  1.0000
  H   H487      1.0  0.41233  0.44454  0.34546  1.0000
  C   C327      1.0  0.25257  0.27264  0.27384  1.0000
  H   H488      1.0  0.45465  0.45536  0.31989  1.0000
  H   H489      1.0  0.42865  0.46842  0.31300  1.0000
  H   H490      1.0  0.46087  0.41596  0.31482  1.0000
  H   H491      1.0  0.47860  0.15130  0.12679  1.0000
  C   C328      1.0  0.46537  0.29186  0.34636  1.0000
  H   H492      1.0  0.39512  0.46761  0.24909  1.0000
  S   S137      1.0  0.45879  0.14098  0.18929  1.0000
  C   C329      1.0  0.45318  0.06100  0.34238  1.0000
  H   H493      1.0  0.41699  0.41618  0.34188  1.0000
  H   H494      1.0  0.40879  0.09889  0.06745  1.0000
  H   H495      1.0  0.46755  0.04125  0.06106  1.0000
  Fe  Fe67      1.0  0.25175  0.23578  0.44950  1.0000
  H   H496      1.0  0.45575  0.37040  0.04090  1.0000
  C   C330      1.0  0.24953  0.27674  0.30194  1.0000
  S   S138      1.0  0.26908  0.24819  0.23046  1.0000
  H   H497      1.0  0.46534  0.13120  0.05732  1.0000
  H   H498      1.0  0.26549  0.21856  0.05486  1.0000
  S   S139      1.0  0.45964  0.04977  0.11856  1.0000
  H   H499      1.0  0.45160  0.05151  0.36052  1.0000
  S   S140      1.0  0.47323  0.05123  0.26357  1.0000
  H   H500      1.0  0.36070  0.45327  0.01852  1.0000
  C   C331      1.0  0.26676  0.24187  0.31265  1.0000
  H   H501      1.0  0.25309  0.22185  0.00649  1.0000
  C   C332      1.0  0.43671  0.38201  0.99335  1.0000
  C   C333      1.0  0.46271  0.06340  0.29404  1.0000
  H   H502      1.0  0.47669  0.25181  0.32829  1.0000
  H   H503      1.0  0.27849  0.22299  0.27805  1.0000
  H   H504      1.0  0.47169  0.11421  0.14162  1.0000
  H   H505      1.0  0.42388  0.01544  0.10236  1.0000
  S   S141      1.0  0.44128  0.09681  0.37449  1.0000
  H   H506      1.0  0.45222  0.05834  0.01861  1.0000
  C   C334      1.0  0.48610  0.35204  0.42274  1.0000
  H   H507      1.0  0.47683  0.15783  0.09115  1.0000
  H   H508      1.0  0.41519  0.01082  0.05322  1.0000
  C   C335      1.0  0.32968  0.39653  0.07990  1.0000
  N   N33       1.0  0.30341  0.30668  0.24600  1.0000
  C   C336      1.0  0.28146  0.30932  0.23464  1.0000
  C   C337      1.0  0.31768  0.29497  0.22600  1.0000
  C   C338      1.0  0.30342  0.29438  0.27170  1.0000
  C   C339      1.0  0.31099  0.32794  0.25156  1.0000
  H   H509      1.0  0.28073  0.31882  0.21550  1.0000
  H   H510      1.0  0.27006  0.31766  0.24933  1.0000
  H   H511      1.0  0.27553  0.29360  0.22954  1.0000
  H   H512      1.0  0.31809  0.30377  0.20637  1.0000
  H   H513      1.0  0.33438  0.29253  0.23390  1.0000
  H   H514      1.0  0.31219  0.27891  0.22120  1.0000
  H   H515      1.0  0.29208  0.30216  0.28693  1.0000
  H   H516      1.0  0.31958  0.29268  0.28138  1.0000
  H   H517      1.0  0.29857  0.27795  0.26796  1.0000
  H   H518      1.0  0.32766  0.32665  0.25971  1.0000
  H   H519      1.0  0.30065  0.33708  0.26678  1.0000
  H   H520      1.0  0.31085  0.33775  0.23265  1.0000
  S   S142      1.0  0.39169  0.05890  0.46751  1.0000
  H   H521      1.0  0.42491  0.37698  0.00842  1.0000
  H   H522      1.0  0.46133  0.10473  0.06827  1.0000
  N   N34       1.0  0.48703  0.28058  0.34628  1.0000
  Fe  Fe68      1.0  0.25420  0.26869  0.19661  1.0000
  C   C340      1.0  0.30166  0.25256  0.00689  1.0000
  Fe  Fe69      1.0  0.42613  0.08105  0.41012  1.0000
  C   C341      1.0  0.45447  0.05359  0.06250  1.0000
  C   C342      1.0  0.33158  0.23350  0.02994  1.0000
  C   C343      1.0  0.40846  0.47742  0.25049  1.0000
  H   H523      1.0  0.45127  0.00633  0.09634  1.0000
  S   S143      1.0  0.43963  0.04670  0.19587  1.0000
  Fe  Fe70      1.0  0.45206  0.06470  0.16059  1.0000
  C   C344      1.0  0.42954  0.07993  0.04010  1.0000
  C   C345      1.0  0.42991  0.07631  0.08986  1.0000
  H   H524      1.0  0.42332  0.08123  0.10940  1.0000
  C   C346      1.0  0.45134  0.09537  0.32025  1.0000
  H   H525      1.0  0.30994  0.26746  0.00533  1.0000
  S   S144      1.0  0.36916  0.45764  0.43845  1.0000
  H   H526      1.0  0.34129  0.14725  0.47425  1.0000
  H   H527      1.0  0.34511  0.47058  0.06066  1.0000
  H   H528      1.0  0.43937  0.14677  0.09140  1.0000
  C   C347      1.0  0.47444  0.10906  0.12005  1.0000
  H   H529      1.0  0.46146  0.29961  0.32634  1.0000
  Fe  Fe71      1.0  0.41844  0.08024  0.47263  1.0000
  H   H530      1.0  0.48682  0.11375  0.22925  1.0000
  S   S145      1.0  0.25306  0.26723  0.35640  1.0000
  C   C348      1.0  0.44339  0.48605  0.23578  1.0000
  H   H531      1.0  0.41399  0.00340  0.33673  1.0000
  H   H532      1.0  0.43625  0.99340  0.12153  1.0000
  C   C349      1.0  0.43524  0.00085  0.10092  1.0000
  Fe  Fe72      1.0  0.25165  0.26971  0.13403  1.0000
  H   H533      1.0  0.48231  0.40765  0.99557  1.0000
  C   C350      1.0  0.25023  0.23517  0.02052  1.0000
  H   H534      1.0  0.44231  0.13955  0.12692  1.0000
  H   H535      1.0  0.34977  0.00534  0.25147  1.0000
  H   H536      1.0  0.43462  0.12037  0.10217  1.0000
  C   C351      1.0  0.30518  0.21398  0.00688  1.0000
  H   H537      1.0  0.46433  0.03407  0.31682  1.0000
  C   C352      1.0  0.48879  0.17029  0.18490  1.0000
  H   H538      1.0  0.44169  0.00254  0.34679  1.0000
  H   H539      1.0  0.38001  0.14289  0.46240  1.0000
  H   H540      1.0  0.44121  0.02087  0.47844  1.0000
  H   H541      1.0  0.29241  0.25354  0.02630  1.0000
  H   H542      1.0  0.34328  0.21913  0.02999  1.0000
  H   H543      1.0  0.43347  0.38284  0.47324  1.0000
  H   H544      1.0  0.48541  0.27067  0.30410  1.0000
  H   H545      1.0  0.48142  0.12223  0.26376  1.0000
  H   H546      1.0  0.39481  0.99807  0.48808  1.0000
  C   C353      1.0  0.24237  0.26943  0.05728  1.0000
  C   C354      1.0  0.35420  0.99002  0.48036  1.0000
  H   H547      1.0  0.24687  0.28451  0.25905  1.0000
  H   H548      1.0  0.47984  0.38338  0.03559  1.0000
  H   H549      1.0  0.49167  0.10355  0.11781  1.0000
  H   H550      1.0  0.49083  0.28297  0.38996  1.0000
  C   C355      1.0  0.49152  0.27071  0.37331  1.0000
  Fe  Fe73      1.0  0.41392  0.04475  0.93149  1.0000
  C   C356      1.0  0.29661  0.37664  0.74729  1.0000
  Fe  Fe74      1.0  0.38867  0.08728  0.91794  1.0000
  S   S146      1.0  0.36002  0.10275  0.89475  1.0000
  S   S147      1.0  0.40966  0.06389  0.89308  1.0000
  C   C357      1.0  0.38481  0.01295  0.75196  1.0000
  S   S148      1.0  0.27128  0.24852  0.60470  1.0000
  H   H551      1.0  0.39482  0.41397  0.80113  1.0000
  H   H552      1.0  0.36009  0.13068  0.54380  1.0000
  H   H553      1.0  0.26241  0.28582  0.75964  1.0000
  S   S149      1.0  0.48147  0.07876  0.69169  1.0000
  H   H554      1.0  0.41859  0.41455  0.49904  1.0000
  H   H555      1.0  0.46046  0.41087  0.97163  1.0000
  S   S150      1.0  0.39003  0.06617  0.95498  1.0000
  S   S151      1.0  0.37174  0.47217  0.69918  1.0000
  Fe  Fe75      1.0  0.42543  0.42851  0.92461  1.0000
  S   S152      1.0  0.39910  0.40768  0.93274  1.0000
  S   S153      1.0  0.45856  0.41637  0.91029  1.0000
  H   H556      1.0  0.35445  0.42792  0.60688  1.0000
  S   S154      1.0  0.37144  0.42294  0.50909  1.0000
  Fe  Fe76      1.0  0.37846  0.43163  0.90817  1.0000
  S   S155      1.0  0.35993  0.41844  0.87297  1.0000
  H   H557      1.0  0.35413  0.46438  0.86186  1.0000
  S   S156      1.0  0.40533  0.45129  0.89807  1.0000
  Fe  Fe77      1.0  0.36036  0.45399  0.66291  1.0000
  S   S157      1.0  0.38538  0.42654  0.66752  1.0000
  S   S158      1.0  0.33519  0.43947  0.68810  1.0000
  Fe  Fe78      1.0  0.35026  0.45412  0.72503  1.0000
  S   S159      1.0  0.37452  0.42675  0.73255  1.0000
  Fe  Fe79      1.0  0.39544  0.44415  0.70523  1.0000
  Fe  Fe80      1.0  0.36081  0.41268  0.69439  1.0000
  S   S160      1.0  0.35284  0.37801  0.69643  1.0000
  H   H558      1.0  0.46319  0.12256  0.61824  1.0000
  H   H559      1.0  0.37442  0.15370  0.53695  1.0000
  H   H560      1.0  0.48333  0.26226  0.87394  1.0000
  Fe  Fe81      1.0  0.28451  0.20575  0.92559  1.0000
  S   S161      1.0  0.28024  0.24163  0.92937  1.0000
  S   S162      1.0  0.31333  0.18764  0.94515  1.0000
  H   H561      1.0  0.30657  0.41480  0.79428  1.0000
  C   C358      1.0  0.44058  0.00336  0.97077  1.0000
  Fe  Fe82      1.0  0.26546  0.24037  0.88734  1.0000
  S   S163      1.0  0.26886  0.26636  0.85644  1.0000
  C   C359      1.0  0.32958  0.23319  0.98057  1.0000
  S   S164      1.0  0.27246  0.20484  0.88212  1.0000
  H   H562      1.0  0.45524  0.48892  0.72579  1.0000
  S   S165      1.0  0.27747  0.28530  0.66778  1.0000
  C   C360      1.0  0.47579  0.31598  0.86453  1.0000
  Fe  Fe83      1.0  0.41901  0.08286  0.96754  1.0000
  N   N35       1.0  0.29670  0.39873  0.75787  1.0000
  H   H563      1.0  0.29402  0.13495  0.94112  1.0000
  H   H564      1.0  0.30936  0.25475  0.69389  1.0000
  H   H565      1.0  0.32600  0.40390  0.73719  1.0000
  C   C361      1.0  0.30640  0.39838  0.78554  1.0000
  C   C362      1.0  0.24369  0.27238  0.53487  1.0000
  C   C363      1.0  0.42522  0.47801  0.73849  1.0000
  C   C364      1.0  0.26732  0.26032  0.82122  1.0000
  N   N36       1.0  0.42765  0.38397  0.51650  1.0000
  H   H566      1.0  0.40614  0.35912  0.51275  1.0000
  H   H567      1.0  0.48542  0.29892  0.81478  1.0000
  H   H568      1.0  0.31682  0.23115  0.62419  1.0000
  H   H569      1.0  0.39539  0.38270  0.53082  1.0000
  H   H570      1.0  0.47053  0.32694  0.84757  1.0000
  H   H571      1.0  0.26453  0.39965  0.77301  1.0000
  H   H572      1.0  0.31019  0.42794  0.74706  1.0000
  H   H573      1.0  0.41121  0.99813  0.61204  1.0000
  S   S166      1.0  0.46027  0.09236  0.87859  1.0000
  N   N37       1.0  0.36673  0.13553  0.50131  1.0000
  H   H574      1.0  0.42774  0.39331  0.97912  1.0000
  S   S167      1.0  0.25281  0.20101  0.94491  1.0000
  C   C365      1.0  0.26784  0.25176  0.76453  1.0000
  Fe  Fe84      1.0  0.39626  0.46901  0.93681  1.0000
  C   C366      1.0  0.43584  0.08323  0.59439  1.0000
  H   H575      1.0  0.35726  0.01452  0.82892  1.0000
  H   H576      1.0  0.28850  0.21383  0.64798  1.0000
  S   S168      1.0  0.42763  0.45470  0.71787  1.0000
  Fe  Fe85      1.0  0.46665  0.06371  0.72806  1.0000
  C   C367      1.0  0.32768  0.36931  0.68650  1.0000
  C   C368      1.0  0.32344  0.34807  0.69152  1.0000
  C   C369      1.0  0.30319  0.34092  0.68554  1.0000
  C   C370      1.0  0.28693  0.35498  0.67449  1.0000
  C   C371      1.0  0.29128  0.37613  0.66909  1.0000
  C   C372      1.0  0.31156  0.38323  0.67489  1.0000
  H   H577      1.0  0.33581  0.33716  0.70041  1.0000
  H   H578      1.0  0.30007  0.32465  0.68996  1.0000
  H   H579      1.0  0.27886  0.38709  0.66038  1.0000
  H   H580      1.0  0.31468  0.39949  0.67042  1.0000
  C   C373      1.0  0.35443  0.43331  0.84288  1.0000
  C   C374      1.0  0.26991  0.23923  0.81166  1.0000
  S   S169      1.0  0.41180  0.00926  0.92802  1.0000
  C   C375      1.0  0.34390  0.45558  0.79394  1.0000
  C   C376      1.0  0.34677  0.43328  0.79392  1.0000
  C   C377      1.0  0.35163  0.42221  0.81832  1.0000
  H   H581      1.0  0.34454  0.42447  0.77527  1.0000
  H   H582      1.0  0.35327  0.40493  0.81819  1.0000
  C   C378      1.0  0.36929  0.43660  0.54089  1.0000
  C   C379      1.0  0.32020  0.23969  0.64360  1.0000
  S   S170      1.0  0.41563  0.10582  0.93207  1.0000
  N   N38       1.0  0.31519  0.22711  0.66784  1.0000
  C   C380      1.0  0.36005  0.43631  0.58943  1.0000
  C   C381      1.0  0.36270  0.42578  0.56398  1.0000
  H   H583      1.0  0.31025  0.25522  0.64292  1.0000
  H   H584      1.0  0.32523  0.19679  0.68584  1.0000
  H   H585      1.0  0.35918  0.40927  0.56210  1.0000
  H   H586      1.0  0.46281  0.00132  0.51453  1.0000
  C   C382      1.0  0.46226  0.35347  0.93008  1.0000
  C   C383      1.0  0.45421  0.37455  0.92454  1.0000
  C   C384      1.0  0.46787  0.38935  0.91524  1.0000
  C   C385      1.0  0.37251  0.13692  0.53061  1.0000
  S   S171      1.0  0.35803  0.47223  0.62279  1.0000
  H   H587      1.0  0.45162  0.34218  0.93759  1.0000
  H   H588      1.0  0.43749  0.37936  0.92772  1.0000
  C   C386      1.0  0.48298  0.27953  0.87939  1.0000
  C   C387      1.0  0.26907  0.23596  0.55110  1.0000
  S   S172      1.0  0.33614  0.46942  0.76359  1.0000
  C   C388      1.0  0.26336  0.25210  0.57033  1.0000
  C   C389      1.0  0.25089  0.27045  0.56210  1.0000
  C   C390      1.0  0.36395  0.01377  0.76242  1.0000
  C   C391      1.0  0.42652  0.99400  0.95285  1.0000
  C   C392      1.0  0.31939  0.23927  0.69308  1.0000
  H   H589      1.0  0.47032  0.99276  0.61850  1.0000
  H   H590      1.0  0.27306  0.21868  0.77612  1.0000
  C   C393      1.0  0.46751  0.99666  0.86319  1.0000
  N   N39       1.0  0.38192  0.99776  0.85325  1.0000
  C   C394      1.0  0.35946  0.05184  0.75262  1.0000
  C   C395      1.0  0.38002  0.05118  0.74162  1.0000
  H   H591      1.0  0.34939  0.06671  0.75276  1.0000
  C   C396      1.0  0.34797  0.12691  0.90837  1.0000
  C   C397      1.0  0.35191  0.13304  0.93537  1.0000
  C   C398      1.0  0.34138  0.15185  0.94622  1.0000
  C   C399      1.0  0.32698  0.16477  0.93013  1.0000
  C   C400      1.0  0.32347  0.15898  0.90287  1.0000
  C   C401      1.0  0.33375  0.13996  0.89212  1.0000
  H   H592      1.0  0.36290  0.12312  0.94804  1.0000
  H   H593      1.0  0.41650  0.41389  0.53544  1.0000
  H   H594      1.0  0.31302  0.16923  0.89001  1.0000
  H   H595      1.0  0.33086  0.13545  0.87110  1.0000
  S   S173      1.0  0.38849  0.07532  0.72845  1.0000
  C   C402      1.0  0.36431  0.11301  0.49393  1.0000
  H   H596      1.0  0.41493  0.46706  0.81493  1.0000
  C   C403      1.0  0.42815  0.09281  0.56988  1.0000
  H   H597      1.0  0.46211  0.03848  0.56750  1.0000
  H   H598      1.0  0.44784  0.29887  0.83062  1.0000
  H   H599      1.0  0.33312  0.14314  0.50864  1.0000
  H   H600      1.0  0.27793  0.16298  0.91038  1.0000
  H   H601      1.0  0.39269  0.45362  0.80215  1.0000
  C   C404      1.0  0.44407  0.06278  0.54383  1.0000
  H   H602      1.0  0.46059  0.99375  0.56946  1.0000
  H   H603      1.0  0.43234  0.09118  0.61371  1.0000
  C   C405      1.0  0.35153  0.03336  0.76295  1.0000
  S   S174      1.0  0.44309  0.06019  0.94576  1.0000
  H   H604      1.0  0.37920  0.10264  0.49825  1.0000
  H   H605      1.0  0.24680  0.28315  0.57670  1.0000
  S   S175      1.0  0.26999  0.24589  0.72931  1.0000
  H   H606      1.0  0.44247  0.29183  0.86536  1.0000
  C   C406      1.0  0.27102  0.15026  0.89804  1.0000
  H   H607      1.0  0.47642  0.38584  0.97371  1.0000
  N   N40       1.0  0.42041  0.43281  0.81300  1.0000
  C   C407      1.0  0.40615  0.45251  0.81721  1.0000
  C   C408      1.0  0.40804  0.41402  0.81645  1.0000
  H   H608      1.0  0.48295  0.08872  0.78299  1.0000
  C   C409      1.0  0.42927  0.43271  0.78503  1.0000
  N   N41       1.0  0.47574  0.29331  0.85618  1.0000
  H   H609      1.0  0.45727  0.00985  0.91400  1.0000
  C   C410      1.0  0.46091  0.05744  0.84345  1.0000
  C   C411      1.0  0.42631  0.40754  0.51778  1.0000
  H   H610      1.0  0.39893  0.45302  0.83796  1.0000
  Fe  Fe86      1.0  0.24763  0.23667  0.94534  1.0000
  H   H611      1.0  0.34430  0.48403  0.81880  1.0000
  C   C412      1.0  0.46558  0.04710  0.81820  1.0000
  H   H612      1.0  0.47966  0.11026  0.57497  1.0000
  H   H613      1.0  0.29833  0.11689  0.91279  1.0000
  H   H614      1.0  0.35108  0.10652  0.50537  1.0000
  H   H615      1.0  0.45407  0.38034  0.54476  1.0000
  H   H616      1.0  0.38390  0.99209  0.52076  1.0000
  H   H617      1.0  0.38793  0.12733  0.53504  1.0000
  H   H618      1.0  0.28778  0.36648  0.76104  1.0000
  C   C413      1.0  0.35917  0.00257  0.84568  1.0000
  N   N42       1.0  0.26631  0.13217  0.91547  1.0000
  C   C414      1.0  0.48952  0.38269  0.91070  1.0000
  H   H619      1.0  0.24656  0.12664  0.95010  1.0000
  H   H620      1.0  0.27227  0.22625  0.82604  1.0000
  H   H621      1.0  0.48025  0.18246  0.68531  1.0000
  C   C415      1.0  0.27450  0.40866  0.75920  1.0000
  S   S176      1.0  0.47977  0.04526  0.76486  1.0000
  S   S177      1.0  0.26063  0.34731  0.66893  1.0000
  H   H622      1.0  0.33726  0.24327  0.64349  1.0000
  H   H623      1.0  0.27881  0.22177  0.55735  1.0000
  C   C416      1.0  0.26431  0.27706  0.80233  1.0000
  H   H624      1.0  0.47576  0.10666  0.82776  1.0000
  C   C417      1.0  0.45504  0.99254  0.49875  1.0000
  C   C418      1.0  0.30930  0.41128  0.73941  1.0000
  C   C419      1.0  0.26193  0.23791  0.52383  1.0000
  H   H625      1.0  0.32325  0.39116  0.78513  1.0000
  H   H626      1.0  0.44243  0.41362  0.51944  1.0000
  H   H627      1.0  0.33544  0.03420  0.77098  1.0000
  S   S178      1.0  0.42301  0.09608  0.51423  1.0000
  H   H628      1.0  0.44947  0.41761  0.83025  1.0000
  C   C420      1.0  0.47265  0.09009  0.82508  1.0000
  C   C421      1.0  0.47346  0.05837  0.79624  1.0000
  H   H629      1.0  0.38943  0.03010  0.84696  1.0000
  H   H630      1.0  0.41900  0.10818  0.57064  1.0000
  C   C422      1.0  0.43765  0.37516  0.54191  1.0000
  H   H631      1.0  0.34955  0.00896  0.86342  1.0000
  H   H632      1.0  0.39304  0.00107  0.81201  1.0000
  H   H633      1.0  0.28789  0.21353  0.68498  1.0000
  C   C423      1.0  0.26434  0.27279  0.77403  1.0000
  H   H634      1.0  0.34435  0.15629  0.96726  1.0000
  C   C424      1.0  0.36374  0.45787  0.59193  1.0000
  S   S179      1.0  0.41930  0.44840  0.96252  1.0000
  C   C425      1.0  0.32869  0.20666  0.66782  1.0000
  C   C426      1.0  0.34661  0.46678  0.81855  1.0000
  H   H635      1.0  0.45331  0.27173  0.84175  1.0000
  H   H636      1.0  0.34106  0.21869  0.97905  1.0000
  C   C427      1.0  0.44819  0.06362  0.59377  1.0000
  C   C428      1.0  0.45226  0.05346  0.56834  1.0000
  H   H637      1.0  0.42811  0.38059  0.56022  1.0000
  H   H638      1.0  0.47264  0.28262  0.89768  1.0000
  C   C429      1.0  0.37376  0.45796  0.54357  1.0000
  S   S180      1.0  0.44275  0.04809  0.70198  1.0000
  Fe  Fe87      1.0  0.45787  0.10687  0.70043  1.0000
  C   C430      1.0  0.40588  0.37683  0.51353  1.0000
  H   H639      1.0  0.28187  0.23788  0.66686  1.0000
  H   H640      1.0  0.27403  0.42542  0.76691  1.0000
  H   H641      1.0  0.37892  0.46642  0.52593  1.0000
  S   S181      1.0  0.35223  0.99135  0.77567  1.0000
  H   H642      1.0  0.47758  0.11858  0.64986  1.0000
  C   C431      1.0  0.45385  0.28875  0.84810  1.0000
  H   H643      1.0  0.38221  0.02412  0.88148  1.0000
  C   C432      1.0  0.27038  0.23499  0.78338  1.0000
  C   C433      1.0  0.46475  0.07893  0.84702  1.0000
  H   H644      1.0  0.46302  0.03041  0.81553  1.0000
  H   H645      1.0  0.37435  0.48504  0.57075  1.0000
  H   H646      1.0  0.43210  0.43140  0.85457  1.0000
  H   H647      1.0  0.32585  0.19709  0.64907  1.0000
  H   H648      1.0  0.28877  0.37627  0.72682  1.0000
  H   H649      1.0  0.41635  0.43337  0.76922  1.0000
  H   H650      1.0  0.29744  0.38889  0.79999  1.0000
  H   H651      1.0  0.48033  0.00750  0.85939  1.0000
  C   C434      1.0  0.29241  0.22277  0.66687  1.0000
  H   H652      1.0  0.40884  0.03095  0.73341  1.0000
  C   C435      1.0  0.40743  0.48226  0.75540  1.0000
  H   H653      1.0  0.46835  0.09620  0.63199  1.0000
  C   C436      1.0  0.47243  0.99938  0.91210  1.0000
  S   S182      1.0  0.46553  0.14156  0.69724  1.0000
  S   S183      1.0  0.36755  0.45100  0.94539  1.0000
  S   S184      1.0  0.43139  0.09528  0.67423  1.0000
  C   C437      1.0  0.39287  0.03170  0.74164  1.0000
  Fe  Fe88      1.0  0.39124  0.42918  0.96909  1.0000
  C   C438      1.0  0.48397  0.34693  0.92614  1.0000
  H   H654      1.0  0.45488  0.04874  0.86033  1.0000
  C   C439      1.0  0.25096  0.13992  0.93690  1.0000
  S   S185      1.0  0.44514  0.09275  0.73848  1.0000
  H   H655      1.0  0.44266  0.36766  0.98130  1.0000
  H   H656      1.0  0.44749  0.05489  0.52438  1.0000
  C   C440      1.0  0.35221  0.45568  0.84292  1.0000
  C   C441      1.0  0.28635  0.12288  0.92839  1.0000
  Fe  Fe89      1.0  0.42168  0.07754  0.71151  1.0000
  Fe  Fe90      1.0  0.43675  0.08123  0.90903  1.0000
  H   H657      1.0  0.26673  0.40905  0.73860  1.0000
  S   S186      1.0  0.45996  0.05201  0.62394  1.0000
  H   H658      1.0  0.39483  0.47151  0.75539  1.0000
  C   C442      1.0  0.37096  0.46854  0.56898  1.0000
  N   N43       1.0  0.40179  0.09742  0.81310  1.0000
  C   C443      1.0  0.38104  0.09180  0.82386  1.0000
  C   C444      1.0  0.39802  0.11226  0.78991  1.0000
  C   C445      1.0  0.41438  0.07783  0.80359  1.0000
  C   C446      1.0  0.41371  0.10780  0.83496  1.0000
  H   H659      1.0  0.38329  0.08083  0.84162  1.0000
  H   H660      1.0  0.37168  0.08382  0.80790  1.0000
  H   H661      1.0  0.37109  0.10621  0.83124  1.0000
  H   H662      1.0  0.38888  0.10501  0.77314  1.0000
  H   H663      1.0  0.38878  0.12734  0.79634  1.0000
  H   H664      1.0  0.41338  0.11650  0.78098  1.0000
  H   H665      1.0  0.43020  0.08148  0.79554  1.0000
  H   H666      1.0  0.40603  0.06977  0.78673  1.0000
  H   H667      1.0  0.41749  0.06620  0.82047  1.0000
  H   H668      1.0  0.42939  0.11246  0.82754  1.0000
  H   H669      1.0  0.41718  0.09696  0.85260  1.0000
  H   H670      1.0  0.40452  0.12241  0.84305  1.0000
  H   H671      1.0  0.33641  0.24288  0.69460  1.0000
  H   H672      1.0  0.43863  0.44674  0.78161  1.0000
  H   H673      1.0  0.44006  0.41808  0.78091  1.0000
  H   H674      1.0  0.26230  0.29340  0.80965  1.0000
  H   H675      1.0  0.25779  0.15200  0.95040  1.0000
  H   H676      1.0  0.43895  0.35738  0.54162  1.0000
  H   H677      1.0  0.44742  0.44628  0.83177  1.0000
  H   H678      1.0  0.31318  0.36893  0.74497  1.0000
  H   H679      1.0  0.26801  0.10974  0.88196  1.0000
  C   C447      1.0  0.45309  0.99214  0.62348  1.0000
  H   H680      1.0  0.44165  0.02038  0.97065  1.0000
  C   C448      1.0  0.43216  0.08266  0.54448  1.0000
  C   C449      1.0  0.39076  0.01753  0.86294  1.0000
  H   H681      1.0  0.41834  0.39884  0.81392  1.0000
  C   C450      1.0  0.46904  0.39944  0.98611  1.0000
  Fe  Fe91      1.0  0.45450  0.06663  0.66663  1.0000
  H   H682      1.0  0.31908  0.23301  0.96215  1.0000
  H   H683      1.0  0.46504  0.31978  0.88228  1.0000
  C   C451      1.0  0.25687  0.11580  0.89845  1.0000
  H   H684      1.0  0.34601  0.20932  0.66857  1.0000
  H   H685      1.0  0.28345  0.10926  0.94189  1.0000
  H   H686      1.0  0.31548  0.23034  0.71176  1.0000
  C   C452      1.0  0.43811  0.43201  0.83324  1.0000
  C   C453      1.0  0.47529  0.11170  0.62916  1.0000
  H   H687      1.0  0.28270  0.14514  0.88173  1.0000
  Fe  Fe92      1.0  0.25637  0.27151  0.63621  1.0000
  Fe  Fe93      1.0  0.25221  0.31278  0.66876  1.0000
  H   H688      1.0  0.30214  0.41225  0.71851  1.0000
  H   H689      1.0  0.40068  0.41388  0.83716  1.0000
  C   C454      1.0  0.24901  0.25603  0.51576  1.0000
  H   H690      1.0  0.48579  0.08384  0.58794  1.0000
  H   H691      1.0  0.26610  0.22527  0.50917  1.0000
  H   H692      1.0  0.39791  0.38315  0.49444  1.0000
  H   H693      1.0  0.25308  0.10186  0.91090  1.0000
  Fe  Fe94      1.0  0.25712  0.27051  0.69871  1.0000
  C   C455      1.0  0.44071  0.37646  0.49269  1.0000
  H   H694      1.0  0.45714  0.38190  0.49393  1.0000
  H   H695      1.0  0.25631  0.15760  0.88776  1.0000
  H   H696      1.0  0.40794  0.01454  0.86867  1.0000
  C   C456      1.0  0.47669  0.07997  0.79969  1.0000
  H   H697      1.0  0.43655  0.01029  0.57742  1.0000
  H   H698      1.0  0.34749  0.99802  0.49919  1.0000
  H   H699      1.0  0.44630  0.00890  0.62694  1.0000
  H   H700      1.0  0.48562  0.01002  0.90991  1.0000
  H   H701      1.0  0.45207  0.00677  0.86419  1.0000
  H   H702      1.0  0.33885  0.24747  0.97918  1.0000
  C   C457      1.0  0.34634  0.14850  0.49605  1.0000
  H   H703      1.0  0.39460  0.99792  0.75150  1.0000
  C   C458      1.0  0.44352  0.99345  0.57552  1.0000
  H   H704      1.0  0.34768  0.16574  0.50047  1.0000
  C   C459      1.0  0.49035  0.28892  0.83279  1.0000
  H   H705      1.0  0.49099  0.27185  0.82627  1.0000
  C   C460      1.0  0.49159  0.14950  0.69156  1.0000
  H   H706      1.0  0.47494  0.99068  0.93181  1.0000
  C   C461      1.0  0.45354  0.99061  0.98882  1.0000
  H   H707      1.0  0.29336  0.21376  0.98978  1.0000
  H   H708      1.0  0.28983  0.25257  0.98976  1.0000
  H   H709      1.0  0.46094  0.64196  0.04011  1.0000
  S   S187      1.0  0.41573  0.92704  0.02111  1.0000
  S   S188      1.0  0.46864  0.84475  0.05464  1.0000
  H   H710      1.0  0.38132  0.56119  0.18520  1.0000
  S   S189      1.0  0.41683  0.87769  0.04031  1.0000
  H   H711      1.0  0.40475  0.84470  0.15325  1.0000
  C   C462      1.0  0.27246  0.84637  0.20465  1.0000
  Fe  Fe95      1.0  0.41767  0.90963  0.06092  1.0000
  S   S190      1.0  0.39401  0.92246  0.09307  1.0000
  C   C463      1.0  0.41767  0.84273  0.10098  1.0000
  C   C464      1.0  0.43501  0.96993  0.45784  1.0000
  Fe  Fe96      1.0  0.39228  0.91342  0.31557  1.0000
  S   S191      1.0  0.36261  0.93530  0.32038  1.0000
  S   S192      1.0  0.41493  0.90297  0.35004  1.0000
  Fe  Fe97      1.0  0.38815  0.91266  0.25297  1.0000
  S   S193      1.0  0.35798  0.93492  0.25314  1.0000
  S   S194      1.0  0.40849  0.89923  0.21767  1.0000
  Fe  Fe98      1.0  0.37485  0.95361  0.28518  1.0000
  H   H712      1.0  0.40620  0.51676  0.08331  1.0000
  Fe  Fe99      1.0  0.34853  0.91443  0.28838  1.0000
  S   S195      1.0  0.31485  0.90474  0.29615  1.0000
  S   S196      1.0  0.40543  0.93266  0.28240  1.0000
  S   S197      1.0  0.37766  0.89110  0.28610  1.0000
  H   H713      1.0  0.47514  0.66826  0.36837  1.0000
  S   S198      1.0  0.28640  0.81053  0.31149  1.0000
  Fe  Fe100     1.0  0.35398  0.63407  0.04347  1.0000
  S   S199      1.0  0.38988  0.63028  0.04857  1.0000
  S   S200      1.0  0.33904  0.66763  0.05157  1.0000
  Fe  Fe101     1.0  0.35178  0.58811  0.02719  1.0000
  S   S201      1.0  0.38705  0.58080  0.03104  1.0000
  Fe  Fe102     1.0  0.25165  0.80307  0.31626  1.0000
  Fe  Fe103     1.0  0.38470  0.59972  0.06981  1.0000
  S   S202      1.0  0.40737  0.58393  0.10120  1.0000
  N   N44       1.0  0.46509  0.63807  0.38160  1.0000
  H   H714      1.0  0.39900  0.54293  0.06983  1.0000
  S   S203      1.0  0.34880  0.60471  0.06815  1.0000
  C   C465      1.0  0.26443  0.86423  0.24776  1.0000
  N   N45       1.0  0.42850  0.98583  0.07975  1.0000
  H   H715      1.0  0.42117  0.96930  0.31216  1.0000
  S   S204      1.0  0.39874  0.51073  0.43858  1.0000
  Fe  Fe104     1.0  0.43222  0.55947  0.29380  1.0000
  S   S205      1.0  0.40162  0.58043  0.29181  1.0000
  S   S206      1.0  0.42581  0.52488  0.30018  1.0000
  Fe  Fe105     1.0  0.45885  0.59822  0.29341  1.0000
  S   S207      1.0  0.42990  0.62173  0.29106  1.0000
  N   N46       1.0  0.37225  0.97417  0.48691  1.0000
  Fe  Fe106     1.0  0.41632  0.60108  0.32269  1.0000
  S   S208      1.0  0.39475  0.61497  0.35609  1.0000
  Fe  Fe107     1.0  0.41773  0.59884  0.26018  1.0000
  S   S209      1.0  0.39544  0.61028  0.22584  1.0000
  S   S210      1.0  0.44592  0.57898  0.32745  1.0000
  S   S211      1.0  0.44771  0.57647  0.25978  1.0000
  C   C466      1.0  0.36229  0.55804  0.47624  1.0000
  H   H716      1.0  0.48592  0.60957  0.37465  1.0000
  C   C467      1.0  0.42546  0.50651  0.27272  1.0000
  H   H717      1.0  0.36837  0.95525  0.45065  1.0000
  S   S212      1.0  0.45417  0.89183  0.99852  1.0000
  H   H718      1.0  0.26305  0.65508  0.03929  1.0000
  H   H719      1.0  0.45434  0.84113  0.15265  1.0000
  C   C468      1.0  0.44284  0.50294  0.25498  1.0000
  C   C469      1.0  0.26647  0.82575  0.24491  1.0000
  H   H720      1.0  0.44279  0.66321  0.39688  1.0000
  H   H721      1.0  0.28377  0.82451  0.25053  1.0000
  H   H722      1.0  0.45633  0.51251  0.25695  1.0000
  H   H723      1.0  0.45702  0.82952  0.11898  1.0000
  C   C470      1.0  0.40414  0.59152  0.13574  1.0000
  C   C471      1.0  0.38673  0.60532  0.14406  1.0000
  C   C472      1.0  0.38440  0.61100  0.17179  1.0000
  C   C473      1.0  0.39951  0.60309  0.19129  1.0000
  C   C474      1.0  0.41697  0.58928  0.18297  1.0000
  C   C475      1.0  0.41920  0.58342  0.15523  1.0000
  H   H724      1.0  0.37506  0.61165  0.12916  1.0000
  H   H725      1.0  0.37087  0.62170  0.17816  1.0000
  H   H726      1.0  0.42877  0.58322  0.19784  1.0000
  H   H727      1.0  0.43273  0.57275  0.14886  1.0000
  C   C476      1.0  0.40930  0.60482  0.44708  1.0000
  C   C477      1.0  0.39094  0.61718  0.43853  1.0000
  C   C478      1.0  0.38651  0.61981  0.41052  1.0000
  C   C479      1.0  0.40029  0.60996  0.39089  1.0000
  C   C480      1.0  0.41829  0.59695  0.39935  1.0000
  C   C481      1.0  0.42291  0.59457  0.42744  1.0000
  H   H728      1.0  0.38048  0.62532  0.45347  1.0000
  H   H729      1.0  0.37253  0.62986  0.40410  1.0000
  H   H730      1.0  0.42879  0.58901  0.38433  1.0000
  H   H731      1.0  0.43707  0.58487  0.43400  1.0000
  H   H732      1.0  0.25111  0.81039  0.44041  1.0000
  H   H733      1.0  0.25314  0.70775  0.43820  1.0000
  C   C482      1.0  0.25140  0.72179  0.42435  1.0000
  H   H734      1.0  0.40036  0.54324  0.25409  1.0000
  H   H735      1.0  0.44256  0.94887  0.37921  1.0000
  H   H736      1.0  0.35627  0.55039  0.10014  1.0000
  H   H737      1.0  0.42663  0.59696  0.04241  1.0000
  N   N47       1.0  0.26009  0.84580  0.23024  1.0000
  H   H738      1.0  0.38839  0.55542  0.44784  1.0000
  H   H739      1.0  0.28170  0.86389  0.25334  1.0000
  C   C483      1.0  0.31165  0.67517  0.04566  1.0000
  C   C484      1.0  0.30468  0.69699  0.04512  1.0000
  C   C485      1.0  0.28280  0.70373  0.04281  1.0000
  C   C486      1.0  0.26766  0.68868  0.04099  1.0000
  C   C487      1.0  0.27465  0.66684  0.04087  1.0000
  C   C488      1.0  0.29658  0.66007  0.04320  1.0000
  H   H740      1.0  0.31628  0.70874  0.04677  1.0000
  H   H741      1.0  0.27772  0.72056  0.04241  1.0000
  H   H742      1.0  0.45927  0.64964  0.42272  1.0000
  H   H743      1.0  0.30179  0.64321  0.04356  1.0000
  C   C489      1.0  0.30754  0.87838  0.30075  1.0000
  C   C490      1.0  0.28723  0.87540  0.31134  1.0000
  C   C491      1.0  0.28058  0.85474  0.31484  1.0000
  C   C492      1.0  0.29421  0.83681  0.30779  1.0000
  C   C493      1.0  0.31460  0.83975  0.29738  1.0000
  C   C494      1.0  0.32121  0.86044  0.29372  1.0000
  H   H744      1.0  0.27656  0.88919  0.31687  1.0000
  H   H745      1.0  0.26494  0.85272  0.32315  1.0000
  H   H746      1.0  0.32523  0.82595  0.29180  1.0000
  H   H747      1.0  0.33674  0.86252  0.28514  1.0000
  H   H748      1.0  0.36175  0.57527  0.47725  1.0000
  H   H749      1.0  0.26800  0.86127  0.19300  1.0000
  H   H750      1.0  0.42741  0.96101  0.44205  1.0000
  H   H751      1.0  0.40961  0.82834  0.10673  1.0000
  H   H752      1.0  0.33455  0.51562  0.99714  1.0000
  H   H753      1.0  0.40477  0.95033  0.36456  1.0000
  C   C495      1.0  0.39843  0.91899  0.12848  1.0000
  C   C496      1.0  0.41909  0.91573  0.13938  1.0000
  C   C497      1.0  0.42204  0.91062  0.16719  1.0000
  C   C498      1.0  0.40436  0.90952  0.18444  1.0000
  C   C499      1.0  0.38373  0.91426  0.17394  1.0000
  C   C500      1.0  0.38080  0.91892  0.14599  1.0000
  H   H754      1.0  0.43279  0.91675  0.12629  1.0000
  H   H755      1.0  0.43804  0.90724  0.17534  1.0000
  H   H756      1.0  0.37002  0.91344  0.18709  1.0000
  H   H757      1.0  0.36476  0.92184  0.13776  1.0000
  C   C501      1.0  0.39781  0.90784  0.44094  1.0000
  C   C502      1.0  0.38253  0.91480  0.42109  1.0000
  C   C503      1.0  0.38783  0.91434  0.39317  1.0000
  C   C504      1.0  0.40823  0.90614  0.38489  1.0000
  C   C505      1.0  0.42353  0.89942  0.40475  1.0000
  C   C506      1.0  0.41842  0.90044  0.43270  1.0000
  H   H758      1.0  0.36652  0.92045  0.42732  1.0000
  H   H759      1.0  0.37605  0.92001  0.37812  1.0000
  H   H760      1.0  0.43936  0.89310  0.39850  1.0000
  H   H761      1.0  0.43028  0.89496  0.44779  1.0000
  H   H762      1.0  0.38730  0.53283  0.18151  1.0000
  H   H763      1.0  0.37777  0.49331  0.09561  1.0000
  H   H764      1.0  0.46045  0.97172  0.07236  1.0000
  H   H765      1.0  0.46301  0.62745  0.33983  1.0000
  H   H766      1.0  0.25604  0.69750  0.15990  1.0000
  H   H767      1.0  0.44594  0.95852  0.09804  1.0000
  Fe  Fe108     1.0  0.38982  0.61154  0.00939  1.0000
  H   H768      1.0  0.49127  0.65562  0.39518  1.0000
  C   C507      1.0  0.28202  0.72725  0.14497  1.0000
  H   H769      1.0  0.44932  0.58630  0.02347  1.0000
  C   C508      1.0  0.47884  0.60335  0.05530  1.0000
  H   H770      1.0  0.48524  0.59776  0.03503  1.0000
  N   N48       1.0  0.27701  0.70810  0.12921  1.0000
  S   S213      1.0  0.41601  0.60279  0.48204  1.0000
  H   H771      1.0  0.26387  0.72598  0.09493  1.0000
  H   H772      1.0  0.42871  0.88203  0.10533  1.0000
  C   C509      1.0  0.29611  0.69961  0.11377  1.0000
  H   H773      1.0  0.34030  0.53921  0.07366  1.0000
  H   H774      1.0  0.40173  0.87112  0.13909  1.0000
  C   C510      1.0  0.27053  0.69162  0.14811  1.0000
  S   S214      1.0  0.24885  0.75735  0.05511  1.0000
  H   H775      1.0  0.43962  0.95545  0.06244  1.0000
  H   H776      1.0  0.35994  0.54393  0.18345  1.0000
  H   H777      1.0  0.25525  0.76942  0.18823  1.0000
  H   H778      1.0  0.48251  0.68646  0.30680  1.0000
  S   S215      1.0  0.39050  0.90827  0.47572  1.0000
  H   H779      1.0  0.43756  0.82064  0.14226  1.0000
  H   H780      1.0  0.26803  0.73384  0.15723  1.0000
  H   H781      1.0  0.35019  0.50302  0.09219  1.0000
  H   H782      1.0  0.42883  0.83813  0.08384  1.0000
  H   H783      1.0  0.24979  0.75303  0.46269  1.0000
  H   H784      1.0  0.24538  0.76432  0.41483  1.0000
  H   H785      1.0  0.48198  0.58995  0.06997  1.0000
  C   C511      1.0  0.44400  0.59213  0.04411  1.0000
  S   S216      1.0  0.24332  0.77085  0.13180  1.0000
  H   H786      1.0  0.36075  0.55591  0.06486  1.0000
  H   H787      1.0  0.45294  0.86538  0.10063  1.0000
  H   H788      1.0  0.43821  0.97417  0.39657  1.0000
  S   S217      1.0  0.45346  0.90763  0.06376  1.0000
  H   H789      1.0  0.43046  0.62263  0.08027  1.0000
  H   H790      1.0  0.38368  0.50104  0.04704  1.0000
  H   H791      1.0  0.44793  0.94165  0.47873  1.0000
  Fe  Fe109     1.0  0.41823  0.89504  0.00047  1.0000
  H   H792      1.0  0.28618  0.74030  0.13116  1.0000
  H   H793      1.0  0.28996  0.84569  0.20895  1.0000
  C   C512      1.0  0.44009  0.87004  0.11555  1.0000
  H   H794      1.0  0.44775  0.87793  0.13307  1.0000
  H   H795      1.0  0.45633  0.63114  0.08866  1.0000
  H   H796      1.0  0.40518  0.85475  0.09282  1.0000
  C   C513      1.0  0.35675  0.54327  0.07922  1.0000
  H   H797      1.0  0.29569  0.72366  0.15929  1.0000
  H   H798      1.0  0.30164  0.71181  0.09967  1.0000
  H   H799      1.0  0.28349  0.68688  0.16310  1.0000
  C   C514      1.0  0.41368  0.85819  0.14629  1.0000
  H   H800      1.0  0.26671  0.67696  0.13675  1.0000
  H   H801      1.0  0.42379  0.53893  0.46969  1.0000
  C   C515      1.0  0.45058  0.64739  0.40310  1.0000
  C   C516      1.0  0.40738  0.97868  0.08688  1.0000
  H   H802      1.0  0.26956  0.83261  0.19099  1.0000
  H   H803      1.0  0.45001  0.60437  0.09612  1.0000
  N   N49       1.0  0.42915  0.85144  0.12452  1.0000
  C   C517      1.0  0.43259  0.96382  0.32871  1.0000
  C   C518      1.0  0.45228  0.62797  0.03383  1.0000
  H   H804      1.0  0.34570  0.55910  0.22764  1.0000
  C   C519      1.0  0.38065  0.96407  0.46133  1.0000
  C   C520      1.0  0.47511  0.61714  0.39067  1.0000
  H   H805      1.0  0.42231  0.98564  0.03637  1.0000
  H   H806      1.0  0.37711  0.52751  0.03406  1.0000
  N   N50       1.0  0.37667  0.54385  0.36720  1.0000
  C   C521      1.0  0.39867  0.54404  0.37819  1.0000
  C   C522      1.0  0.36726  0.56607  0.36391  1.0000
  C   C523      1.0  0.36349  0.53250  0.38631  1.0000
  C   C524      1.0  0.37728  0.53279  0.34036  1.0000
  H   H807      1.0  0.40626  0.52753  0.38118  1.0000
  H   H808      1.0  0.39882  0.55228  0.39845  1.0000
  H   H809      1.0  0.29271  0.68548  0.10103  1.0000
  H   H810      1.0  0.36721  0.57510  0.38365  1.0000
  H   H811      1.0  0.37652  0.57494  0.34910  1.0000
  H   H812      1.0  0.35046  0.56665  0.35633  1.0000
  H   H813      1.0  0.36223  0.54072  0.40654  1.0000
  H   H814      1.0  0.37049  0.51586  0.38997  1.0000
  H   H815      1.0  0.34692  0.53158  0.37839  1.0000
  H   H816      1.0  0.36093  0.53180  0.33174  1.0000
  H   H817      1.0  0.38501  0.51620  0.34199  1.0000
  H   H818      1.0  0.38664  0.54127  0.32527  1.0000
  S   S218      1.0  0.46743  0.95275  0.01320  1.0000
  H   H819      1.0  0.26650  0.72989  0.42572  1.0000
  S   S219      1.0  0.35440  0.61767  0.00219  1.0000
  H   H820      1.0  0.39459  0.95236  0.46551  1.0000
  H   H821      1.0  0.25522  0.86432  0.26717  1.0000
  C   C525      1.0  0.44788  0.61745  0.08082  1.0000
  C   C526      1.0  0.40498  0.96796  0.36297  1.0000
  H   H822      1.0  0.43286  0.94608  0.32980  1.0000
  N   N51       1.0  0.37242  0.52438  0.07735  1.0000
  H   H823      1.0  0.42181  0.86458  0.16459  1.0000
  C   C527      1.0  0.44663  0.95891  0.47866  1.0000
  H   H824      1.0  0.25740  0.82470  0.26427  1.0000
  Fe  Fe110     1.0  0.45146  0.92287  0.02216  1.0000
  C   C528      1.0  0.44435  0.96707  0.07818  1.0000
  C   C529      1.0  0.37851  0.52444  0.45821  1.0000
  H   H825      1.0  0.40180  0.96737  0.07122  1.0000
  C   C530      1.0  0.40827  0.49371  0.27035  1.0000
  C   C531      1.0  0.45271  0.63512  0.35621  1.0000
  Fe  Fe111     1.0  0.45283  0.87668  0.04009  1.0000
  H   H826      1.0  0.48476  0.61874  0.40966  1.0000
  H   H827      1.0  0.40906  0.55240  0.36414  1.0000
  C   C532      1.0  0.42669  0.54755  0.48914  1.0000
  H   H828      1.0  0.43752  0.63694  0.40744  1.0000
  N   N52       1.0  0.35850  0.86129  0.36485  1.0000
  C   C533      1.0  0.36967  0.84753  0.34383  1.0000
  C   C534      1.0  0.33777  0.85300  0.37138  1.0000
  C   C535      1.0  0.35468  0.88324  0.35424  1.0000
  C   C536      1.0  0.37193  0.86147  0.38984  1.0000
  H   H829      1.0  0.38528  0.85357  0.33828  1.0000
  H   H830      1.0  0.35998  0.84700  0.32471  1.0000
  H   H831      1.0  0.37297  0.83084  0.35113  1.0000
  H   H832      1.0  0.33995  0.83632  0.37908  1.0000
  H   H833      1.0  0.32901  0.86297  0.38730  1.0000
  H   H834      1.0  0.32714  0.85293  0.35301  1.0000
  H   H835      1.0  0.34644  0.89422  0.36953  1.0000
  H   H836      1.0  0.34451  0.88376  0.33550  1.0000
  H   H837      1.0  0.36998  0.88981  0.34873  1.0000
  H   H838      1.0  0.37478  0.84525  0.39880  1.0000
  H   H839      1.0  0.36437  0.87224  0.40590  1.0000
  H   H840      1.0  0.38789  0.86718  0.38541  1.0000
  H   H841      1.0  0.44588  0.57851  0.05862  1.0000
  C   C537      1.0  0.25930  0.71398  0.10990  1.0000
  N   N53       1.0  0.37709  0.54318  0.22170  1.0000
  C   C538      1.0  0.37035  0.52205  0.22938  1.0000
  C   C539      1.0  0.39917  0.54515  0.23153  1.0000
  C   C540      1.0  0.36257  0.56021  0.23431  1.0000
  C   C541      1.0  0.37636  0.54536  0.19160  1.0000
  H   H842      1.0  0.38135  0.50886  0.22083  1.0000
  H   H843      1.0  0.35393  0.51967  0.22185  1.0000
  H   H844      1.0  0.37030  0.51998  0.25199  1.0000
  H   H845      1.0  0.40463  0.56108  0.22664  1.0000
  H   H846      1.0  0.36649  0.51386  0.11822  1.0000
  H   H847      1.0  0.41071  0.53274  0.22221  1.0000
  H   H848      1.0  0.36710  0.57638  0.22868  1.0000
  H   H849      1.0  0.36309  0.55930  0.25705  1.0000
  H   H850      1.0  0.45857  0.97039  0.37105  1.0000
  C   C542      1.0  0.37737  0.54675  0.45946  1.0000
  H   H851      1.0  0.39265  0.97345  0.34748  1.0000
  H   H852      1.0  0.46997  0.65056  0.29773  1.0000
  C   C543      1.0  0.44521  0.83491  0.13511  1.0000
  C   C544      1.0  0.36649  0.50797  0.09671  1.0000
  N   N54       1.0  0.45576  0.61024  0.05353  1.0000
  C   C545      1.0  0.39400  0.53067  0.08424  1.0000
  C   C546      1.0  0.36413  0.51346  0.47336  1.0000
  H   H853      1.0  0.45770  0.62294  0.01291  1.0000
  C   C547      1.0  0.37240  0.51562  0.04919  1.0000
  H   H854      1.0  0.46285  0.60586  0.39504  1.0000
  H   H855      1.0  0.43499  0.63351  0.03191  1.0000
  H   H856      1.0  0.35621  0.51119  0.04310  1.0000
  H   H857      1.0  0.38602  0.97608  0.44690  1.0000
  C   C548      1.0  0.48198  0.65254  0.37629  1.0000
  S   S220      1.0  0.37973  0.98860  0.29326  1.0000
  H   H858      1.0  0.39995  0.97513  0.38308  1.0000
  H   H859      1.0  0.30974  0.69456  0.12761  1.0000
  H   H860      1.0  0.48824  0.61664  0.06232  1.0000
  H   H861      1.0  0.26000  0.87968  0.23734  1.0000
  H   H862      1.0  0.44875  0.96778  0.32228  1.0000
  H   H863      1.0  0.39453  0.53776  0.10517  1.0000
  H   H864      1.0  0.44537  0.65060  0.34820  1.0000
  N   N55       1.0  0.42639  0.97395  0.35520  1.0000
  C   C549      1.0  0.44215  0.96651  0.37643  1.0000
  H   H865      1.0  0.43947  0.62477  0.35966  1.0000
  H   H866      1.0  0.26352  0.81148  0.23229  1.0000
  S   S221      1.0  0.33430  0.55961  0.01538  1.0000
  H   H867      1.0  0.40796  0.97012  0.10680  1.0000
  H   H868      1.0  0.39489  0.49611  0.28422  1.0000
  C   C550      1.0  0.48663  0.65210  0.30252  1.0000
  H   H869      1.0  0.25466  0.69990  0.09796  1.0000
  H   H870      1.0  0.24484  0.72113  0.12075  1.0000
  H   H871      1.0  0.36496  0.49623  0.47267  1.0000
  H   H872      1.0  0.34102  0.98238  0.46977  1.0000
  H   H873      1.0  0.24994  0.71570  0.40299  1.0000
  C   C551      1.0  0.34876  0.52484  0.48990  1.0000
  H   H874      1.0  0.44041  0.55734  0.48579  1.0000
  H   H875      1.0  0.44519  0.50750  0.48672  1.0000
  C   C552      1.0  0.34807  0.54715  0.49170  1.0000
  S   S222      1.0  0.46635  0.84462  0.54548  1.0000
  S   S223      1.0  0.41967  0.93290  0.53380  1.0000
  H   H876      1.0  0.25484  0.76319  0.92381  1.0000
  H   H877      1.0  0.34399  0.89618  0.87792  1.0000
  S   S224      1.0  0.41522  0.88305  0.54493  1.0000
  H   H878      1.0  0.40170  0.51524  0.87793  1.0000
  S   S225      1.0  0.39603  0.88814  0.96538  1.0000
  Fe  Fe112     1.0  0.42126  0.91185  0.57045  1.0000
  S   S226      1.0  0.40236  0.92933  0.60428  1.0000
  H   H879      1.0  0.39439  0.52724  0.68565  1.0000
  S   S227      1.0  0.24941  0.76058  0.55462  1.0000
  Fe  Fe113     1.0  0.39090  0.92753  0.81795  1.0000
  S   S228      1.0  0.35736  0.94263  0.81984  1.0000
  S   S229      1.0  0.41381  0.93274  0.85282  1.0000
  Fe  Fe114     1.0  0.38549  0.91389  0.75878  1.0000
  S   S230      1.0  0.35175  0.92896  0.75598  1.0000
  S   S231      1.0  0.40104  0.89336  0.72506  1.0000
  Fe  Fe115     1.0  0.36447  0.95646  0.77897  1.0000
  H   H880      1.0  0.26737  0.68790  0.63064  1.0000
  Fe  Fe116     1.0  0.34776  0.91379  0.79694  1.0000
  S   S232      1.0  0.31604  0.90080  0.80736  1.0000
  S   S233      1.0  0.39858  0.94269  0.77809  1.0000
  S   S234      1.0  0.38088  0.89721  0.79878  1.0000
  H   H881      1.0  0.47275  0.65680  0.78751  1.0000
  S   S235      1.0  0.28980  0.80529  0.81366  1.0000
  Fe  Fe117     1.0  0.35343  0.63603  0.54239  1.0000
  S   S236      1.0  0.38893  0.62900  0.55045  1.0000
  S   S237      1.0  0.33960  0.67027  0.54834  1.0000
  Fe  Fe118     1.0  0.34734  0.59036  0.52727  1.0000
  S   S238      1.0  0.38177  0.58036  0.53425  1.0000
  N   N56       1.0  0.45088  0.66266  0.86689  1.0000
  Fe  Fe119     1.0  0.37911  0.60010  0.57225  1.0000
  S   S239      1.0  0.39537  0.58137  0.60701  1.0000
  H   H882      1.0  0.40527  0.57428  0.72836  1.0000
  H   H883      1.0  0.37808  0.94535  0.51019  1.0000
  S   S240      1.0  0.34377  0.60835  0.56716  1.0000
  C   C553      1.0  0.44139  0.49216  0.73873  1.0000
  C   C554      1.0  0.43963  0.67403  0.84390  1.0000
  H   H884      1.0  0.40066  0.97734  0.88118  1.0000
  S   S241      1.0  0.39739  0.50469  0.93710  1.0000
  Fe  Fe120     1.0  0.43104  0.56950  0.78959  1.0000
  S   S242      1.0  0.40206  0.59289  0.78758  1.0000
  S   S243      1.0  0.41955  0.53652  0.79567  1.0000
  Fe  Fe121     1.0  0.46067  0.60609  0.79206  1.0000
  S   S244      1.0  0.43343  0.63153  0.79040  1.0000
  H   H885      1.0  0.30625  0.90398  0.88990  1.0000
  Fe  Fe122     1.0  0.41776  0.61105  0.82034  1.0000
  S   S245      1.0  0.39696  0.62467  0.85476  1.0000
  Fe  Fe123     1.0  0.42034  0.61082  0.75769  1.0000
  S   S246      1.0  0.40121  0.62622  0.72275  1.0000
  S   S247      1.0  0.44574  0.58685  0.82457  1.0000
  S   S248      1.0  0.44863  0.58627  0.75702  1.0000
  C   C555      1.0  0.40590  0.55743  0.72096  1.0000
  H   H886      1.0  0.26109  0.78893  0.68422  1.0000
  C   C556      1.0  0.27205  0.70053  0.61662  1.0000
  H   H887      1.0  0.40950  0.97404  0.59219  1.0000
  C   C557      1.0  0.38937  0.98498  0.50085  1.0000
  N   N57       1.0  0.43066  0.53265  0.51223  1.0000
  H   H888      1.0  0.33353  0.83926  0.88731  1.0000
  H   H889      1.0  0.27279  0.74159  0.93640  1.0000
  H   H890      1.0  0.25791  0.70537  0.60342  1.0000
  C   C558      1.0  0.45417  0.97034  0.89290  1.0000
  H   H891      1.0  0.48935  0.80369  0.53995  1.0000
  H   H892      1.0  0.26697  0.74231  0.66148  1.0000
  H   H893      1.0  0.44409  0.65421  0.90841  1.0000
  C   C559      1.0  0.39840  0.59541  0.63787  1.0000
  C   C560      1.0  0.38410  0.61282  0.64493  1.0000
  C   C561      1.0  0.38548  0.62247  0.67084  1.0000
  C   C562      1.0  0.40129  0.61493  0.68966  1.0000
  C   C563      1.0  0.41619  0.59813  0.68213  1.0000
  C   C564      1.0  0.41454  0.58817  0.65643  1.0000
  H   H894      1.0  0.37167  0.61857  0.63067  1.0000
  H   H895      1.0  0.37408  0.63565  0.67645  1.0000
  H   H896      1.0  0.42888  0.59276  0.69617  1.0000
  H   H897      1.0  0.42582  0.57488  0.65087  1.0000
  C   C565      1.0  0.41155  0.61285  0.94549  1.0000
  C   C566      1.0  0.39164  0.62223  0.93703  1.0000
  C   C567      1.0  0.38726  0.62531  0.90906  1.0000
  C   C568      1.0  0.40257  0.61865  0.88935  1.0000
  C   C569      1.0  0.42228  0.60858  0.89772  1.0000
  C   C570      1.0  0.42685  0.60597  0.92578  1.0000
  H   H898      1.0  0.37980  0.62772  0.95205  1.0000
  H   H899      1.0  0.37201  0.63316  0.90273  1.0000
  H   H900      1.0  0.43410  0.60309  0.88272  1.0000
  H   H901      1.0  0.44225  0.59856  0.93225  1.0000
  C   C571      1.0  0.43968  0.51054  0.75559  1.0000
  H   H902      1.0  0.42119  0.65705  0.88619  1.0000
  C   C572      1.0  0.42509  0.97191  0.95357  1.0000
  C   C573      1.0  0.37885  0.51962  0.95803  1.0000
  C   C574      1.0  0.38094  0.54146  0.96170  1.0000
  Fe  Fe124     1.0  0.45130  0.87862  0.54104  1.0000
  Fe  Fe125     1.0  0.25516  0.79684  0.81565  1.0000
  S   S249      1.0  0.24683  0.78052  0.62959  1.0000
  H   H903      1.0  0.39399  0.54882  0.95240  1.0000
  C   C575      1.0  0.38370  0.98165  0.87526  1.0000
  C   C576      1.0  0.31185  0.67779  0.54668  1.0000
  C   C577      1.0  0.30480  0.69960  0.54715  1.0000
  C   C578      1.0  0.28284  0.70629  0.54661  1.0000
  C   C579      1.0  0.26769  0.69120  0.54593  1.0000
  C   C580      1.0  0.27472  0.66937  0.54533  1.0000
  C   C581      1.0  0.29674  0.66266  0.54564  1.0000
  H   H904      1.0  0.31643  0.71137  0.54775  1.0000
  H   H905      1.0  0.27772  0.72310  0.54672  1.0000
  H   H906      1.0  0.26311  0.65759  0.54475  1.0000
  H   H907      1.0  0.30201  0.64581  0.54524  1.0000
  C   C582      1.0  0.30910  0.87405  0.80647  1.0000
  C   C583      1.0  0.28757  0.87023  0.81006  1.0000
  C   C584      1.0  0.28139  0.84927  0.81168  1.0000
  C   C585      1.0  0.29673  0.83185  0.80977  1.0000
  C   C586      1.0  0.31829  0.83564  0.80587  1.0000
  C   C587      1.0  0.32448  0.85665  0.80423  1.0000
  H   H908      1.0  0.27556  0.88358  0.81195  1.0000
  H   H909      1.0  0.26478  0.84662  0.81483  1.0000
  H   H910      1.0  0.33028  0.82223  0.80458  1.0000
  H   H911      1.0  0.34119  0.85934  0.80206  1.0000
  H   H912      1.0  0.45224  0.52134  0.75568  1.0000
  H   H913      1.0  0.36996  0.51247  0.60689  1.0000
  H   H914      1.0  0.39241  0.50302  0.78621  1.0000
  Fe  Fe126     1.0  0.41675  0.90391  0.50795  1.0000
  H   H915      1.0  0.38380  0.58102  0.86098  1.0000
  C   C588      1.0  0.26215  0.72802  0.65010  1.0000
  C   C589      1.0  0.40259  0.91919  0.63780  1.0000
  C   C590      1.0  0.39222  0.93158  0.65860  1.0000
  C   C591      1.0  0.39195  0.92396  0.68555  1.0000
  C   C592      1.0  0.40191  0.90382  0.69177  1.0000
  C   C593      1.0  0.41223  0.89141  0.67097  1.0000
  C   C594      1.0  0.41268  0.89911  0.64404  1.0000
  H   H916      1.0  0.38436  0.94712  0.65386  1.0000
  H   H917      1.0  0.38397  0.93364  0.70146  1.0000
  H   H918      1.0  0.41996  0.87581  0.67569  1.0000
  H   H919      1.0  0.42067  0.88947  0.62811  1.0000
  C   C595      1.0  0.40121  0.90051  0.93416  1.0000
  C   C596      1.0  0.41980  0.91090  0.93056  1.0000
  C   C597      1.0  0.42359  0.92067  0.90550  1.0000
  C   C598      1.0  0.40885  0.92005  0.88387  1.0000
  C   C599      1.0  0.39031  0.90953  0.88735  1.0000
  C   C600      1.0  0.38652  0.89979  0.91248  1.0000
  H   H920      1.0  0.43140  0.91113  0.94698  1.0000
  H   H921      1.0  0.43813  0.92840  0.90281  1.0000
  H   H922      1.0  0.37899  0.90896  0.87065  1.0000
  H   H923      1.0  0.37223  0.89170  0.91532  1.0000
  N   N58       1.0  0.32319  0.87273  0.89072  1.0000
  H   H924      1.0  0.32204  0.52574  0.56176  1.0000
  H   H925      1.0  0.29507  0.69949  0.66325  1.0000
  C   C601      1.0  0.42209  0.51446  0.77293  1.0000
  H   H926      1.0  0.40759  0.51122  0.49924  1.0000
  H   H927      1.0  0.41487  0.54747  0.73656  1.0000
  H   H928      1.0  0.45293  0.95880  0.87563  1.0000
  C   C602      1.0  0.24256  0.71863  0.95733  1.0000
  Fe  Fe127     1.0  0.45486  0.92549  0.53115  1.0000
  H   H929      1.0  0.35831  0.96446  0.52455  1.0000
  S   S250      1.0  0.47016  0.95621  0.52602  1.0000
  H   H930      1.0  0.30584  0.84496  0.89624  1.0000
  C   C603      1.0  0.41871  0.98164  0.60861  1.0000
  H   H931      1.0  0.41694  0.52896  0.85377  1.0000
  C   C604      1.0  0.45635  0.64012  0.85901  1.0000
  N   N59       1.0  0.27940  0.71899  0.63186  1.0000
  H   H932      1.0  0.24745  0.73338  0.63824  1.0000
  H   H933      1.0  0.43658  0.94221  0.97241  1.0000
  C   C605      1.0  0.39403  0.98938  0.82909  1.0000
  H   H934      1.0  0.29936  0.88653  0.86275  1.0000
  H   H935      1.0  0.34432  0.56773  0.60370  1.0000
  H   H936      1.0  0.39699  0.53281  0.52066  1.0000
  H   H937      1.0  0.35217  0.94880  0.49490  1.0000
  H   H938      1.0  0.41092  0.54257  0.91082  1.0000
  H   H939      1.0  0.46720  0.63871  0.84106  1.0000
  H   H940      1.0  0.33359  0.53947  0.63484  1.0000
  C   C606      1.0  0.40608  0.50016  0.77287  1.0000
  H   H941      1.0  0.46358  0.52486  0.50142  1.0000
  H   H942      1.0  0.42263  0.55687  0.54271  1.0000
  H   H943      1.0  0.25771  0.71619  0.66540  1.0000
  H   H944      1.0  0.37520  0.98761  0.89411  1.0000
  H   H945      1.0  0.35936  0.54204  0.87115  1.0000
  H   H946      1.0  0.45671  0.96092  0.91205  1.0000
  C   C607      1.0  0.36664  0.52948  0.60100  1.0000
  C   C608      1.0  0.36195  0.51034  0.97059  1.0000
  H   H947      1.0  0.41664  0.97235  0.62762  1.0000
  C   C609      1.0  0.38580  0.52849  0.70555  1.0000
  N   N60       1.0  0.39232  0.54884  0.87425  1.0000
  C   C610      1.0  0.39011  0.56520  0.85262  1.0000
  C   C611      1.0  0.40062  0.52811  0.86229  1.0000
  H   H948      1.0  0.42301  0.55876  0.88640  1.0000
  H   H949      1.0  0.43297  0.68036  0.89827  1.0000
  C   C612      1.0  0.45196  0.96854  0.98967  1.0000
  H   H950      1.0  0.37125  0.53951  0.61860  1.0000
  C   C613      1.0  0.41130  0.52137  0.51713  1.0000
  C   C614      1.0  0.24395  0.78807  0.68490  1.0000
  C   C615      1.0  0.33008  0.52979  0.61646  1.0000
  C   C616      1.0  0.43592  0.54480  0.53708  1.0000
  H   H951      1.0  0.28480  0.69310  0.60295  1.0000
  H   H952      1.0  0.37745  0.53266  0.58381  1.0000
  H   H953      1.0  0.42462  0.66663  0.83830  1.0000
  H   H954      1.0  0.24197  0.79488  0.72832  1.0000
  C   C617      1.0  0.36481  0.95757  0.50498  1.0000
  H   H955      1.0  0.37907  0.56072  0.83603  1.0000
  N   N61       1.0  0.34125  0.87113  0.71231  1.0000
  C   C618      1.0  0.34669  0.87165  0.74177  1.0000
  C   C619      1.0  0.35777  0.85733  0.69764  1.0000
  C   C620      1.0  0.34039  0.89299  0.70117  1.0000
  C   C621      1.0  0.32016  0.86255  0.70875  1.0000
  H   H956      1.0  0.33469  0.88213  0.75347  1.0000
  H   H957      1.0  0.36259  0.87783  0.74526  1.0000
  H   H958      1.0  0.34734  0.85543  0.75087  1.0000
  H   H959      1.0  0.35424  0.85661  0.67531  1.0000
  H   H960      1.0  0.37386  0.86346  0.69997  1.0000
  H   H961      1.0  0.35901  0.84073  0.70561  1.0000
  H   H962      1.0  0.33658  0.89320  0.67889  1.0000
  H   H963      1.0  0.35603  0.89995  0.70378  1.0000
  H   H964      1.0  0.32807  0.90388  0.71170  1.0000
  H   H965      1.0  0.31544  0.86196  0.68676  1.0000
  H   H966      1.0  0.30740  0.87258  0.71977  1.0000
  H   H967      1.0  0.32025  0.84606  0.71699  1.0000
  C   C622      1.0  0.45084  0.95945  0.59769  1.0000
  H   H968      1.0  0.41332  0.51071  0.53520  1.0000
  H   H969      1.0  0.43906  0.53414  0.55499  1.0000
  H   H970      1.0  0.46451  0.63085  0.87596  1.0000
  C   C623      1.0  0.37119  0.54671  0.88667  1.0000
  C   C624      1.0  0.31908  0.85049  0.88381  1.0000
  S   S251      1.0  0.45227  0.89777  0.50220  1.0000
  H   H971      1.0  0.33965  0.50398  0.57441  1.0000
  C   C625      1.0  0.43770  0.95925  0.97203  1.0000
  H   H972      1.0  0.31561  0.86952  0.93332  1.0000
  H   H973      1.0  0.33781  0.87760  0.85186  1.0000
  H   H974      1.0  0.34342  0.86369  0.92525  1.0000
  H   H975      1.0  0.49119  0.81909  0.62214  1.0000
  C   C626      1.0  0.25670  0.75018  0.93923  1.0000
  S   S252      1.0  0.45705  0.90601  0.56956  1.0000
  H   H976      1.0  0.25823  0.70907  0.95496  1.0000
  C   C627      1.0  0.30379  0.88706  0.88484  1.0000
  H   H977      1.0  0.33205  0.89083  0.92600  1.0000
  H   H978      1.0  0.40366  0.97366  0.50495  1.0000
  H   H979      1.0  0.40577  0.56729  0.84293  1.0000
  H   H980      1.0  0.28981  0.88250  0.89670  1.0000
  C   C628      1.0  0.33860  0.52128  0.56933  1.0000
  H   H981      1.0  0.38093  0.56461  0.67641  1.0000
  H   H982      1.0  0.35615  0.54618  0.74012  1.0000
  C   C629      1.0  0.36641  0.55392  0.97796  1.0000
  Fe  Fe128     1.0  0.38854  0.60960  0.51162  1.0000
  H   H983      1.0  0.25650  0.75795  0.95983  1.0000
  H   H984      1.0  0.36808  0.57081  0.98028  1.0000
  H   H985      1.0  0.36973  0.52260  0.70232  1.0000
  C   C630      1.0  0.40743  0.55537  0.89545  1.0000
  H   H986      1.0  0.40091  0.57002  0.90657  1.0000
  C   C631      1.0  0.48806  0.65904  0.79689  1.0000
  H   H987      1.0  0.25571  0.71627  0.90500  1.0000
  H   H988      1.0  0.44180  0.63218  0.85328  1.0000
  C   C632      1.0  0.44874  0.51689  0.50543  1.0000
  C   C633      1.0  0.43672  0.66363  0.89104  1.0000
  H   H989      1.0  0.25397  0.80690  0.94183  1.0000
  H   H990      1.0  0.32355  0.56168  0.57977  1.0000
  H   H991      1.0  0.33242  0.51264  0.62231  1.0000
  H   H992      1.0  0.31286  0.53329  0.61115  1.0000
  C   C634      1.0  0.47072  0.67278  0.87358  1.0000
  H   H993      1.0  0.35195  0.98806  0.83805  1.0000
  H   H994      1.0  0.31186  0.70517  0.63502  1.0000
  C   C635      1.0  0.34040  0.55723  0.58623  1.0000
  H   H995      1.0  0.38101  0.54098  0.75821  1.0000
  N   N62       1.0  0.44155  0.98168  0.60134  1.0000
  H   H996      1.0  0.41427  0.96448  0.93982  1.0000
  H   H997      1.0  0.43516  0.69109  0.84910  1.0000
  H   H998      1.0  0.34950  0.52348  0.55188  1.0000
  H   H999      1.0  0.47938  0.66476  0.89113  1.0000
  H   H1000     1.0  0.35605  0.56068  0.69292  1.0000
  H   H1001     1.0  0.37099  0.56800  0.75126  1.0000
  H   H1002     1.0  0.29021  0.74981  0.62303  1.0000
  H   H1003     1.0  0.41241  0.55892  0.49286  1.0000
  C   C636      1.0  0.34113  0.87918  0.87410  1.0000
  C   C637      1.0  0.32878  0.87425  0.92010  1.0000
  H   H1004     1.0  0.36465  0.56194  0.89644  1.0000
  H   H1005     1.0  0.41550  0.55616  0.70187  1.0000
  S   S253      1.0  0.41796  0.61042  0.98054  1.0000
  H   H1006     1.0  0.45219  0.50533  0.52236  1.0000
  C   C638      1.0  0.29855  0.71199  0.64830  1.0000
  N   N63       1.0  0.47157  0.98441  0.88869  1.0000
  C   C639      1.0  0.28484  0.73548  0.61232  1.0000
  H   H1007     1.0  0.43529  0.98575  0.55827  1.0000
  H   H1008     1.0  0.29770  0.72928  0.59802  1.0000
  H   H1009     1.0  0.27069  0.74111  0.59977  1.0000
  H   H1010     1.0  0.37219  0.53427  0.90280  1.0000
  N   N64       1.0  0.38420  0.55059  0.71640  1.0000
  H   H1011     1.0  0.46677  0.98588  0.84506  1.0000
  H   H1012     1.0  0.39479  0.51726  0.71985  1.0000
  H   H1013     1.0  0.41119  0.98518  0.83411  1.0000
  C   C640      1.0  0.37253  0.55149  0.74263  1.0000
  H   H1014     1.0  0.24216  0.72546  0.97848  1.0000
  C   C641      1.0  0.37265  0.56505  0.69652  1.0000
  H   H1015     1.0  0.46802  0.95876  0.59184  1.0000
  H   H1016     1.0  0.31436  0.84891  0.86193  1.0000
  H   H1017     1.0  0.35627  0.86921  0.87856  1.0000
  N   N65       1.0  0.34392  0.53441  0.59328  1.0000
  H   H1018     1.0  0.30450  0.72558  0.66003  1.0000
  H   H1019     1.0  0.36007  0.49357  0.96770  1.0000
  H   H1020     1.0  0.45032  0.55368  0.53397  1.0000
  S   S254      1.0  0.33087  0.56139  0.51493  1.0000
  H   H1021     1.0  0.35072  0.56106  0.56886  1.0000
  H   H1022     1.0  0.39018  0.52309  0.84532  1.0000
  H   H1023     1.0  0.44976  0.67362  0.82528  1.0000
  H   H1024     1.0  0.43840  0.97969  0.89476  1.0000
  H   H1025     1.0  0.48195  0.67185  0.85597  1.0000
  S   S255      1.0  0.35391  0.61861  0.50176  1.0000
  H   H1026     1.0  0.44237  0.95124  0.58116  1.0000
  H   H1027     1.0  0.46734  0.68997  0.87893  1.0000
  S   S256      1.0  0.24370  0.77108  0.78789  1.0000
  H   H1028     1.0  0.48334  0.69352  0.79637  1.0000
  H   H1029     1.0  0.38761  0.97463  0.82110  1.0000
  H   H1030     1.0  0.37697  0.96657  0.86874  1.0000
  H   H1031     1.0  0.45212  0.98352  0.64320  1.0000
  C   C642      1.0  0.34742  0.52287  0.98710  1.0000
  C   C643      1.0  0.45671  0.97016  0.49913  1.0000
  H   H1032     1.0  0.37163  0.58197  0.70385  1.0000
  H   H1033     1.0  0.33776  0.51631  0.50172  1.0000
  H   H1034     1.0  0.44949  0.94991  0.61663  1.0000
  C   C644      1.0  0.34996  0.54460  0.99128  1.0000
  C   C645      1.0  0.63158  0.29101  0.44999  1.0000
  H   H1035     1.0  0.60109  0.28154  0.25367  1.0000
  H   H1036     1.0  0.61727  0.29836  0.04649  1.0000
  H   H1037     1.0  0.66141  0.31927  0.45873  1.0000
  H   H1038     1.0  0.51941  0.28802  0.34070  1.0000
  H   H1039     1.0  0.52483  0.10400  0.21495  1.0000
  H   H1040     1.0  0.50058  0.08733  0.27974  1.0000
  H   H1041     1.0  0.63909  0.33140  0.43963  1.0000
  H   H1042     1.0  0.54885  0.28305  0.00168  1.0000
  H   H1043     1.0  0.58807  0.20879  0.37057  1.0000
  S   S257      1.0  0.55041  0.24800  0.35516  1.0000
  H   H1044     1.0  0.64812  0.28338  0.44760  1.0000
  C   C646      1.0  0.54876  0.27397  0.04424  1.0000
  C   C647      1.0  0.55366  0.25408  0.32037  1.0000
  S   S258      1.0  0.54882  0.26355  0.09839  1.0000
  S   S259      1.0  0.57956  0.26376  0.48157  1.0000
  H   H1045     1.0  0.65143  0.30540  0.23706  1.0000
  C   C648      1.0  0.63806  0.29521  0.09479  1.0000
  Fe  Fe129     1.0  0.57579  0.31316  0.40463  1.0000
  S   S260      1.0  0.58278  0.27808  0.40992  1.0000
  S   S261      1.0  0.60579  0.32850  0.39489  1.0000
  Fe  Fe130     1.0  0.69055  0.26260  0.31255  1.0000
  S   S262      1.0  0.70868  0.29191  0.31479  1.0000
  S   S263      1.0  0.65458  0.26389  0.31237  1.0000
  H   H1046     1.0  0.50774  0.26203  0.37399  1.0000
  H   H1047     1.0  0.63574  0.29161  0.19438  1.0000
  H   H1048     1.0  0.59260  0.22961  0.02404  1.0000
  C   C649      1.0  0.62982  0.23985  0.37530  1.0000
  C   C650      1.0  0.49268  0.38581  0.44450  1.0000
  H   H1049     1.0  0.70961  0.26218  0.17022  1.0000
  S   S264      1.0  0.71142  0.24349  0.34253  1.0000
  S   S265      1.0  0.70770  0.24834  0.27567  1.0000
  Fe  Fe131     1.0  0.71079  0.30130  0.03208  1.0000
  H   H1050     1.0  0.60591  0.21147  0.39923  1.0000
  C   C651      1.0  0.55570  0.27209  0.01697  1.0000
  Fe  Fe132     1.0  0.70768  0.30734  0.09524  1.0000
  H   H1051     1.0  0.53221  0.12918  0.22803  1.0000
  S   S266      1.0  0.68759  0.31584  0.13280  1.0000
  H   H1052     1.0  0.59527  0.22461  0.32637  1.0000
  Fe  Fe133     1.0  0.72115  0.26433  0.07130  1.0000
  S   S267      1.0  0.71167  0.23139  0.08041  1.0000
  C   C652      1.0  0.63859  0.29820  0.24854  1.0000
  S   S268      1.0  0.69211  0.28667  0.06481  1.0000
  Fe  Fe134     1.0  0.56306  0.20275  0.16754  1.0000
  S   S269      1.0  0.54051  0.23263  0.16706  1.0000
  S   S270      1.0  0.55303  0.16875  0.17037  1.0000
  Fe  Fe135     1.0  0.60309  0.22739  0.16357  1.0000
  S   S271      1.0  0.58308  0.25847  0.16241  1.0000
  S   S272      1.0  0.63818  0.23284  0.16859  1.0000
  Fe  Fe136     1.0  0.56418  0.24577  0.19621  1.0000
  S   S273      1.0  0.55942  0.27058  0.22989  1.0000
  Fe  Fe137     1.0  0.56175  0.24271  0.13332  1.0000
  C   C653      1.0  0.53004  0.11236  0.23371  1.0000
  S   S274      1.0  0.58530  0.21533  0.19930  1.0000
  S   S275      1.0  0.58307  0.21213  0.13174  1.0000
  C   C654      1.0  0.65603  0.23347  0.14100  1.0000
  C   C655      1.0  0.66879  0.25065  0.13922  1.0000
  C   C656      1.0  0.68522  0.25044  0.11984  1.0000
  C   C657      1.0  0.68953  0.23268  0.10267  1.0000
  C   C658      1.0  0.67662  0.21557  0.10421  1.0000
  C   C659      1.0  0.65970  0.21607  0.12310  1.0000
  H   H1053     1.0  0.66626  0.26407  0.15321  1.0000
  H   H1054     1.0  0.69507  0.26372  0.11898  1.0000
  H   H1055     1.0  0.67988  0.20176  0.09104  1.0000
  H   H1056     1.0  0.65019  0.20255  0.12470  1.0000
  H   H1057     1.0  0.50232  0.30897  0.35650  1.0000
  H   H1058     1.0  0.62917  0.30834  0.10650  1.0000
  H   H1059     1.0  0.60029  0.25957  0.09766  1.0000
  H   H1060     1.0  0.51047  0.12183  0.29777  1.0000
  C   C660      1.0  0.70085  0.29238  0.43750  1.0000
  C   C661      1.0  0.71166  0.28736  0.41282  1.0000
  H   H1061     1.0  0.49836  0.13966  0.10355  1.0000
  H   H1062     1.0  0.52403  0.13944  0.27631  1.0000
  H   H1063     1.0  0.68364  0.29321  0.43769  1.0000
  H   H1064     1.0  0.70271  0.28459  0.39431  1.0000
  C   C662      1.0  0.52198  0.12234  0.28056  1.0000
  N   N66       1.0  0.61609  0.22495  0.36157  1.0000
  C   C663      1.0  0.73460  0.29491  0.46097  1.0000
  C   C664      1.0  0.70156  0.31007  0.16381  1.0000
  C   C665      1.0  0.69058  0.30455  0.18739  1.0000
  C   C666      1.0  0.70190  0.29913  0.21181  1.0000
  C   C667      1.0  0.71223  0.29637  0.46167  1.0000
  H   H1065     1.0  0.64489  0.29456  0.26950  1.0000
  H   H1066     1.0  0.67340  0.30425  0.18662  1.0000
  H   H1067     1.0  0.69349  0.29468  0.22985  1.0000
  C   C668      1.0  0.55772  0.26352  0.26452  1.0000
  C   C669      1.0  0.55955  0.27936  0.28456  1.0000
  C   C670      1.0  0.55779  0.27460  0.31239  1.0000
  H   H1068     1.0  0.59637  0.25020  0.34237  1.0000
  H   H1069     1.0  0.59744  0.28042  0.05431  1.0000
  C   C671      1.0  0.55746  0.25983  0.06428  1.0000
  C   C672      1.0  0.57320  0.24372  0.05690  1.0000
  C   C673      1.0  0.58039  0.24205  0.02967  1.0000
  H   H1070     1.0  0.57980  0.23257  0.07211  1.0000
  C   C674      1.0  0.72376  0.31068  0.16504  1.0000
  C   C675      1.0  0.61982  0.31220  0.37049  1.0000
  C   C676      1.0  0.60848  0.30117  0.35104  1.0000
  C   C677      1.0  0.61942  0.28720  0.33244  1.0000
  C   C678      1.0  0.64173  0.28354  0.33380  1.0000
  C   C679      1.0  0.65317  0.29464  0.35313  1.0000
  C   C680      1.0  0.64223  0.30915  0.37130  1.0000
  H   H1071     1.0  0.59123  0.30364  0.35011  1.0000
  H   H1072     1.0  0.61046  0.27913  0.31715  1.0000
  H   H1073     1.0  0.67041  0.29190  0.35434  1.0000
  H   H1074     1.0  0.65109  0.31763  0.38632  1.0000
  C   C681      1.0  0.52649  0.16171  0.17458  1.0000
  C   C682      1.0  0.52257  0.14006  0.17269  1.0000
  S   S276      1.0  0.72292  0.32543  0.06168  1.0000
  Fe  Fe138     1.0  0.55286  0.27472  0.38607  1.0000
  S   S277      1.0  0.55682  0.31809  0.44343  1.0000
  Fe  Fe139     1.0  0.52863  0.31128  0.41658  1.0000
  H   H1075     1.0  0.53565  0.12828  0.16792  1.0000
  H   H1076     1.0  0.49939  0.11679  0.17581  1.0000
  S   S278      1.0  0.54740  0.30969  0.37743  1.0000
  N   N67       1.0  0.63088  0.30885  0.46997  1.0000
  H   H1077     1.0  0.55284  0.23048  0.25708  1.0000
  C   C683      1.0  0.55426  0.24277  0.27248  1.0000
  H   H1078     1.0  0.54898  0.22214  0.30645  1.0000
  H   H1079     1.0  0.65007  0.28711  0.10899  1.0000
  H   H1080     1.0  0.63671  0.23314  0.39474  1.0000
  S   S279      1.0  0.49419  0.32540  0.41311  1.0000
  C   C684      1.0  0.55206  0.23811  0.30039  1.0000
  C   C685      1.0  0.63611  0.26245  0.06896  1.0000
  H   H1081     1.0  0.60233  0.32501  0.45314  1.0000
  S   S280      1.0  0.53276  0.27573  0.42387  1.0000
  H   H1082     1.0  0.54602  0.10468  0.23968  1.0000
  H   H1083     1.0  0.69945  0.23806  0.18218  1.0000
  C   C686      1.0  0.50945  0.17684  0.18054  1.0000
  H   H1084     1.0  0.59777  0.30604  0.47934  1.0000
  H   H1085     1.0  0.49493  0.13887  0.24110  1.0000
  H   H1086     1.0  0.58910  0.23405  0.38723  1.0000
  H   H1087     1.0  0.73807  0.22491  0.21934  1.0000
  C   C687      1.0  0.49349  0.12200  0.24718  1.0000
  H   H1088     1.0  0.53655  0.28642  0.04982  1.0000
  H   H1089     1.0  0.64733  0.25340  0.08326  1.0000
  H   H1090     1.0  0.62191  0.26301  0.12101  1.0000
  C   C688      1.0  0.61118  0.27133  0.10552  1.0000
  H   H1091     1.0  0.62556  0.25086  0.05980  1.0000
  C   C689      1.0  0.71291  0.24845  0.18434  1.0000
  H   H1092     1.0  0.64342  0.24342  0.36207  1.0000
  H   H1093     1.0  0.64606  0.24770  0.22286  1.0000
  H   H1094     1.0  0.62072  0.25539  0.38017  1.0000
  H   H1095     1.0  0.63712  0.19722  0.37146  1.0000
  H   H1096     1.0  0.64210  0.20899  0.33896  1.0000
  H   H1097     1.0  0.71263  0.25493  0.20561  1.0000
  N   N68       1.0  0.51433  0.11136  0.25597  1.0000
  H   H1098     1.0  0.50340  0.39558  0.45535  1.0000
  H   H1099     1.0  0.61937  0.19374  0.34297  1.0000
  H   H1100     1.0  0.61840  0.23922  0.32195  1.0000
  H   H1101     1.0  0.64589  0.26848  0.05224  1.0000
  H   H1102     1.0  0.61896  0.27000  0.19594  1.0000
  C   C690      1.0  0.62361  0.28441  0.20705  1.0000
  S   S281      1.0  0.73910  0.27733  0.03630  1.0000
  H   H1103     1.0  0.64714  0.30271  0.07850  1.0000
  H   H1104     1.0  0.55950  0.28692  0.32756  1.0000
  H   H1105     1.0  0.60099  0.28410  0.11624  1.0000
  C   C691      1.0  0.60856  0.29139  0.06356  1.0000
  C   C692      1.0  0.59912  0.21951  0.38052  1.0000
  Fe  Fe140     1.0  0.56243  0.28239  0.44729  1.0000
  N   N69       1.0  0.62350  0.28010  0.08320  1.0000
  H   H1106     1.0  0.56233  0.29542  0.27850  1.0000
  H   H1107     1.0  0.51615  0.35864  0.44107  1.0000
  H   H1108     1.0  0.53767  0.11473  0.28778  1.0000
  C   C693      1.0  0.60614  0.23516  0.33695  1.0000
  C   C694      1.0  0.50292  0.29603  0.34072  1.0000
  C   C695      1.0  0.61512  0.26969  0.25064  1.0000
  H   H1109     1.0  0.60907  0.29586  0.20815  1.0000
  C   C696      1.0  0.62924  0.20532  0.35342  1.0000
  H   H1110     1.0  0.59850  0.30458  0.07370  1.0000
  C   C697      1.0  0.50199  0.13351  0.17718  1.0000
  H   H1111     1.0  0.62597  0.29662  0.42943  1.0000
  H   H1112     1.0  0.51223  0.19358  0.18201  1.0000
  H   H1113     1.0  0.50470  0.25504  0.32449  1.0000
  C   C698      1.0  0.49994  0.36488  0.43644  1.0000
  C   C699      1.0  0.64433  0.32544  0.46026  1.0000
  H   H1114     1.0  0.72484  0.20763  0.19655  1.0000
  C   C700      1.0  0.72420  0.29952  0.21275  1.0000
  C   C701      1.0  0.57161  0.25619  0.00964  1.0000
  H   H1115     1.0  0.50532  0.08013  0.24465  1.0000
  Fe  Fe141     1.0  0.73104  0.27171  0.34235  1.0000
  C   C702      1.0  0.73399  0.28644  0.41203  1.0000
  N   N70       1.0  0.63202  0.27880  0.23463  1.0000
  H   H1116     1.0  0.65792  0.25889  0.25259  1.0000
  C   C703      1.0  0.60859  0.31822  0.47287  1.0000
  Fe  Fe142     1.0  0.72730  0.27632  0.27970  1.0000
  C   C704      1.0  0.65068  0.26288  0.23220  1.0000
  H   H1117     1.0  0.66334  0.26881  0.21914  1.0000
  H   H1118     1.0  0.50018  0.30371  0.32042  1.0000
  H   H1119     1.0  0.60911  0.25557  0.24007  1.0000
  H   H1120     1.0  0.62489  0.31056  0.25068  1.0000
  H   H1121     1.0  0.62108  0.26447  0.27119  1.0000
  H   H1122     1.0  0.52729  0.08002  0.26838  1.0000
  C   C705      1.0  0.51181  0.08877  0.26246  1.0000
  H   H1123     1.0  0.62116  0.27846  0.45643  1.0000
  H   H1124     1.0  0.74090  0.23556  0.39304  1.0000
  H   H1125     1.0  0.72005  0.21733  0.14701  1.0000
  H   H1126     1.0  0.64370  0.33941  0.47444  1.0000
  C   C706      1.0  0.73496  0.30559  0.18940  1.0000
  Fe  Fe143     1.0  0.73078  0.23217  0.30587  1.0000
  S   S282      1.0  0.73652  0.28448  0.10237  1.0000
  H   H1127     1.0  0.73232  0.31555  0.14733  1.0000
  H   H1128     1.0  0.60735  0.33141  0.48823  1.0000
  H   H1129     1.0  0.73074  0.24097  0.13470  1.0000
  H   H1130     1.0  0.73924  0.31877  0.99579  1.0000
  N   N71       1.0  0.73369  0.23657  0.17821  1.0000
  C   C707      1.0  0.73325  0.22793  0.15000  1.0000
  C   C708      1.0  0.73763  0.21886  0.19783  1.0000
  S   S283      1.0  0.73963  0.29182  0.24199  1.0000
  C   C709      1.0  0.55035  0.16535  0.78470  1.0000
  C   C710      1.0  0.62436  0.28730  0.93053  1.0000
  C   C711      1.0  0.49416  0.17103  0.68595  1.0000
  H   H1131     1.0  0.51434  0.35659  0.91291  1.0000
  C   C712      1.0  0.55824  0.27641  0.79054  1.0000
  S   S284      1.0  0.55904  0.30866  0.94196  1.0000
  H   H1132     1.0  0.52973  0.19972  0.76027  1.0000
  N   N72       1.0  0.64428  0.27390  0.93668  1.0000
  C   C713      1.0  0.73108  0.28632  0.91167  1.0000
  H   H1133     1.0  0.57622  0.20695  0.76128  1.0000
  H   H1134     1.0  0.59589  0.25882  0.60579  1.0000
  C   C714      1.0  0.54070  0.18917  0.74729  1.0000
  C   C715      1.0  0.61746  0.26928  0.75749  1.0000
  H   H1135     1.0  0.61210  0.24865  0.57762  1.0000
  H   H1136     1.0  0.54741  0.29216  0.50931  1.0000
  H   H1137     1.0  0.60375  0.29336  0.62833  1.0000
  C   C716      1.0  0.71503  0.30522  0.67126  1.0000
  H   H1138     1.0  0.50801  0.11834  0.69710  1.0000
  Fe  Fe144     1.0  0.57070  0.30397  0.89867  1.0000
  S   S285      1.0  0.57557  0.26834  0.90082  1.0000
  S   S286      1.0  0.59773  0.32123  0.88195  1.0000
  Fe  Fe145     1.0  0.69528  0.26486  0.81001  1.0000
  S   S287      1.0  0.70835  0.29612  0.82019  1.0000
  S   S288      1.0  0.66053  0.25842  0.81208  1.0000
  C   C717      1.0  0.70869  0.29914  0.95999  1.0000
  S   S289      1.0  0.52866  0.26961  0.92855  1.0000
  H   H1139     1.0  0.54137  0.15251  0.77541  1.0000
  Fe  Fe146     1.0  0.52628  0.30538  0.92377  1.0000
  H   H1140     1.0  0.67489  0.26558  0.91790  1.0000
  H   H1141     1.0  0.53103  0.17703  0.73767  1.0000
  Fe  Fe147     1.0  0.72737  0.29052  0.78142  1.0000
  H   H1142     1.0  0.73031  0.19812  0.71948  1.0000
  Fe  Fe148     1.0  0.71546  0.30211  0.53308  1.0000
  H   H1143     1.0  0.58802  0.23521  0.52639  1.0000
  H   H1144     1.0  0.58510  0.18851  0.78778  1.0000
  Fe  Fe149     1.0  0.71238  0.31365  0.59479  1.0000
  H   H1145     1.0  0.63956  0.31383  0.51202  1.0000
  S   S290      1.0  0.69454  0.33014  0.63013  1.0000
  C   C718      1.0  0.49757  0.36150  0.91607  1.0000
  Fe  Fe150     1.0  0.72649  0.26887  0.57699  1.0000
  S   S291      1.0  0.71810  0.23630  0.59028  1.0000
  N   N73       1.0  0.72292  0.22679  0.69619  1.0000
  S   S292      1.0  0.69701  0.29017  0.56821  1.0000
  Fe  Fe151     1.0  0.56648  0.20580  0.67093  1.0000
  S   S293      1.0  0.54210  0.23423  0.67202  1.0000
  S   S294      1.0  0.55879  0.17131  0.67664  1.0000
  Fe  Fe152     1.0  0.60462  0.23314  0.66545  1.0000
  S   S295      1.0  0.58257  0.26296  0.66549  1.0000
  S   S296      1.0  0.63864  0.24251  0.67002  1.0000
  Fe  Fe153     1.0  0.56561  0.24874  0.69994  1.0000
  H   H1146     1.0  0.63997  0.26978  0.55903  1.0000
  Fe  Fe154     1.0  0.56147  0.24597  0.63735  1.0000
  C   C719      1.0  0.55141  0.27110  0.81666  1.0000
  S   S297      1.0  0.58865  0.21963  0.70166  1.0000
  S   S298      1.0  0.58472  0.21674  0.63436  1.0000
  C   C720      1.0  0.65871  0.24118  0.64486  1.0000
  C   C721      1.0  0.67157  0.25829  0.64292  1.0000
  C   C722      1.0  0.68928  0.25705  0.62545  1.0000
  C   C723      1.0  0.69469  0.23845  0.61027  1.0000
  C   C724      1.0  0.68177  0.22133  0.61201  1.0000
  C   C725      1.0  0.66363  0.22279  0.62903  1.0000
  H   H1147     1.0  0.66814  0.27246  0.65542  1.0000
  H   H1148     1.0  0.69919  0.27028  0.62444  1.0000
  H   H1149     1.0  0.68592  0.20687  0.60037  1.0000
  H   H1150     1.0  0.65403  0.20935  0.63076  1.0000
  H   H1151     1.0  0.58676  0.29297  0.58310  1.0000
  H   H1152     1.0  0.51418  0.10017  0.65018  1.0000
  H   H1153     1.0  0.62857  0.28867  0.50491  1.0000
  H   H1154     1.0  0.63857  0.27562  0.71096  1.0000
  C   C726      1.0  0.70184  0.30734  0.93442  1.0000
  C   C727      1.0  0.71288  0.30083  0.91029  1.0000
  C   C728      1.0  0.71839  0.31794  0.71836  1.0000
  H   H1155     1.0  0.73120  0.27674  0.98029  1.0000
  H   H1156     1.0  0.68840  0.31930  0.93332  1.0000
  H   H1157     1.0  0.70798  0.30784  0.89084  1.0000
  H   H1158     1.0  0.66942  0.27247  0.96700  1.0000
  H   H1159     1.0  0.70912  0.25601  0.67846  1.0000
  C   C729      1.0  0.55344  0.27983  0.52339  1.0000
  C   C730      1.0  0.70317  0.32438  0.66411  1.0000
  C   C731      1.0  0.69845  0.33988  0.68438  1.0000
  C   C732      1.0  0.70629  0.33684  0.71116  1.0000
  H   H1160     1.0  0.58667  0.15723  0.75663  1.0000
  H   H1161     1.0  0.53477  0.29294  0.55743  1.0000
  H   H1162     1.0  0.68930  0.35469  0.67916  1.0000
  H   H1163     1.0  0.70333  0.34942  0.72626  1.0000
  H   H1164     1.0  0.60105  0.29153  0.71482  1.0000
  H   H1165     1.0  0.61228  0.28645  0.94703  1.0000
  C   C733      1.0  0.63060  0.30297  0.77078  1.0000
  H   H1166     1.0  0.53614  0.23811  0.75303  1.0000
  H   H1167     1.0  0.52340  0.22896  0.79952  1.0000
  C   C734      1.0  0.55418  0.26447  0.56917  1.0000
  C   C735      1.0  0.56892  0.24801  0.56021  1.0000
  C   C736      1.0  0.57637  0.24782  0.53313  1.0000
  H   H1168     1.0  0.57462  0.23548  0.57416  1.0000
  S   S299      1.0  0.49324  0.32050  0.93453  1.0000
  C   C737      1.0  0.61501  0.30438  0.86155  1.0000
  C   C738      1.0  0.60773  0.28632  0.84888  1.0000
  C   C739      1.0  0.62188  0.27221  0.83402  1.0000
  C   C740      1.0  0.64345  0.27607  0.83175  1.0000
  C   C741      1.0  0.65073  0.29427  0.84416  1.0000
  C   C742      1.0  0.63650  0.30847  0.85891  1.0000
  H   H1169     1.0  0.59112  0.28329  0.85031  1.0000
  H   H1170     1.0  0.61607  0.25827  0.82431  1.0000
  H   H1171     1.0  0.66728  0.29743  0.84255  1.0000
  H   H1172     1.0  0.64223  0.32243  0.86867  1.0000
  C   C743      1.0  0.53268  0.16332  0.68177  1.0000
  C   C744      1.0  0.53013  0.14178  0.68743  1.0000
  H   H1173     1.0  0.49360  0.14136  0.60020  1.0000
  C   C745      1.0  0.50467  0.12976  0.61162  1.0000
  H   H1174     1.0  0.56449  0.15346  0.73406  1.0000
  S   S300      1.0  0.72725  0.32892  0.55871  1.0000
  H   H1175     1.0  0.54406  0.13037  0.68822  1.0000
  H   H1176     1.0  0.64868  0.30043  0.72124  1.0000
  C   C746      1.0  0.72254  0.30196  0.69839  1.0000
  H   H1177     1.0  0.61760  0.30526  0.78624  1.0000
  S   S301      1.0  0.53779  0.30455  0.88039  1.0000
  H   H1178     1.0  0.62535  0.30757  0.61576  1.0000
  S   S302      1.0  0.56178  0.27191  0.73532  1.0000
  H   H1179     1.0  0.56762  0.28995  0.78819  1.0000
  H   H1180     1.0  0.51627  0.19455  0.67674  1.0000
  H   H1181     1.0  0.55570  0.28041  0.83417  1.0000
  C   C747      1.0  0.64014  0.27820  0.57914  1.0000
  C   C748      1.0  0.56867  0.26373  0.51468  1.0000
  H   H1182     1.0  0.71035  0.20937  0.66249  1.0000
  H   H1183     1.0  0.69003  0.23795  0.68918  1.0000
  H   H1184     1.0  0.60377  0.27192  0.77184  1.0000
  C   C749      1.0  0.55307  0.26432  0.76762  1.0000
  C   C750      1.0  0.54063  0.24707  0.77083  1.0000
  C   C751      1.0  0.54630  0.28024  0.55062  1.0000
  C   C752      1.0  0.60303  0.29145  0.57380  1.0000
  S   S303      1.0  0.54613  0.26662  0.60363  1.0000
  S   S304      1.0  0.52983  0.24770  0.85271  1.0000
  C   C753      1.0  0.57317  0.16570  0.74513  1.0000
  S   S305      1.0  0.72052  0.24437  0.83255  1.0000
  H   H1185     1.0  0.56350  0.15750  0.79745  1.0000
  C   C754      1.0  0.71737  0.21126  0.71702  1.0000
  H   H1186     1.0  0.70232  0.20398  0.71161  1.0000
  C   C755      1.0  0.51458  0.17793  0.68106  1.0000
  C   C756      1.0  0.72546  0.21600  0.66925  1.0000
  N   N74       1.0  0.55874  0.17897  0.76344  1.0000
  H   H1187     1.0  0.74176  0.24405  0.72428  1.0000
  S   S306      1.0  0.71212  0.26095  0.76976  1.0000
  H   H1188     1.0  0.61697  0.28206  0.91119  1.0000
  C   C757      1.0  0.63923  0.25158  0.94064  1.0000
  H   H1189     1.0  0.63160  0.24518  0.92200  1.0000
  C   C758      1.0  0.64282  0.28538  0.72898  1.0000
  C   C759      1.0  0.50971  0.13489  0.69236  1.0000
  H   H1190     1.0  0.62735  0.30439  0.92788  1.0000
  C   C760      1.0  0.57072  0.19561  0.77661  1.0000
  H   H1191     1.0  0.54643  0.19900  0.73039  1.0000
  C   C761      1.0  0.53337  0.24202  0.79702  1.0000
  H   H1192     1.0  0.65389  0.24095  0.94530  1.0000
  H   H1193     1.0  0.63090  0.28262  0.63311  1.0000
  Fe  Fe155     1.0  0.54177  0.26905  0.88591  1.0000
  C   C762      1.0  0.53896  0.25393  0.82001  1.0000
  Fe  Fe156     1.0  0.73903  0.24344  0.79326  1.0000
  H   H1194     1.0  0.61103  0.31664  0.72407  1.0000
  C   C763      1.0  0.73743  0.27761  0.93709  1.0000
  H   H1195     1.0  0.59229  0.30480  0.74579  1.0000
  H   H1196     1.0  0.61220  0.25913  0.74034  1.0000
  C   C764      1.0  0.65409  0.28190  0.96191  1.0000
  C   C765      1.0  0.72610  0.28372  0.96103  1.0000
  C   C766      1.0  0.61975  0.29138  0.61845  1.0000
  S   S307      1.0  0.58132  0.25415  0.97586  1.0000
  H   H1197     1.0  0.66281  0.29162  0.90942  1.0000
  S   S308      1.0  0.69594  0.30925  0.99029  1.0000
  H   H1198     1.0  0.65643  0.27637  0.73974  1.0000
  H   H1199     1.0  0.56069  0.20517  0.79174  1.0000
  H   H1200     1.0  0.71510  0.21896  0.73753  1.0000
  Fe  Fe157     1.0  0.56224  0.27282  0.94315  1.0000
  Fe  Fe158     1.0  0.73470  0.27551  0.84071  1.0000
  H   H1201     1.0  0.60746  0.30786  0.56956  1.0000
  S   S309      1.0  0.73133  0.31677  0.75065  1.0000
  C   C767      1.0  0.61223  0.25815  0.59692  1.0000
  H   H1202     1.0  0.73229  0.28753  0.70363  1.0000
  C   C768      1.0  0.65932  0.27489  0.91363  1.0000
  H   H1203     1.0  0.49945  0.28249  0.88579  1.0000
  H   H1204     1.0  0.63062  0.25995  0.76859  1.0000
  H   H1205     1.0  0.65228  0.26907  0.59216  1.0000
  H   H1206     1.0  0.64501  0.29543  0.78141  1.0000
  H   H1207     1.0  0.62323  0.24910  0.61143  1.0000
  N   N75       1.0  0.61881  0.27981  0.59206  1.0000
  H   H1208     1.0  0.64593  0.29424  0.57579  1.0000
  H   H1209     1.0  0.63458  0.31903  0.76409  1.0000
  N   N76       1.0  0.62433  0.28973  0.74740  1.0000
  C   C769      1.0  0.60644  0.30124  0.73232  1.0000
  H   H1210     1.0  0.60157  0.28295  0.55387  1.0000
  H   H1211     1.0  0.50751  0.13699  0.63210  1.0000
  H   H1212     1.0  0.53923  0.17484  0.79873  1.0000
  H   H1213     1.0  0.65774  0.29883  0.95969  1.0000
  H   H1214     1.0  0.52647  0.09126  0.61853  1.0000
  C   C770      1.0  0.51089  0.09394  0.62932  1.0000
  H   H1215     1.0  0.58019  0.17558  0.72924  1.0000
  H   H1216     1.0  0.64326  0.28116  0.97975  1.0000
  H   H1217     1.0  0.72974  0.22725  0.65303  1.0000
  H   H1218     1.0  0.62778  0.25031  0.95780  1.0000
  H   H1219     1.0  0.65264  0.26840  0.89440  1.0000
  H   H1220     1.0  0.71851  0.29300  0.65595  1.0000
  H   H1221     1.0  0.52025  0.12826  0.60070  1.0000
  H   H1222     1.0  0.73784  0.33979  0.62829  1.0000
  H   H1223     1.0  0.65541  0.29277  0.49498  1.0000
  H   H1224     1.0  0.70352  0.25312  0.71399  1.0000
  C   C771      1.0  0.63890  0.30068  0.49673  1.0000
  C   C772      1.0  0.70564  0.24423  0.69436  1.0000
  H   H1225     1.0  0.50705  0.29215  0.83819  1.0000
  H   H1226     1.0  0.50020  0.39404  0.90345  1.0000
  H   H1227     1.0  0.50441  0.07808  0.63183  1.0000
  H   H1228     1.0  0.50675  0.09823  0.57431  1.0000
  N   N77       1.0  0.49569  0.10886  0.61414  1.0000
  S   S310      1.0  0.74123  0.29194  0.60498  1.0000
  H   H1229     1.0  0.73824  0.20259  0.66983  1.0000
  H   H1230     1.0  0.49204  0.31991  0.87109  1.0000
  C   C773      1.0  0.49184  0.09996  0.58661  1.0000
  S   S311      1.0  0.69801  0.30383  0.49203  1.0000
  Fe  Fe159     1.0  0.61984  0.75004  0.06360  1.0000
  S   S312      1.0  0.60264  0.72092  0.07285  1.0000
  S   S313      1.0  0.65532  0.75183  0.05811  1.0000
  Fe  Fe160     1.0  0.57836  0.77906  0.05662  1.0000
  S   S314      1.0  0.55822  0.75236  0.06591  1.0000
  S   S315      1.0  0.56649  0.81131  0.03935  1.0000
  Fe  Fe161     1.0  0.58219  0.74375  0.09970  1.0000
  S   S316      1.0  0.56943  0.73857  0.14252  1.0000
  Fe  Fe162     1.0  0.58062  0.73244  0.03836  1.0000
  C   C774      1.0  0.54725  0.75667  0.42593  1.0000
  S   S317      1.0  0.60079  0.77227  0.09216  1.0000
  S   S318      1.0  0.59939  0.75955  0.02742  1.0000
  S   S319      1.0  0.67411  0.78528  0.43070  1.0000
  Fe  Fe163     1.0  0.60082  0.69996  0.35519  1.0000
  S   S320      1.0  0.57192  0.72255  0.36243  1.0000
  S   S321      1.0  0.61851  0.68968  0.39400  1.0000
  Fe  Fe164     1.0  0.60010  0.70919  0.29278  1.0000
  S   S322      1.0  0.57178  0.73314  0.29740  1.0000
  S   S323      1.0  0.61571  0.70264  0.25108  1.0000
  Fe  Fe165     1.0  0.58871  0.74409  0.33522  1.0000
  S   S324      1.0  0.59627  0.77698  0.34912  1.0000
  Fe  Fe166     1.0  0.55870  0.70822  0.32415  1.0000
  S   S325      1.0  0.52388  0.70085  0.31856  1.0000
  S   S326      1.0  0.61784  0.72191  0.32859  1.0000
  S   S327      1.0  0.58665  0.68378  0.31858  1.0000
  C   C775      1.0  0.56225  0.79023  0.41809  1.0000
  H   H1231     1.0  0.51538  0.67750  0.25670  1.0000
  H   H1232     1.0  0.67525  0.80970  0.48009  1.0000
  S   S328      1.0  0.71276  0.69267  0.13871  1.0000
  H   H1233     1.0  0.69270  0.71906  0.30257  1.0000
  H   H1234     1.0  0.52765  0.65890  0.23240  1.0000
  H   H1235     1.0  0.50971  0.68101  0.22095  1.0000
  H   H1236     1.0  0.55169  0.68293  0.27479  1.0000
  H   H1237     1.0  0.56241  0.78750  0.39549  1.0000
  C   C776      1.0  0.51547  0.67483  0.31348  1.0000
  C   C777      1.0  0.52991  0.65662  0.31422  1.0000
  C   C778      1.0  0.52274  0.63629  0.30925  1.0000
  H   H1238     1.0  0.52422  0.74811  0.00044  1.0000
  H   H1239     1.0  0.69967  0.73251  0.20080  1.0000
  H   H1240     1.0  0.54661  0.65814  0.31878  1.0000
  H   H1241     1.0  0.53405  0.62230  0.31004  1.0000
  H   H1242     1.0  0.57163  0.69175  0.25247  1.0000
  C   C779      1.0  0.65566  0.78163  0.40390  1.0000
  C   C780      1.0  0.64623  0.76222  0.40147  1.0000
  C   C781      1.0  0.62871  0.76030  0.38367  1.0000
  C   C782      1.0  0.61988  0.77806  0.36903  1.0000
  C   C783      1.0  0.62938  0.79741  0.37141  1.0000
  C   C784      1.0  0.64727  0.79915  0.38858  1.0000
  H   H1243     1.0  0.65206  0.74878  0.41397  1.0000
  H   H1244     1.0  0.62150  0.74528  0.38228  1.0000
  H   H1245     1.0  0.62262  0.81125  0.36031  1.0000
  H   H1246     1.0  0.65394  0.81439  0.39093  1.0000
  C   C785      1.0  0.53947  0.82094  0.04444  1.0000
  C   C786      1.0  0.52569  0.80936  0.05967  1.0000
  H   H1247     1.0  0.54884  0.74116  0.43697  1.0000
  H   H1248     1.0  0.49353  0.80781  0.07432  1.0000
  H   H1249     1.0  0.56356  0.69718  0.20343  1.0000
  S   S329      1.0  0.72939  0.75425  0.42325  1.0000
  H   H1250     1.0  0.53168  0.79460  0.06931  1.0000
  H   H1251     1.0  0.63130  0.79425  0.03243  1.0000
  C   C787      1.0  0.50406  0.81691  0.06254  1.0000
  H   H1252     1.0  0.64212  0.73975  0.22014  1.0000
  C   C788      1.0  0.60415  0.69690  0.42424  1.0000
  C   C789      1.0  0.61485  0.70382  0.44764  1.0000
  H   H1253     1.0  0.69328  0.75156  0.02284  1.0000
  H   H1254     1.0  0.49357  0.64563  0.36078  1.0000
  C   C790      1.0  0.57069  0.70114  0.44935  1.0000
  C   C791      1.0  0.58201  0.69568  0.42522  1.0000
  H   H1255     1.0  0.63199  0.70469  0.44709  1.0000
  C   C792      1.0  0.56489  0.77400  0.46291  1.0000
  H   H1256     1.0  0.55363  0.69973  0.44999  1.0000
  H   H1257     1.0  0.57366  0.68993  0.40757  1.0000
  C   C793      1.0  0.58467  0.73036  0.17183  1.0000
  C   C794      1.0  0.57840  0.73893  0.19746  1.0000
  C   C795      1.0  0.58826  0.73104  0.22173  1.0000
  C   C796      1.0  0.60407  0.71398  0.22076  1.0000
  C   C797      1.0  0.61061  0.70557  0.19511  1.0000
  C   C798      1.0  0.60111  0.71384  0.17071  1.0000
  H   H1258     1.0  0.56567  0.75168  0.19855  1.0000
  H   H1259     1.0  0.58342  0.73807  0.24117  1.0000
  H   H1260     1.0  0.62267  0.69222  0.19413  1.0000
  H   H1261     1.0  0.60581  0.70681  0.15114  1.0000
  C   C799      1.0  0.67096  0.74784  0.16301  1.0000
  C   C800      1.0  0.67558  0.70501  0.11134  1.0000
  C   C801      1.0  0.66254  0.71858  0.09431  1.0000
  C   C802      1.0  0.67108  0.73545  0.08084  1.0000
  C   C803      1.0  0.69274  0.73869  0.08448  1.0000
  C   C804      1.0  0.70574  0.72526  0.10169  1.0000
  H   H1262     1.0  0.66888  0.69199  0.12172  1.0000
  H   H1263     1.0  0.64595  0.71577  0.09142  1.0000
  H   H1264     1.0  0.69950  0.75175  0.07427  1.0000
  H   H1265     1.0  0.63158  0.82135  0.02127  1.0000
  S   S330      1.0  0.72795  0.80057  0.39121  1.0000
  Fe  Fe167     1.0  0.70995  0.78577  0.42479  1.0000
  H   H1266     1.0  0.67974  0.70629  0.17654  1.0000
  C   C805      1.0  0.74137  0.75830  0.26672  1.0000
  C   C806      1.0  0.60340  0.70984  0.47166  1.0000
  H   H1267     1.0  0.54695  0.75298  0.40360  1.0000
  C   C807      1.0  0.62842  0.80496  0.01445  1.0000
  H   H1268     1.0  0.54201  0.84932  0.02054  1.0000
  C   C808      1.0  0.66450  0.71447  0.18428  1.0000
  H   H1269     1.0  0.68127  0.73262  0.22874  1.0000
  H   H1270     1.0  0.70915  0.70582  0.03666  1.0000
  H   H1271     1.0  0.66057  0.76098  0.34319  1.0000
  H   H1272     1.0  0.73460  0.71045  0.99761  1.0000
  C   C809      1.0  0.49379  0.67245  0.30765  1.0000
  C   C810      1.0  0.55772  0.68193  0.25343  1.0000
  H   H1273     1.0  0.64024  0.76439  0.99967  1.0000
  S   S331      1.0  0.72998  0.79850  0.45872  1.0000
  C   C811      1.0  0.69714  0.70847  0.11532  1.0000
  H   H1274     1.0  0.65802  0.74608  0.14764  1.0000
  C   C812      1.0  0.64620  0.74744  0.20059  1.0000
  H   H1275     1.0  0.68647  0.75723  0.21254  1.0000
  H   H1276     1.0  0.63255  0.74591  0.18620  1.0000
  H   H1277     1.0  0.72244  0.72790  0.10437  1.0000
  H   H1278     1.0  0.58602  0.75478  0.40287  1.0000
  H   H1279     1.0  0.66034  0.70626  0.20340  1.0000
  C   C813      1.0  0.58552  0.75824  0.42523  1.0000
  H   H1280     1.0  0.56690  0.75881  0.47467  1.0000
  H   H1281     1.0  0.68611  0.74064  0.15389  1.0000
  N   N78       1.0  0.68736  0.73741  0.33966  1.0000
  C   C814      1.0  0.67640  0.72035  0.35297  1.0000
  C   C815      1.0  0.70013  0.74818  0.36027  1.0000
  C   C816      1.0  0.67129  0.75316  0.32737  1.0000
  C   C817      1.0  0.70165  0.72797  0.31801  1.0000
  H   H1282     1.0  0.66684  0.71163  0.33799  1.0000
  H   H1283     1.0  0.66516  0.72692  0.36907  1.0000
  H   H1284     1.0  0.68805  0.70841  0.36290  1.0000
  H   H1285     1.0  0.70806  0.76160  0.35118  1.0000
  H   H1286     1.0  0.69005  0.75489  0.37745  1.0000
  H   H1287     1.0  0.71304  0.73698  0.36913  1.0000
  H   H1288     1.0  0.66098  0.74552  0.31218  1.0000
  H   H1289     1.0  0.70958  0.74048  0.30690  1.0000
  H   H1290     1.0  0.71463  0.71675  0.32669  1.0000
  H   H1291     1.0  0.73519  0.78294  0.32918  1.0000
  H   H1292     1.0  0.52696  0.71375  0.26105  1.0000
  H   H1293     1.0  0.55477  0.67095  0.20009  1.0000
  H   H1294     1.0  0.69269  0.69249  0.01281  1.0000
  H   H1295     1.0  0.67267  0.76520  0.16588  1.0000
  H   H1296     1.0  0.53739  0.69394  0.19017  1.0000
  H   H1297     1.0  0.65189  0.71191  0.16875  1.0000
  H   H1298     1.0  0.72049  0.74091  0.02674  1.0000
  C   C818      1.0  0.53349  0.71194  0.23991  1.0000
  H   H1299     1.0  0.54684  0.72244  0.23853  1.0000
  N   N79       1.0  0.56497  0.76982  0.43307  1.0000
  H   H1300     1.0  0.54687  0.79947  0.42334  1.0000
  H   H1301     1.0  0.71231  0.75458  0.99592  1.0000
  C   C819      1.0  0.70712  0.74345  0.01171  1.0000
  H   H1302     1.0  0.50378  0.86275  0.02597  1.0000
  H   H1303     1.0  0.52073  0.71821  0.22545  1.0000
  H   H1304     1.0  0.64717  0.76476  0.20482  1.0000
  C   C820      1.0  0.68417  0.74008  0.20869  1.0000
  N   N80       1.0  0.66645  0.73747  0.18915  1.0000
  Fe  Fe168     1.0  0.73997  0.71034  0.15452  1.0000
  H   H1305     1.0  0.58813  0.74270  0.43589  1.0000
  C   C821      1.0  0.52259  0.67611  0.23595  1.0000
  C   C822      1.0  0.53145  0.84022  0.03230  1.0000
  H   H1306     1.0  0.53145  0.76493  0.43143  1.0000
  H   H1307     1.0  0.66465  0.77262  0.48365  1.0000
  C   C823      1.0  0.58124  0.70841  0.47258  1.0000
  H   H1308     1.0  0.56378  0.66505  0.24942  1.0000
  H   H1309     1.0  0.57545  0.80047  0.42286  1.0000
  C   C824      1.0  0.50980  0.84787  0.03534  1.0000
  S   S332      1.0  0.56666  0.71528  0.00245  1.0000
  H   H1310     1.0  0.67906  0.76606  0.31675  1.0000
  H   H1311     1.0  0.61172  0.71526  0.48952  1.0000
  C   C825      1.0  0.50109  0.63387  0.30345  1.0000
  C   C826      1.0  0.66482  0.79722  0.99924  1.0000
  C   C827      1.0  0.54945  0.68777  0.20561  1.0000
  N   N81       1.0  0.54081  0.68944  0.23370  1.0000
  C   C828      1.0  0.74044  0.77095  0.31413  1.0000
  H   H1312     1.0  0.61107  0.80534  0.00920  1.0000
  C   C829      1.0  0.49603  0.83619  0.05048  1.0000
  H   H1313     1.0  0.68146  0.71485  0.03235  1.0000
  H   H1314     1.0  0.57806  0.78382  0.46915  1.0000
  H   H1315     1.0  0.66840  0.78639  0.01695  1.0000
  S   S333      1.0  0.73252  0.76155  0.23259  1.0000
  H   H1316     1.0  0.72437  0.78769  0.28040  1.0000
  H   H1317     1.0  0.66917  0.81337  0.00546  1.0000
  C   C830      1.0  0.69604  0.70838  0.02122  1.0000
  H   H1318     1.0  0.55391  0.77014  0.00963  1.0000
  C   C831      1.0  0.63351  0.80468  0.48705  1.0000
  H   H1319     1.0  0.63892  0.80132  0.46565  1.0000
  H   H1320     1.0  0.59932  0.76762  0.43022  1.0000
  H   H1321     1.0  0.51687  0.78675  0.01135  1.0000
  N   N82       1.0  0.70168  0.72303  0.99937  1.0000
  S   S334      1.0  0.49296  0.60776  0.29811  1.0000
  S   S335      1.0  0.73280  0.74565  0.15831  1.0000
  C   C832      1.0  0.73439  0.77363  0.28651  1.0000
  H   H1322     1.0  0.54957  0.78270  0.46960  1.0000
  H   H1323     1.0  0.62741  0.82182  0.48825  1.0000
  H   H1324     1.0  0.61979  0.79502  0.49092  1.0000
  Fe  Fe169     1.0  0.61656  0.75203  0.56537  1.0000
  S   S336      1.0  0.59839  0.72348  0.57387  1.0000
  S   S337      1.0  0.65207  0.75451  0.56680  1.0000
  Fe  Fe170     1.0  0.57633  0.78157  0.55392  1.0000
  S   S338      1.0  0.55507  0.75556  0.56194  1.0000
  S   S339      1.0  0.56582  0.81562  0.54217  1.0000
  Fe  Fe171     1.0  0.57665  0.74698  0.59804  1.0000
  S   S340      1.0  0.56191  0.74485  0.64027  1.0000
  Fe  Fe172     1.0  0.57885  0.73482  0.53694  1.0000
  C   C833      1.0  0.72532  0.68539  0.56132  1.0000
  S   S341      1.0  0.59621  0.77477  0.59164  1.0000
  S   S342      1.0  0.59873  0.76153  0.52680  1.0000
  S   S343      1.0  0.67875  0.77473  0.92437  1.0000
  Fe  Fe173     1.0  0.59884  0.70760  0.85320  1.0000
  S   S344      1.0  0.57146  0.73203  0.86090  1.0000
  S   S345      1.0  0.61793  0.69778  0.89124  1.0000
  Fe  Fe174     1.0  0.59568  0.71420  0.78998  1.0000
  S   S346      1.0  0.56902  0.73984  0.79512  1.0000
  S   S347      1.0  0.60800  0.70499  0.74720  1.0000
  Fe  Fe175     1.0  0.58820  0.75134  0.83065  1.0000
  S   S348      1.0  0.60110  0.78318  0.83952  1.0000
  Fe  Fe176     1.0  0.55593  0.71685  0.82465  1.0000
  S   S349      1.0  0.52114  0.70941  0.81963  1.0000
  S   S350      1.0  0.61569  0.72717  0.82340  1.0000
  S   S351      1.0  0.58237  0.69084  0.81890  1.0000
  H   H1325     1.0  0.65772  0.75103  0.83278  1.0000
  H   H1326     1.0  0.68649  0.71554  0.80265  1.0000
  C   C834      1.0  0.72390  0.72003  0.53996  1.0000
  H   H1327     1.0  0.52958  0.65654  0.75922  1.0000
  H   H1328     1.0  0.64565  0.71077  0.66481  1.0000
  H   H1329     1.0  0.73833  0.78037  0.51657  1.0000
  H   H1330     1.0  0.63846  0.73386  0.72043  1.0000
  H   H1331     1.0  0.70408  0.68984  0.51336  1.0000
  C   C835      1.0  0.65855  0.71045  0.68060  1.0000
  C   C836      1.0  0.51422  0.68302  0.81337  1.0000
  H   H1332     1.0  0.67310  0.70179  0.67150  1.0000
  H   H1333     1.0  0.68309  0.75328  0.81663  1.0000
  C   C837      1.0  0.52202  0.64444  0.81520  1.0000
  C   C838      1.0  0.52816  0.66521  0.81996  1.0000
  H   H1334     1.0  0.53132  0.70544  0.75815  1.0000
  H   H1335     1.0  0.53286  0.63077  0.82062  1.0000
  H   H1336     1.0  0.54354  0.66737  0.82920  1.0000
  C   C839      1.0  0.65771  0.77748  0.90005  1.0000
  C   C840      1.0  0.64162  0.76330  0.90121  1.0000
  C   C841      1.0  0.62457  0.76474  0.88235  1.0000
  C   C842      1.0  0.62290  0.78096  0.86282  1.0000
  C   C843      1.0  0.63875  0.79547  0.86199  1.0000
  C   C844      1.0  0.65628  0.79358  0.88033  1.0000
  H   H1337     1.0  0.64244  0.75084  0.91644  1.0000
  H   H1338     1.0  0.61246  0.75348  0.88328  1.0000
  H   H1339     1.0  0.63753  0.80809  0.84697  1.0000
  H   H1340     1.0  0.66845  0.80477  0.87945  1.0000
  C   C845      1.0  0.53813  0.82375  0.54090  1.0000
  C   C846      1.0  0.52296  0.80872  0.53980  1.0000
  S   S352      1.0  0.70976  0.68654  0.63501  1.0000
  H   H1341     1.0  0.55353  0.70409  0.94841  1.0000
  C   C847      1.0  0.51838  0.79042  0.98922  1.0000
  C   C848      1.0  0.53117  0.84559  0.54178  1.0000
  H   H1342     1.0  0.52809  0.79190  0.53846  1.0000
  N   N83       1.0  0.66275  0.73226  0.68943  1.0000
  N   N84       1.0  0.52176  0.80065  0.62403  1.0000
  H   H1343     1.0  0.54281  0.85734  0.54246  1.0000
  C   C849      1.0  0.60369  0.70374  0.92197  1.0000
  C   C850      1.0  0.58158  0.70229  0.92300  1.0000
  C   C851      1.0  0.57050  0.70593  0.94775  1.0000
  H   H1344     1.0  0.50199  0.79169  0.98021  1.0000
  S   S353      1.0  0.73035  0.80339  0.88890  1.0000
  C   C852      1.0  0.61456  0.70940  0.94586  1.0000
  H   H1345     1.0  0.57309  0.69761  0.90488  1.0000
  H   H1346     1.0  0.73111  0.72738  0.55827  1.0000
  C   C853      1.0  0.73001  0.75824  0.79160  1.0000
  H   H1347     1.0  0.63165  0.71048  0.94526  1.0000
  C   C854      1.0  0.57625  0.73461  0.66934  1.0000
  C   C855      1.0  0.57020  0.74258  0.69531  1.0000
  C   C856      1.0  0.58017  0.73403  0.71914  1.0000
  C   C857      1.0  0.59585  0.71688  0.71743  1.0000
  C   C858      1.0  0.60188  0.70881  0.69143  1.0000
  C   C859      1.0  0.59236  0.71781  0.66744  1.0000
  H   H1348     1.0  0.55774  0.75552  0.69705  1.0000
  H   H1349     1.0  0.57554  0.74072  0.73879  1.0000
  H   H1350     1.0  0.61376  0.69534  0.68981  1.0000
  H   H1351     1.0  0.59693  0.71128  0.64756  1.0000
  C   C860      1.0  0.69365  0.70497  0.61550  1.0000
  C   C861      1.0  0.67233  0.70144  0.60968  1.0000
  C   C862      1.0  0.65925  0.71668  0.59498  1.0000
  C   C863      1.0  0.66759  0.73530  0.58581  1.0000
  C   C864      1.0  0.68895  0.73864  0.59136  1.0000
  C   C865      1.0  0.70197  0.72348  0.60603  1.0000
  H   H1352     1.0  0.66589  0.68703  0.61673  1.0000
  H   H1353     1.0  0.64283  0.71390  0.59054  1.0000
  H   H1354     1.0  0.69553  0.75299  0.58429  1.0000
  H   H1355     1.0  0.53076  0.78147  0.65916  1.0000
  H   H1356     1.0  0.54464  0.76692  0.93464  1.0000
  H   H1357     1.0  0.62973  0.79458  0.54010  1.0000
  H   H1358     1.0  0.67950  0.76058  0.85191  1.0000
  C   C866      1.0  0.49416  0.67983  0.80175  1.0000
  H   H1359     1.0  0.67509  0.70446  0.87531  1.0000
  C   C867      1.0  0.50837  0.82050  0.61751  1.0000
  H   H1360     1.0  0.55060  0.81686  0.62670  1.0000
  H   H1361     1.0  0.64708  0.76997  0.96498  1.0000
  C   C868      1.0  0.51373  0.78252  0.60876  1.0000
  C   C869      1.0  0.50916  0.85234  0.54235  1.0000
  H   H1362     1.0  0.52706  0.80969  0.66590  1.0000
  H   H1363     1.0  0.55476  0.78850  0.62135  1.0000
  H   H1364     1.0  0.49690  0.78020  0.61422  1.0000
  H   H1365     1.0  0.52361  0.76731  0.61307  1.0000
  H   H1366     1.0  0.54552  0.80556  0.59377  1.0000
  H   H1367     1.0  0.66383  0.83014  0.50271  1.0000
  C   C870      1.0  0.60336  0.71356  0.97056  1.0000
  N   N85       1.0  0.73155  0.69723  0.53701  1.0000
  H   H1368     1.0  0.51411  0.78511  0.58630  1.0000
  H   H1369     1.0  0.66055  0.71271  0.81683  1.0000
  H   H1370     1.0  0.70764  0.68673  0.56403  1.0000
  H   H1371     1.0  0.51120  0.67556  0.74231  1.0000
  H   H1372     1.0  0.70988  0.73663  0.86611  1.0000
  H   H1373     1.0  0.50570  0.98128  0.88332  1.0000
  C   C871      1.0  0.63787  0.81239  0.96780  1.0000
  C   C872      1.0  0.49400  0.83724  0.54199  1.0000
  H   H1374     1.0  0.53990  0.79490  0.94255  1.0000
  H   H1375     1.0  0.51358  0.83442  0.62923  1.0000
  C   C873      1.0  0.65865  0.77676  0.50453  1.0000
  C   C874      1.0  0.72028  0.71322  0.98406  1.0000
  S   S354      1.0  0.72912  0.73689  0.66425  1.0000
  H   H1376     1.0  0.49570  0.96188  0.90566  1.0000
  N   N86       1.0  0.54440  0.67877  0.73378  1.0000
  C   C875      1.0  0.54017  0.68996  0.70754  1.0000
  C   C876      1.0  0.54624  0.69463  0.75595  1.0000
  C   C877      1.0  0.56462  0.66493  0.73189  1.0000
  H   H1377     1.0  0.53856  0.67849  0.69032  1.0000
  H   H1378     1.0  0.55340  0.69991  0.70227  1.0000
  H   H1379     1.0  0.52518  0.70077  0.70839  1.0000
  H   H1380     1.0  0.54937  0.68672  0.77600  1.0000
  H   H1381     1.0  0.55963  0.70473  0.75226  1.0000
  H   H1382     1.0  0.56849  0.65657  0.75156  1.0000
  H   H1383     1.0  0.73488  0.78943  0.56617  1.0000
  H   H1384     1.0  0.56379  0.65257  0.71558  1.0000
  N   N87       1.0  0.68248  0.72677  0.84416  1.0000
  C   C878      1.0  0.67794  0.71185  0.82173  1.0000
  C   C879      1.0  0.67539  0.74886  0.83597  1.0000
  C   C880      1.0  0.70575  0.72510  0.84988  1.0000
  C   C881      1.0  0.67089  0.72129  0.86906  1.0000
  H   H1385     1.0  0.71697  0.69761  0.97481  1.0000
  H   H1386     1.0  0.68299  0.69502  0.82727  1.0000
  N   N88       1.0  0.53268  0.77394  0.97516  1.0000
  C   C882      1.0  0.53377  0.77898  0.94573  1.0000
  C   C883      1.0  0.52088  0.79647  0.65372  1.0000
  H   H1387     1.0  0.62011  0.77561  0.97627  1.0000
  H   H1388     1.0  0.71157  0.70881  0.85684  1.0000
  H   H1389     1.0  0.71502  0.72855  0.83131  1.0000
  N   N89       1.0  0.65107  0.79963  0.50692  1.0000
  H   H1390     1.0  0.65597  0.80040  0.55054  1.0000
  H   H1391     1.0  0.51773  0.77927  0.93578  1.0000
  H   H1392     1.0  0.67459  0.73179  0.88661  1.0000
  H   H1393     1.0  0.65551  0.74575  0.64969  1.0000
  H   H1394     1.0  0.68308  0.73708  0.65535  1.0000
  C   C884      1.0  0.50101  0.81544  0.54044  1.0000
  C   C885      1.0  0.68061  0.73101  0.70941  1.0000
  H   H1395     1.0  0.50931  0.82449  0.59544  1.0000
  H   H1396     1.0  0.62958  0.74415  0.68774  1.0000
  S   S355      1.0  0.72878  0.79780  0.95578  1.0000
  H   H1397     1.0  0.65320  0.72314  0.86586  1.0000
  H   H1398     1.0  0.64604  0.75933  0.70937  1.0000
  H   H1399     1.0  0.71854  0.72613  0.60979  1.0000
  H   H1400     1.0  0.62086  0.81297  0.96097  1.0000
  C   C886      1.0  0.52438  0.75279  0.97849  1.0000
  H   H1401     1.0  0.63730  0.82137  0.53758  1.0000
  H   H1402     1.0  0.69536  0.72253  0.70065  1.0000
  N   N90       1.0  0.64205  0.79765  0.99103  1.0000
  C   C887      1.0  0.52661  0.66556  0.73985  1.0000
  C   C888      1.0  0.64336  0.74288  0.70230  1.0000
  H   H1403     1.0  0.65361  0.70081  0.69813  1.0000
  H   H1404     1.0  0.68483  0.74717  0.71588  1.0000
  H   H1405     1.0  0.67192  0.76119  0.67123  1.0000
  H   H1406     1.0  0.67666  0.72224  0.72813  1.0000
  C   C889      1.0  0.58130  0.71153  0.97164  1.0000
  H   H1407     1.0  0.73245  0.69161  0.58042  1.0000
  S   S356      1.0  0.49484  0.61477  0.79858  1.0000
  Fe  Fe177     1.0  0.71256  0.78445  0.91893  1.0000
  C   C890      1.0  0.66850  0.74466  0.66539  1.0000
  S   S357      1.0  0.56593  0.71584  0.50193  1.0000
  S   S358      1.0  0.72930  0.74211  0.73950  1.0000
  H   H1408     1.0  0.50782  0.75260  0.97028  1.0000
  H   H1409     1.0  0.57836  0.67439  0.72714  1.0000
  H   H1410     1.0  0.71304  0.76211  0.78861  1.0000
  H   H1411     1.0  0.68692  0.73834  0.96397  1.0000
  S   S359      1.0  0.73593  0.75553  0.91522  1.0000
  C   C891      1.0  0.50190  0.64123  0.80386  1.0000
  H   H1412     1.0  0.49202  0.95962  0.86929  1.0000
  H   H1413     1.0  0.73074  0.66810  0.55984  1.0000
  H   H1414     1.0  0.70620  0.72218  0.54218  1.0000
  H   H1415     1.0  0.72721  0.67118  0.50928  1.0000
  C   C892      1.0  0.49217  0.97123  0.88663  1.0000
  H   H1416     1.0  0.72812  0.72936  0.52179  1.0000
  C   C893      1.0  0.72187  0.68839  0.51218  1.0000
  H   H1417     1.0  0.67193  0.77239  0.51921  1.0000
  H   H1418     1.0  0.50420  0.79470  0.66042  1.0000
  H   H1419     1.0  0.61186  0.71769  0.98891  1.0000
  H   H1420     1.0  0.53461  0.74007  0.96765  1.0000
  C   C894      1.0  0.64319  0.80427  0.53498  1.0000
  H   H1421     1.0  0.72482  0.72376  0.96720  1.0000
  H   H1422     1.0  0.68251  0.80922  0.51566  1.0000
  C   C895      1.0  0.68328  0.72709  0.98050  1.0000
  C   C896      1.0  0.54414  0.80301  0.61615  1.0000
  H   H1423     1.0  0.50392  0.86919  0.54354  1.0000
  H   H1424     1.0  0.64795  0.80731  0.94980  1.0000
  H   H1425     1.0  0.52439  0.65366  0.72332  1.0000
  H   H1426     1.0  0.67886  0.71207  0.97057  1.0000
  C   C897      1.0  0.66894  0.81278  0.50113  1.0000
  H   H1427     1.0  0.73013  0.77044  0.83312  1.0000
  H   H1428     1.0  0.64564  0.76633  0.50892  1.0000
  H   H1429     1.0  0.64140  0.82895  0.97333  1.0000
  H   H1430     1.0  0.52460  0.80648  0.98804  1.0000
  H   H1431     1.0  0.66891  0.73420  0.99157  1.0000
  H   H1432     1.0  0.67557  0.79159  0.98212  1.0000
  C   C898      1.0  0.73965  0.76301  0.81673  1.0000
  H   H1433     1.0  0.56544  0.76083  0.97779  1.0000
  Fe  Fe178     1.0  0.73731  0.70283  0.65282  1.0000
  C   C899      1.0  0.55432  0.77349  0.98733  1.0000
  H   H1434     1.0  0.56127  0.78910  0.98506  1.0000
  C   C900      1.0  0.63715  0.77594  0.98264  1.0000
  H   H1435     1.0  0.72638  0.69699  0.49348  1.0000
  H   H1436     1.0  0.97293  0.13054  0.01491  1.0000
  S   S360      1.0  0.78580  0.30839  0.06402  1.0000
  S   S361      1.0  0.75176  0.25912  0.30738  1.0000
  H   H1437     1.0  0.76539  0.15560  0.29984  1.0000
  H   H1438     1.0  0.75215  0.30626  0.19007  1.0000
  Fe  Fe179     1.0  0.91859  0.10287  0.08695  1.0000
  S   S362      1.0  0.94714  0.07892  0.08866  1.0000
  S   S363      1.0  0.89477  0.10886  0.12127  1.0000
  Fe  Fe180     1.0  0.96163  0.10076  0.05861  1.0000
  H   H1439     1.0  0.94140  0.14609  0.46066  1.0000
  Fe  Fe181     1.0  0.93273  0.06383  0.05166  1.0000
  S   S364      1.0  0.92119  0.03055  0.05399  1.0000
  S   S365      1.0  0.93395  0.12585  0.05977  1.0000
  S   S366      1.0  0.90362  0.08706  0.05130  1.0000
  H   H1440     1.0  0.88169  0.04055  0.42829  1.0000
  H   H1441     1.0  0.87191  0.14773  0.22597  1.0000
  H   H1442     1.0  0.86373  0.31739  0.99467  1.0000
  N   N91       1.0  0.77165  0.21767  0.39145  1.0000
  C   C901      1.0  0.87452  0.05054  0.00072  1.0000
  Fe  Fe182     1.0  0.85502  0.13245  0.31202  1.0000
  S   S367      1.0  0.89059  0.12829  0.32000  1.0000
  S   S368      1.0  0.84100  0.16659  0.31856  1.0000
  Fe  Fe183     1.0  0.85454  0.08699  0.29058  1.0000
  S   S369      1.0  0.88983  0.08008  0.29649  1.0000
  S   S370      1.0  0.83747  0.05980  0.27331  1.0000
  Fe  Fe184     1.0  0.88450  0.09635  0.33716  1.0000
  S   S371      1.0  0.90056  0.07782  0.37245  1.0000
  Fe  Fe185     1.0  0.89210  0.11242  0.27856  1.0000
  S   S372      1.0  0.91676  0.12002  0.24727  1.0000
  S   S373      1.0  0.84876  0.10149  0.33244  1.0000
  S   S374      1.0  0.85704  0.11831  0.26968  1.0000
  H   H1443     1.0  0.87611  0.02532  0.36061  1.0000
  S   S375      1.0  0.91732  0.38474  0.29539  1.0000
  Fe  Fe186     1.0  0.95411  0.42835  0.27720  1.0000
  S   S376      1.0  0.91848  0.43415  0.27820  1.0000
  H   H1444     1.0  0.88162  0.44983  0.17556  1.0000
  Fe  Fe187     1.0  0.92096  0.41577  0.31742  1.0000
  S   S377      1.0  0.90168  0.43280  0.35158  1.0000
  Fe  Fe188     1.0  0.91844  0.40292  0.25597  1.0000
  S   S378      1.0  0.89482  0.39855  0.22129  1.0000
  H   H1445     1.0  0.79482  0.22191  0.42318  1.0000
  S   S379      1.0  0.95415  0.39826  0.25191  1.0000
  Fe  Fe189     1.0  0.88805  0.43246  0.06789  1.0000
  S   S380      1.0  0.85384  0.44616  0.06468  1.0000
  S   S381      1.0  0.90977  0.43760  0.10429  1.0000
  Fe  Fe190     1.0  0.88898  0.41681  0.00895  1.0000
  N   N92       1.0  0.88449  0.01236  0.32085  1.0000
  C   C902      1.0  0.78076  0.23295  0.37289  1.0000
  Fe  Fe191     1.0  0.86348  0.45856  0.02398  1.0000
  H   H1446     1.0  0.88118  0.35968  0.45482  1.0000
  Fe  Fe192     1.0  0.84801  0.41568  0.04216  1.0000
  S   S382      1.0  0.81584  0.40148  0.04507  1.0000
  S   S383      1.0  0.89814  0.44716  0.02853  1.0000
  S   S384      1.0  0.88162  0.40093  0.04862  1.0000
  C   C903      1.0  0.87479  0.02983  0.44336  1.0000
  H   H1447     1.0  0.88808  0.03358  0.28735  1.0000
  C   C904      1.0  0.83836  0.36079  0.44565  1.0000
  H   H1448     1.0  0.84525  0.16602  0.25690  1.0000
  H   H1449     1.0  0.84796  0.19281  0.26791  1.0000
  H   H1450     1.0  0.98322  0.17854  0.49036  1.0000
  C   C905      1.0  0.90648  0.42455  0.13568  1.0000
  C   C906      1.0  0.92142  0.42679  0.15682  1.0000
  C   C907      1.0  0.91853  0.41791  0.18272  1.0000
  C   C908      1.0  0.90052  0.40699  0.18787  1.0000
  C   C909      1.0  0.88585  0.40422  0.16651  1.0000
  C   C910      1.0  0.88880  0.41296  0.14048  1.0000
  H   H1451     1.0  0.93525  0.43553  0.15329  1.0000
  H   H1452     1.0  0.93014  0.41965  0.19879  1.0000
  H   H1453     1.0  0.87196  0.39558  0.17024  1.0000
  H   H1454     1.0  0.87723  0.41106  0.12431  1.0000
  C   C911      1.0  0.90425  0.42410  0.38580  1.0000
  C   C912      1.0  0.89239  0.43542  0.40635  1.0000
  C   C913      1.0  0.89394  0.42876  0.43380  1.0000
  C   C914      1.0  0.90740  0.41071  0.44079  1.0000
  C   C915      1.0  0.91938  0.39953  0.42029  1.0000
  C   C916      1.0  0.91785  0.40620  0.39289  1.0000
  H   H1455     1.0  0.88177  0.44925  0.40095  1.0000
  H   H1456     1.0  0.88460  0.43747  0.44942  1.0000
  H   H1457     1.0  0.92984  0.38555  0.42557  1.0000
  H   H1458     1.0  0.92705  0.39737  0.37721  1.0000
  Fe  Fe193     1.0  0.95342  0.38186  0.29278  1.0000
  C   C917      1.0  0.80711  0.19659  0.31283  1.0000
  C   C918      1.0  0.94153  0.46252  0.22648  1.0000
  H   H1459     1.0  0.88178  0.15518  0.27381  1.0000
  C   C919      1.0  0.77030  0.18900  0.30422  1.0000
  C   C920      1.0  0.86669  0.01063  0.22981  1.0000
  C   C921      1.0  0.88479  0.01947  0.21972  1.0000
  C   C922      1.0  0.88733  0.04112  0.22445  1.0000
  C   C923      1.0  0.87209  0.05380  0.23949  1.0000
  C   C924      1.0  0.85442  0.04485  0.25048  1.0000
  C   C925      1.0  0.85148  0.02334  0.24511  1.0000
  H   H1460     1.0  0.88096  0.01314  0.43826  1.0000
  H   H1461     1.0  0.90134  0.04811  0.21705  1.0000
  H   H1462     1.0  0.87424  0.07049  0.24294  1.0000
  H   H1463     1.0  0.75136  0.20612  0.35992  1.0000
  C   C926      1.0  0.93427  0.45777  0.46987  1.0000
  C   C927      1.0  0.95186  0.47243  0.10425  1.0000
  Fe  Fe194     1.0  0.75090  0.30086  0.06680  1.0000
  H   H1464     1.0  0.88992  0.44505  0.22378  1.0000
  H   H1465     1.0  0.99139  0.30738  0.29514  1.0000
  H   H1466     1.0  0.83807  0.40366  0.44962  1.0000
  C   C928      1.0  0.78843  0.20897  0.41066  1.0000
  H   H1467     1.0  0.97219  0.14880  0.08020  1.0000
  C   C929      1.0  0.91131  0.11494  0.21240  1.0000
  C   C930      1.0  0.92700  0.11760  0.19262  1.0000
  C   C931      1.0  0.92245  0.11511  0.16454  1.0000
  C   C932      1.0  0.90195  0.11057  0.15614  1.0000
  C   C933      1.0  0.88634  0.10783  0.17593  1.0000
  C   C934      1.0  0.89113  0.10952  0.20393  1.0000
  H   H1468     1.0  0.94268  0.12173  0.19902  1.0000
  H   H1469     1.0  0.93458  0.11730  0.14943  1.0000
  H   H1470     1.0  0.87046  0.10425  0.16959  1.0000
  H   H1471     1.0  0.87901  0.10709  0.21889  1.0000
  C   C935      1.0  0.90641  0.10919  0.45679  1.0000
  C   C936      1.0  0.89463  0.12007  0.43590  1.0000
  C   C937      1.0  0.89290  0.11072  0.40982  1.0000
  C   C938      1.0  0.90303  0.09046  0.40450  1.0000
  C   C939      1.0  0.91507  0.07970  0.42529  1.0000
  C   C940      1.0  0.91678  0.08903  0.45139  1.0000
  H   H1472     1.0  0.88663  0.13571  0.43994  1.0000
  H   H1473     1.0  0.88360  0.11913  0.39390  1.0000
  H   H1474     1.0  0.92323  0.06418  0.42103  1.0000
  H   H1475     1.0  0.92615  0.08068  0.46725  1.0000
  H   H1476     1.0  0.91200  0.04294  0.46034  1.0000
  H   H1477     1.0  0.94252  0.46170  0.35628  1.0000
  H   H1478     1.0  0.90128  0.48756  0.47600  1.0000
  H   H1479     1.0  0.86599  0.02238  0.12638  1.0000
  H   H1480     1.0  0.90213  0.01222  0.10663  1.0000
  H   H1481     1.0  0.93225  0.45405  0.44772  1.0000
  C   C941      1.0  0.88484  0.35031  0.01234  1.0000
  H   H1482     1.0  0.87733  0.02095  0.16013  1.0000
  H   H1483     1.0  0.94164  0.44535  0.22714  1.0000
  C   C942      1.0  0.95684  0.15351  0.46332  1.0000
  C   C943      1.0  0.79401  0.33463  0.06139  1.0000
  C   C944      1.0  0.77918  0.35241  0.05859  1.0000
  C   C945      1.0  0.78624  0.37273  0.05389  1.0000
  C   C946      1.0  0.80817  0.37567  0.05262  1.0000
  C   C947      1.0  0.82306  0.35805  0.05638  1.0000
  C   C948      1.0  0.81598  0.33758  0.06045  1.0000
  H   H1484     1.0  0.76225  0.35055  0.05983  1.0000
  H   H1485     1.0  0.77460  0.38632  0.05138  1.0000
  H   H1486     1.0  0.83997  0.36021  0.05623  1.0000
  H   H1487     1.0  0.82757  0.32397  0.06308  1.0000
  H   H1488     1.0  0.84102  0.18745  0.23285  1.0000
  H   H1489     1.0  0.96195  0.47121  0.33316  1.0000
  C   C949      1.0  0.86220  0.00872  0.31344  1.0000
  C   C950      1.0  0.81380  0.17470  0.31224  1.0000
  C   C951      1.0  0.79874  0.15996  0.30718  1.0000
  C   C952      1.0  0.77703  0.16711  0.30331  1.0000
  C   C953      1.0  0.85107  0.18147  0.25046  1.0000
  C   C954      1.0  0.75381  0.22878  0.40699  1.0000
  H   H1490     1.0  0.80373  0.14304  0.30666  1.0000
  N   N93       1.0  0.93547  0.48092  0.47469  1.0000
  H   H1491     1.0  0.87604  0.04475  0.33393  1.0000
  H   H1492     1.0  0.78638  0.24685  0.38432  1.0000
  N   N94       1.0  0.86076  0.46112  0.20816  1.0000
  H   H1493     1.0  0.89617  0.00616  0.27992  1.0000
  C   C955      1.0  0.96608  0.13418  0.99428  1.0000
  H   H1494     1.0  0.89321  0.99837  0.04136  1.0000
  H   H1495     1.0  0.86164  0.99667  0.29669  1.0000
  H   H1496     1.0  0.79216  0.34101  0.00416  1.0000
  H   H1497     1.0  0.90983  0.04176  0.17076  1.0000
  S   S385      1.0  0.95006  0.08310  0.02151  1.0000
  C   C956      1.0  0.74541  0.29006  0.43623  1.0000
  H   H1498     1.0  0.88240  0.03919  0.01586  1.0000
  S   S386      1.0  0.90956  0.40129  0.47471  1.0000
  H   H1499     1.0  0.87177  0.45556  0.24955  1.0000
  C   C957      1.0  0.92773  0.47430  0.20846  1.0000
  H   H1500     1.0  0.86450  0.99401  0.22614  1.0000
  C   C958      1.0  0.87010  0.46363  0.18079  1.0000
  H   H1501     1.0  0.76269  0.28939  0.43578  1.0000
  H   H1502     1.0  0.82091  0.38514  0.48700  1.0000
  H   H1503     1.0  0.92046  0.45174  0.48075  1.0000
  H   H1504     1.0  0.85714  0.03107  0.44018  1.0000
  S   S387      1.0  0.90460  0.00406  0.20119  1.0000
  H   H1505     1.0  0.75921  0.24243  0.41914  1.0000
  H   H1506     1.0  0.85338  0.00295  0.33125  1.0000
  S   S388      1.0  0.96878  0.34843  0.30117  1.0000
  H   H1507     1.0  0.90320  0.47439  0.32203  1.0000
  C   C959      1.0  0.87807  0.45871  0.22887  1.0000
  H   H1508     1.0  0.83295  0.48243  0.19953  1.0000
  H   H1509     1.0  0.83905  0.47896  0.23534  1.0000
  H   H1510     1.0  0.87701  0.35311  0.03259  1.0000
  C   C960      1.0  0.92306  0.01000  0.02904  1.0000
  C   C961      1.0  0.90863  0.48610  0.33728  1.0000
  N   N95       1.0  0.89379  0.03979  0.13195  1.0000
  C   C962      1.0  0.87397  0.03166  0.14236  1.0000
  C   C963      1.0  0.90892  0.02166  0.12344  1.0000
  C   C964      1.0  0.90379  0.05218  0.15365  1.0000
  C   C965      1.0  0.88851  0.05376  0.10827  1.0000
  Fe  Fe195     1.0  0.92179  0.10732  0.02429  1.0000
  H   H1511     1.0  0.87929  0.37022  0.48889  1.0000
  H   H1512     1.0  0.99034  0.30231  0.37497  1.0000
  H   H1513     1.0  0.94278  0.18368  0.00929  1.0000
  H   H1514     1.0  0.83566  0.44294  0.19252  1.0000
  H   H1515     1.0  0.76686  0.24279  0.17618  1.0000
  H   H1516     1.0  0.91743  0.46607  0.19494  1.0000
  H   H1517     1.0  0.95349  0.16351  0.03258  1.0000
  S   S389      1.0  0.85505  0.42928  0.00112  1.0000
  H   H1518     1.0  0.88140  0.04492  0.09114  1.0000
  H   H1519     1.0  0.87703  0.06757  0.11396  1.0000
  C   C966      1.0  0.75091  0.25115  0.18069  1.0000
  C   C967      1.0  0.98772  0.15286  0.07351  1.0000
  H   H1520     1.0  0.87897  0.47819  0.17980  1.0000
  H   H1521     1.0  0.90095  0.03317  0.34740  1.0000
  C   C968      1.0  0.85459  0.33337  0.99415  1.0000
  H   H1522     1.0  0.82260  0.36918  0.44001  1.0000
  H   H1523     1.0  0.85321  0.02367  0.30613  1.0000
  H   H1524     1.0  0.95390  0.17065  0.45772  1.0000
  H   H1525     1.0  0.84125  0.43958  0.22853  1.0000
  C   C969      1.0  0.88441  0.02959  0.34164  1.0000
  H   H1526     1.0  0.83524  0.34480  0.45363  1.0000
  H   H1527     1.0  0.76860  0.23955  0.35787  1.0000
  H   H1528     1.0  0.94021  0.45752  0.32022  1.0000
  H   H1529     1.0  0.85477  0.06036  0.47556  1.0000
  N   N96       1.0  0.88043  0.03555  0.47176  1.0000
  N   N97       1.0  0.84973  0.37316  0.46611  1.0000
  C   C970      1.0  0.85340  0.39425  0.45472  1.0000
  C   C971      1.0  0.89592  0.01867  0.29624  1.0000
  H   H1530     1.0  0.89224  0.06480  0.16233  1.0000
  C   C972      1.0  0.90678  0.99603  0.02775  1.0000
  C   C973      1.0  0.75139  0.33033  0.99953  1.0000
  H   H1531     1.0  0.85918  0.42724  0.20381  1.0000
  C   C974      1.0  0.90393  0.03304  0.47516  1.0000
  H   H1532     1.0  0.75620  0.18841  0.38838  1.0000
  H   H1533     1.0  0.87613  0.00425  0.48738  1.0000
  H   H1534     1.0  0.87272  0.06658  0.01070  1.0000
  C   C975      1.0  0.95517  0.47288  0.24379  1.0000
  H   H1535     1.0  0.77678  0.19104  0.36360  1.0000
  H   H1536     1.0  0.91764  0.06023  0.14577  1.0000
  H   H1537     1.0  0.90589  0.47941  0.35788  1.0000
  H   H1538     1.0  0.94897  0.44827  0.47719  1.0000
  H   H1539     1.0  0.86847  0.34534  0.48115  1.0000
  H   H1540     1.0  0.83772  0.01638  0.25339  1.0000
  H   H1541     1.0  0.74833  0.26475  0.16621  1.0000
  H   H1542     1.0  0.91301  0.01064  0.14083  1.0000
  H   H1543     1.0  0.94388  0.46830  0.08469  1.0000
  N   N98       1.0  0.87404  0.17895  0.24338  1.0000
  C   C976      1.0  0.88113  0.19979  0.23519  1.0000
  C   C977      1.0  0.78549  0.20373  0.30866  1.0000
  C   C978      1.0  0.87741  0.16351  0.22052  1.0000
  H   H1544     1.0  0.75318  0.20950  0.19386  1.0000
  H   H1545     1.0  0.87197  0.20632  0.21710  1.0000
  H   H1546     1.0  0.89841  0.19835  0.22971  1.0000
  H   H1547     1.0  0.87889  0.21176  0.25209  1.0000
  H   H1548     1.0  0.86235  0.04494  0.14935  1.0000
  H   H1549     1.0  0.88416  0.18188  0.28539  1.0000
  H   H1550     1.0  0.89477  0.33480  0.01328  1.0000
  H   H1551     1.0  0.92414  0.02730  0.11581  1.0000
  H   H1552     1.0  0.89468  0.16065  0.21520  1.0000
  H   H1553     1.0  0.86854  0.16906  0.20175  1.0000
  H   H1554     1.0  0.74851  0.21853  0.14469  1.0000
  C   C979      1.0  0.88660  0.17095  0.26743  1.0000
  H   H1555     1.0  0.90405  0.16871  0.26293  1.0000
  S   S390      1.0  0.97017  0.45829  0.26886  1.0000
  H   H1556     1.0  0.81871  0.20809  0.31657  1.0000
  H   H1557     1.0  0.85819  0.04550  0.99670  1.0000
  H   H1558     1.0  0.91222  0.99467  0.33796  1.0000
  H   H1559     1.0  0.98266  0.18577  0.08679  1.0000
  H   H1560     1.0  0.75165  0.25809  0.20170  1.0000
  H   H1561     1.0  0.90307  0.06041  0.10027  1.0000
  C   C980      1.0  0.84861  0.44195  0.20824  1.0000
  H   H1562     1.0  0.91665  0.47846  0.13586  1.0000
  H   H1563     1.0  0.84593  0.33555  0.01391  1.0000
  C   C981      1.0  0.87054  0.36152  0.47300  1.0000
  H   H1564     1.0  0.78058  0.22061  0.30910  1.0000
  H   H1565     1.0  0.95012  0.45890  0.11843  1.0000
  H   H1566     1.0  0.91037  0.01614  0.47191  1.0000
  H   H1567     1.0  0.80214  0.20051  0.39951  1.0000
  S   S391      1.0  0.95685  0.41171  0.31781  1.0000
  H   H1568     1.0  0.78213  0.19736  0.42498  1.0000
  H   H1569     1.0  0.93125  0.15852  0.01077  1.0000
  H   H1570     1.0  0.96917  0.47959  0.46628  1.0000
  C   C982      1.0  0.84626  0.48022  0.21472  1.0000
  H   H1571     1.0  0.85762  0.46478  0.16445  1.0000
  H   H1572     1.0  0.86323  0.39266  0.43579  1.0000
  H   H1573     1.0  0.74357  0.29802  0.47935  1.0000
  H   H1574     1.0  0.86217  0.40384  0.46957  1.0000
  C   C983      1.0  0.87057  0.02132  0.49109  1.0000
  H   H1575     1.0  0.79450  0.22528  0.36112  1.0000
  C   C984      1.0  0.94050  0.00678  0.01133  1.0000
  H   H1576     1.0  0.95210  0.48597  0.43723  1.0000
  H   H1577     1.0  0.74657  0.21786  0.42138  1.0000
  H   H1578     1.0  0.95329  0.01730  0.01241  1.0000
  S   S392      1.0  0.74276  0.19733  0.30104  1.0000
  H   H1579     1.0  0.88694  0.47328  0.23029  1.0000
  H   H1580     1.0  0.84790  0.37497  0.00941  1.0000
  H   H1581     1.0  0.84783  0.35824  0.42652  1.0000
  C   C985      1.0  0.76364  0.20004  0.37519  1.0000
  C   C986      1.0  0.87250  0.05798  0.47741  1.0000
  H   H1582     1.0  0.75818  0.32695  0.02025  1.0000
  H   H1583     1.0  0.96922  0.47306  0.10014  1.0000
  H   H1584     1.0  0.91277  0.02169  0.30101  1.0000
  C   C987      1.0  0.94463  0.46919  0.33602  1.0000
  H   H1585     1.0  0.87925  0.06911  0.46280  1.0000
  H   H1586     1.0  0.96831  0.14571  0.44827  1.0000
  C   C988      1.0  0.94663  0.16619  0.01168  1.0000
  S   S393      1.0  0.74818  0.28073  0.38130  1.0000
  H   H1587     1.0  0.91701  0.04648  0.99706  1.0000
  H   H1588     1.0  0.98107  0.11980  0.48443  1.0000
  C   C989      1.0  0.89538  0.99249  0.33205  1.0000
  H   H1589     1.0  0.89598  0.36302  0.00966  1.0000
  H   H1590     1.0  0.92901  0.48740  0.28957  1.0000
  H   H1591     1.0  0.95111  0.48439  0.15721  1.0000
  H   H1592     1.0  0.85281  0.02262  0.48920  1.0000
  H   H1593     1.0  0.78656  0.30302  0.99975  1.0000
  S   S394      1.0  0.90793  0.12133  0.48928  1.0000
  H   H1594     1.0  0.74283  0.34659  0.99999  1.0000
  H   H1595     1.0  0.91075  0.48675  0.10148  1.0000
  C   C990      1.0  0.95382  0.48832  0.45970  1.0000
  H   H1596     1.0  0.98959  0.16499  0.01302  1.0000
  N   N99       1.0  0.96504  0.15101  0.49166  1.0000
  H   H1597     1.0  0.95124  0.12580  0.99226  1.0000
  C   C991      1.0  0.98185  0.16785  0.99262  1.0000
  C   C992      1.0  0.83665  0.37610  0.49112  1.0000
  N   N100      1.0  0.87445  0.02497  0.84705  1.0000
  S   S395      1.0  0.78972  0.31537  0.57052  1.0000
  H   H1598     1.0  0.77991  0.22409  0.82000  1.0000
  H   H1599     1.0  0.78027  0.17512  0.75816  1.0000
  H   H1600     1.0  0.74436  0.34549  0.67770  1.0000
  Fe  Fe196     1.0  0.91590  0.09765  0.58716  1.0000
  S   S396      1.0  0.94500  0.07465  0.59098  1.0000
  S   S397      1.0  0.89125  0.10159  0.62067  1.0000
  Fe  Fe197     1.0  0.96037  0.09701  0.56256  1.0000
  S   S398      1.0  0.74439  0.27921  0.54017  1.0000
  Fe  Fe198     1.0  0.93282  0.05917  0.55290  1.0000
  S   S399      1.0  0.92302  0.02529  0.55576  1.0000
  S   S400      1.0  0.93201  0.12129  0.56183  1.0000
  S   S401      1.0  0.90304  0.08144  0.55037  1.0000
  H   H1601     1.0  0.86095  0.45727  0.67527  1.0000
  H   H1602     1.0  0.84330  0.03156  0.82870  1.0000
  N   N101      1.0  0.87284  0.03821  0.61707  1.0000
  H   H1603     1.0  0.84545  0.20470  0.78943  1.0000
  H   H1604     1.0  0.96583  0.07837  0.74137  1.0000
  Fe  Fe199     1.0  0.85573  0.13616  0.81337  1.0000
  S   S402      1.0  0.89162  0.13604  0.81571  1.0000
  S   S403      1.0  0.83832  0.16748  0.82706  1.0000
  Fe  Fe200     1.0  0.85831  0.09030  0.79353  1.0000
  S   S404      1.0  0.89408  0.08701  0.79366  1.0000
  S   S405      1.0  0.84330  0.06022  0.78261  1.0000
  Fe  Fe201     1.0  0.89112  0.10366  0.83440  1.0000
  S   S406      1.0  0.91288  0.08888  0.86751  1.0000
  Fe  Fe202     1.0  0.89112  0.11948  0.77493  1.0000
  S   S407      1.0  0.91337  0.12903  0.74188  1.0000
  S   S408      1.0  0.85534  0.10488  0.83561  1.0000
  S   S409      1.0  0.85531  0.12156  0.77121  1.0000
  C   C993      1.0  0.90897  0.47285  0.61983  1.0000
  S   S410      1.0  0.92345  0.38274  0.80447  1.0000
  Fe  Fe203     1.0  0.96286  0.42186  0.77876  1.0000
  S   S411      1.0  0.92784  0.43069  0.78318  1.0000
  H   H1605     1.0  0.87700  0.18105  0.80113  1.0000
  Fe  Fe204     1.0  0.93109  0.41396  0.82342  1.0000
  S   S412      1.0  0.91563  0.43466  0.85743  1.0000
  Fe  Fe205     1.0  0.92371  0.39907  0.76362  1.0000
  S   S413      1.0  0.89729  0.39731  0.73188  1.0000
  S   S414      1.0  0.96666  0.40678  0.82027  1.0000
  S   S415      1.0  0.95880  0.39112  0.75612  1.0000
  Fe  Fe206     1.0  0.89587  0.41839  0.57372  1.0000
  S   S416      1.0  0.86607  0.44040  0.57796  1.0000
  S   S417      1.0  0.92044  0.41211  0.60744  1.0000
  H   H1606     1.0  0.84707  0.00656  0.84632  1.0000
  H   H1607     1.0  0.89436  0.20030  0.78960  1.0000
  H   H1608     1.0  0.93359  0.15397  0.50933  1.0000
  Fe  Fe207     1.0  0.87847  0.45812  0.54233  1.0000
  H   H1609     1.0  0.94577  0.09477  0.72334  1.0000
  Fe  Fe208     1.0  0.85226  0.41904  0.54615  1.0000
  S   S418      1.0  0.81824  0.40881  0.54710  1.0000
  S   S419      1.0  0.90895  0.43701  0.53972  1.0000
  S   S420      1.0  0.88140  0.39566  0.54455  1.0000
  C   C994      1.0  0.88526  0.18675  0.78279  1.0000
  H   H1610     1.0  0.84750  0.48246  0.74353  1.0000
  H   H1611     1.0  0.75139  0.26627  0.93831  1.0000
  H   H1612     1.0  0.90683  0.45546  0.61965  1.0000
  H   H1613     1.0  0.83979  0.48201  0.70797  1.0000
  C   C995      1.0  0.92926  0.05888  0.73793  1.0000
  C   C996      1.0  0.91342  0.40793  0.64179  1.0000
  C   C997      1.0  0.92932  0.40833  0.66207  1.0000
  C   C998      1.0  0.92452  0.40500  0.68966  1.0000
  C   C999      1.0  0.90384  0.40088  0.69720  1.0000
  C   C1000     1.0  0.88789  0.40036  0.67689  1.0000
  C   C1001     1.0  0.89260  0.40413  0.64927  1.0000
  H   H1614     1.0  0.94552  0.41104  0.65645  1.0000
  H   H1615     1.0  0.93694  0.40534  0.70502  1.0000
  H   H1616     1.0  0.87187  0.39703  0.68253  1.0000
  H   H1617     1.0  0.88028  0.40361  0.63373  1.0000
  C   C1002     1.0  0.91352  0.42387  0.89045  1.0000
  C   C1003     1.0  0.92316  0.40366  0.89703  1.0000
  C   C1004     1.0  0.92155  0.39577  0.92375  1.0000
  C   C1005     1.0  0.91025  0.40798  0.94397  1.0000
  C   C1006     1.0  0.90049  0.42814  0.93733  1.0000
  C   C1007     1.0  0.90217  0.43605  0.91065  1.0000
  H   H1618     1.0  0.93195  0.39417  0.88159  1.0000
  H   H1619     1.0  0.92916  0.38018  0.92876  1.0000
  H   H1620     1.0  0.89168  0.43760  0.95277  1.0000
  H   H1621     1.0  0.89451  0.45153  0.90554  1.0000
  C   C1008     1.0  0.78789  0.35478  0.63976  1.0000
  N   N102      1.0  0.86635  0.45966  0.71875  1.0000
  C   C1009     1.0  0.94841  0.45427  0.72703  1.0000
  Fe  Fe209     1.0  0.75554  0.30550  0.56739  1.0000
  H   H1622     1.0  0.90172  0.01425  0.87179  1.0000
  H   H1623     1.0  0.94874  0.43705  0.72773  1.0000
  C   C1010     1.0  0.88249  0.02690  0.71407  1.0000
  C   C1011     1.0  0.87979  0.04925  0.71531  1.0000
  C   C1012     1.0  0.86752  0.05953  0.73617  1.0000
  C   C1013     1.0  0.85698  0.04753  0.75498  1.0000
  C   C1014     1.0  0.85851  0.02523  0.75264  1.0000
  H   H1624     1.0  0.84339  0.03094  0.86544  1.0000
  H   H1625     1.0  0.88765  0.05868  0.70066  1.0000
  H   H1626     1.0  0.86610  0.07676  0.73769  1.0000
  S   S421      1.0  0.90511  0.12483  0.98891  1.0000
  H   H1627     1.0  0.91237  0.48482  0.92610  1.0000
  H   H1628     1.0  0.89475  0.05022  0.64618  1.0000
  C   C1015     1.0  0.87428  0.45775  0.69033  1.0000
  H   H1629     1.0  0.88400  0.01335  0.58891  1.0000
  C   C1016     1.0  0.94913  0.16128  0.51085  1.0000
  H   H1630     1.0  0.87125  0.05730  0.83276  1.0000
  H   H1631     1.0  0.92249  0.45735  0.69804  1.0000
  H   H1632     1.0  0.97004  0.14784  0.57779  1.0000
  C   C1017     1.0  0.90716  0.12156  0.70815  1.0000
  C   C1018     1.0  0.92171  0.12437  0.68703  1.0000
  C   C1019     1.0  0.91722  0.11802  0.66006  1.0000
  C   C1020     1.0  0.89795  0.10923  0.65412  1.0000
  C   C1021     1.0  0.88343  0.10650  0.67524  1.0000
  C   C1022     1.0  0.88809  0.11247  0.70221  1.0000
  H   H1633     1.0  0.93648  0.13144  0.69152  1.0000
  H   H1634     1.0  0.92844  0.12026  0.64382  1.0000
  H   H1635     1.0  0.86848  0.09973  0.67076  1.0000
  H   H1636     1.0  0.87680  0.11024  0.71830  1.0000
  C   C1023     1.0  0.90785  0.11508  0.95511  1.0000
  C   C1024     1.0  0.89326  0.12302  0.93503  1.0000
  C   C1025     1.0  0.89475  0.11526  0.90798  1.0000
  C   C1026     1.0  0.91092  0.09954  0.90091  1.0000
  C   C1027     1.0  0.92566  0.09176  0.92094  1.0000
  C   C1028     1.0  0.92424  0.09962  0.94793  1.0000
  H   H1637     1.0  0.88062  0.13511  0.94041  1.0000
  H   H1638     1.0  0.88334  0.12140  0.89265  1.0000
  H   H1639     1.0  0.93832  0.07972  0.91548  1.0000
  H   H1640     1.0  0.93585  0.09372  0.96309  1.0000
  C   C1029     1.0  0.93371  0.06381  0.68936  1.0000
  H   H1641     1.0  0.88352  0.47140  0.68494  1.0000
  H   H1642     1.0  0.95146  0.02720  0.71037  1.0000
  C   C1030     1.0  0.80534  0.19873  0.82305  1.0000
  N   N103      1.0  0.76825  0.32838  0.97850  1.0000
  H   H1643     1.0  0.75647  0.22287  0.70624  1.0000
  C   C1031     1.0  0.95684  0.08000  0.72167  1.0000
  H   H1644     1.0  0.83864  0.44265  0.71035  1.0000
  C   C1032     1.0  0.94327  0.00178  0.51351  1.0000
  H   H1645     1.0  0.86185  0.42625  0.72130  1.0000
  C   C1033     1.0  0.79742  0.34132  0.56320  1.0000
  C   C1034     1.0  0.78249  0.35809  0.55566  1.0000
  C   C1035     1.0  0.78914  0.37862  0.55097  1.0000
  C   C1036     1.0  0.81076  0.38267  0.55367  1.0000
  C   C1037     1.0  0.82573  0.36590  0.56119  1.0000
  C   C1038     1.0  0.81906  0.34537  0.56594  1.0000
  H   H1646     1.0  0.76581  0.35528  0.55335  1.0000
  H   H1647     1.0  0.87999  0.03941  0.57423  1.0000
  H   H1648     1.0  0.84241  0.36876  0.56352  1.0000
  H   H1649     1.0  0.83075  0.33255  0.57191  1.0000
  C   C1039     1.0  0.94555  0.46644  0.63538  1.0000
  H   H1650     1.0  0.89637  0.04949  0.84908  1.0000
  H   H1651     1.0  0.74796  0.36491  0.62079  1.0000
  C   C1040     1.0  0.81464  0.17951  0.81188  1.0000
  C   C1041     1.0  0.80554  0.17102  0.78841  1.0000
  C   C1042     1.0  0.78729  0.18178  0.77624  1.0000
  H   H1652     1.0  0.89783  0.48046  0.60424  1.0000
  H   H1653     1.0  0.89703  0.17352  0.77589  1.0000
  H   H1654     1.0  0.81247  0.15615  0.77971  1.0000
  H   H1655     1.0  0.93877  0.47658  0.87053  1.0000
  C   C1043     1.0  0.96872  0.12803  0.49797  1.0000
  C   C1044     1.0  0.77410  0.32103  0.64987  1.0000
  C   C1045     1.0  0.88366  0.01618  0.82117  1.0000
  H   H1656     1.0  0.87365  0.99767  0.73188  1.0000
  H   H1657     1.0  0.94387  0.44893  0.63612  1.0000
  H   H1658     1.0  0.84484  0.38522  0.50706  1.0000
  H   H1659     1.0  0.85879  0.06659  0.63704  1.0000
  N   N104      1.0  0.93140  0.47690  0.61426  1.0000
  H   H1660     1.0  0.76774  0.29429  0.97533  1.0000
  C   C1046     1.0  0.93831  0.48503  0.50426  1.0000
  H   H1661     1.0  0.93705  0.05795  0.75846  1.0000
  H   H1662     1.0  0.95603  0.01228  0.51518  1.0000
  C   C1047     1.0  0.87349  0.02856  0.58939  1.0000
  H   H1663     1.0  0.84817  0.01886  0.63039  1.0000
  C   C1048     1.0  0.85105  0.02346  0.84686  1.0000
  H   H1664     1.0  0.89106  0.35976  0.95961  1.0000
  C   C1049     1.0  0.96004  0.04170  0.71480  1.0000
  H   H1665     1.0  0.87716  0.02557  0.80335  1.0000
  C   C1050     1.0  0.95189  0.16140  0.96306  1.0000
  H   H1666     1.0  0.90164  0.05380  0.61099  1.0000
  H   H1667     1.0  0.95182  0.48791  0.79880  1.0000
  H   H1668     1.0  0.89821  0.02904  0.94328  1.0000
  N   N105      1.0  0.88709  0.05090  0.97526  1.0000
  C   C1051     1.0  0.87889  0.04762  0.84973  1.0000
  H   H1669     1.0  0.93652  0.15377  0.96096  1.0000
  C   C1052     1.0  0.88421  0.01269  0.87031  1.0000
  H   H1670     1.0  0.85726  0.02510  0.58226  1.0000
  C   C1053     1.0  0.75267  0.34764  0.62400  1.0000
  H   H1671     1.0  0.87475  0.08289  0.96507  1.0000
  H   H1672     1.0  0.97214  0.04283  0.69842  1.0000
  H   H1673     1.0  0.97425  0.12547  0.51947  1.0000
  H   H1674     1.0  0.87998  0.99934  0.81786  1.0000
  C   C1054     1.0  0.93245  0.48818  0.70985  1.0000
  H   H1675     1.0  0.94834  0.17879  0.95930  1.0000
  N   N106      1.0  0.86976  0.19319  0.76083  1.0000
  C   C1055     1.0  0.85405  0.21018  0.77123  1.0000
  C   C1056     1.0  0.87166  0.01490  0.73260  1.0000
  H   H1676     1.0  0.84973  0.16817  0.76960  1.0000
  H   H1677     1.0  0.84647  0.17875  0.73580  1.0000
  H   H1678     1.0  0.84167  0.21502  0.75553  1.0000
  H   H1679     1.0  0.86192  0.22465  0.77762  1.0000
  C   C1057     1.0  0.85848  0.17455  0.75217  1.0000
  H   H1680     1.0  0.87472  0.02504  0.51269  1.0000
  C   C1058     1.0  0.89470  0.04270  0.62549  1.0000
  H   H1681     1.0  0.92150  0.07767  0.68986  1.0000
  C   C1059     1.0  0.85885  0.05836  0.61675  1.0000
  H   H1682     1.0  0.95472  0.15963  0.53243  1.0000
  H   H1683     1.0  0.78416  0.37218  0.63625  1.0000
  H   H1684     1.0  0.74798  0.24735  0.68877  1.0000
  H   H1685     1.0  0.80006  0.35284  0.65643  1.0000
  S   S422      1.0  0.97983  0.45032  0.76609  1.0000
  H   H1686     1.0  0.86441  0.06973  0.60151  1.0000
  H   H1687     1.0  0.77044  0.35076  0.68970  1.0000
  S   S423      1.0  0.75541  0.27300  0.80290  1.0000
  H   H1688     1.0  0.87314  0.48155  0.92710  1.0000
  H   H1689     1.0  0.75451  0.37065  0.67038  1.0000
  H   H1690     1.0  0.90885  0.03793  0.49607  1.0000
  S   S424      1.0  0.97364  0.34348  0.80974  1.0000
  C   C1060     1.0  0.93347  0.46584  0.71030  1.0000
  H   H1691     1.0  0.89181  0.48737  0.88282  1.0000
  C   C1061     1.0  0.96840  0.45961  0.83616  1.0000
  H   H1692     1.0  0.87498  0.00816  0.63818  1.0000
  H   H1693     1.0  0.79638  0.34376  0.96807  1.0000
  H   H1694     1.0  0.87289  0.02381  0.95787  1.0000
  C   C1062     1.0  0.90868  0.05728  0.98179  1.0000
  H   H1695     1.0  0.77603  0.36071  0.98524  1.0000
  Fe  Fe210     1.0  0.95917  0.37665  0.79824  1.0000
  S   S425      1.0  0.95107  0.07909  0.52448  1.0000
  H   H1696     1.0  0.92705  0.47534  0.57073  1.0000
  H   H1697     1.0  0.84369  0.37219  0.97321  1.0000
  H   H1698     1.0  0.96266  0.46867  0.63150  1.0000
  C   C1063     1.0  0.77792  0.20095  0.78758  1.0000
  H   H1699     1.0  0.96875  0.03900  0.73457  1.0000
  H   H1700     1.0  0.81227  0.20541  0.84120  1.0000
  H   H1701     1.0  0.84204  0.05553  0.61148  1.0000
  H   H1702     1.0  0.86986  0.16136  0.74426  1.0000
  H   H1703     1.0  0.95305  0.47612  0.51240  1.0000
  H   H1704     1.0  0.92528  0.04949  0.68392  1.0000
  C   C1064     1.0  0.98659  0.15066  0.57450  1.0000
  H   H1705     1.0  0.93666  0.45052  0.58630  1.0000
  H   H1706     1.0  0.90136  0.01650  0.82094  1.0000
  H   H1707     1.0  0.87002  0.20605  0.72022  1.0000
  H   H1708     1.0  0.89004  0.21518  0.74298  1.0000
  S   S426      1.0  0.74809  0.28120  0.88323  1.0000
  C   C1065     1.0  0.88126  0.20113  0.73720  1.0000
  C   C1066     1.0  0.74317  0.23569  0.70410  1.0000
  C   C1067     1.0  0.96269  0.48716  0.74132  1.0000
  H   H1709     1.0  0.87267  0.05484  0.86925  1.0000
  H   H1710     1.0  0.92083  0.04412  0.73510  1.0000
  H   H1711     1.0  0.86857  0.34740  0.94595  1.0000
  H   H1712     1.0  0.96847  0.08258  0.70518  1.0000
  C   C1068     1.0  0.78701  0.20937  0.81105  1.0000
  C   C1069     1.0  0.75907  0.35321  0.67218  1.0000
  S   S427      1.0  0.86189  0.43905  0.51054  1.0000
  C   C1070     1.0  0.88468  0.45841  0.73804  1.0000
  N   N107      1.0  0.94498  0.06110  0.71594  1.0000
  H   H1713     1.0  0.89319  0.18854  0.72900  1.0000
  C   C1071     1.0  0.88006  0.34709  0.96343  1.0000
  H   H1714     1.0  0.85021  0.01588  0.76699  1.0000
  S   S428      1.0  0.75513  0.21422  0.77175  1.0000
  H   H1715     1.0  0.87680  0.01808  0.89005  1.0000
  H   H1716     1.0  0.86300  0.03031  0.65755  1.0000
  S   S429      1.0  0.90035  0.01438  0.69019  1.0000
  H   H1717     1.0  0.86002  0.06221  0.95049  1.0000
  C   C1072     1.0  0.96288  0.46487  0.74286  1.0000
  C   C1073     1.0  0.94019  0.48535  0.85100  1.0000
  C   C1074     1.0  0.92541  0.00498  0.53054  1.0000
  H   H1718     1.0  0.77743  0.39145  0.54509  1.0000
  H   H1719     1.0  0.87700  0.06305  0.49841  1.0000
  Fe  Fe211     1.0  0.92197  0.10249  0.52528  1.0000
  H   H1720     1.0  0.75919  0.34098  0.60432  1.0000
  H   H1721     1.0  0.94170  0.47313  0.65601  1.0000
  S   S430      1.0  0.90855  0.39754  0.97724  1.0000
  H   H1722     1.0  0.90788  0.07374  0.99051  1.0000
  H   H1723     1.0  0.91690  0.07273  0.73838  1.0000
  H   H1724     1.0  0.94588  0.17864  0.50665  1.0000
  H   H1725     1.0  0.89536  0.44352  0.73480  1.0000
  H   H1726     1.0  0.88516  0.44302  0.68742  1.0000
  C   C1075     1.0  0.88890  0.02937  0.96260  1.0000
  C   C1076     1.0  0.87637  0.06648  0.95602  1.0000
  H   H1727     1.0  0.92449  0.48021  0.51620  1.0000
  N   N108      1.0  0.86890  0.35055  0.98987  1.0000
  C   C1077     1.0  0.77917  0.30658  0.97927  1.0000
  C   C1078     1.0  0.86434  0.02323  0.63660  1.0000
  N   N109      1.0  0.76844  0.34418  0.64648  1.0000
  H   H1728     1.0  0.79190  0.30432  0.96355  1.0000
  C   C1079     1.0  0.85278  0.44209  0.72428  1.0000
  C   C1080     1.0  0.90917  0.99102  0.52850  1.0000
  H   H1729     1.0  0.88992  0.33151  0.96290  1.0000
  H   H1730     1.0  0.90378  0.47929  0.64020  1.0000
  C   C1081     1.0  0.93767  0.46812  0.58709  1.0000
  Fe  Fe212     1.0  0.89176  0.41669  0.51088  1.0000
  H   H1731     1.0  0.78090  0.31362  0.63067  1.0000
  C   C1082     1.0  0.98540  0.16110  0.49455  1.0000
  H   H1732     1.0  0.84690  0.44267  0.74573  1.0000
  H   H1733     1.0  0.96265  0.15477  0.94648  1.0000
  H   H1734     1.0  0.94493  0.06646  0.67241  1.0000
  H   H1735     1.0  0.79550  0.34791  0.62074  1.0000
  H   H1736     1.0  0.89724  0.01736  0.97649  1.0000
  H   H1737     1.0  0.91893  0.05689  0.96327  1.0000
  C   C1083     1.0  0.78393  0.34416  0.98417  1.0000
  H   H1738     1.0  0.98132  0.18481  0.58054  1.0000
  H   H1739     1.0  0.78618  0.31784  0.66643  1.0000
  H   H1740     1.0  0.92863  0.47894  0.83629  1.0000
  H   H1741     1.0  0.90568  0.02781  0.62618  1.0000
  H   H1742     1.0  0.89534  0.99323  0.54168  1.0000
  C   C1084     1.0  0.75848  0.33242  0.95119  1.0000
  H   H1743     1.0  0.88201  0.99534  0.86805  1.0000
  H   H1744     1.0  0.88564  0.06743  0.93676  1.0000
  H   H1745     1.0  0.87935  0.45841  0.75971  1.0000
  H   H1746     1.0  0.95441  0.47118  0.58209  1.0000
  C   C1085     1.0  0.85370  0.48044  0.72230  1.0000
  C   C1086     1.0  0.85614  0.37144  0.98956  1.0000
  H   H1747     1.0  0.77058  0.33049  0.93461  1.0000
  N   N110      1.0  0.96225  0.48259  0.84038  1.0000
  H   H1748     1.0  0.89454  0.47215  0.73555  1.0000
  H   H1749     1.0  0.84238  0.33308  0.97757  1.0000
  H   H1750     1.0  0.75028  0.34880  0.94987  1.0000
  H   H1751     1.0  0.97672  0.48330  0.88034  1.0000
  H   H1752     1.0  0.95755  0.45269  0.82103  1.0000
  H   H1753     1.0  0.96746  0.45043  0.85546  1.0000
  H   H1754     1.0  0.98494  0.45671  0.82799  1.0000
  H   H1755     1.0  0.86646  0.38463  0.98575  1.0000
  H   H1756     1.0  0.75981  0.31260  0.65526  1.0000
  H   H1757     1.0  0.74625  0.32110  0.94652  1.0000
  H   H1758     1.0  0.97770  0.12704  0.97898  1.0000
  H   H1759     1.0  0.83339  0.36054  0.50029  1.0000
  H   H1760     1.0  0.95381  0.11984  0.49525  1.0000
  H   H1761     1.0  0.97914  0.18545  0.99001  1.0000
  N   N111      1.0  0.96163  0.15743  0.99039  1.0000
  C   C1087     1.0  0.87803  0.60306  0.08771  1.0000
  N   N112      1.0  0.94222  0.49280  0.11583  1.0000
  H   H1762     1.0  0.87692  0.55625  0.05255  1.0000
  Fe  Fe213     1.0  0.78561  0.71171  0.17487  1.0000
  S   S431      1.0  0.78130  0.74742  0.18064  1.0000
  S   S432      1.0  0.81991  0.69814  0.18206  1.0000
  C   C1088     1.0  0.75442  0.74025  0.27467  1.0000
  C   C1089     1.0  0.84521  0.53244  0.99779  1.0000
  Fe  Fe214     1.0  0.76498  0.74747  0.13966  1.0000
  S   S433      1.0  0.77109  0.77217  0.10789  1.0000
  C   C1090     1.0  0.85286  0.57619  0.09123  1.0000
  Fe  Fe215     1.0  0.85449  0.95123  0.47868  1.0000
  S   S434      1.0  0.77107  0.71218  0.13276  1.0000
  S   S435      1.0  0.87577  0.96630  0.44921  1.0000
  H   H1763     1.0  0.80105  0.91323  0.34341  1.0000
  N   N113      1.0  0.86772  0.58607  0.07278  1.0000
  H   H1764     1.0  0.98135  0.86980  0.28592  1.0000
  H   H1765     1.0  0.99058  0.64720  0.99828  1.0000
  H   H1766     1.0  0.96213  0.51202  0.09227  1.0000
  S   S436      1.0  0.76026  0.84431  0.43103  1.0000
  H   H1767     1.0  0.84558  0.96466  0.31590  1.0000
  S   S437      1.0  0.77226  0.78074  0.42275  1.0000
  H   H1768     1.0  0.98990  0.65268  0.34417  1.0000
  C   C1091     1.0  0.94831  0.55711  0.31359  1.0000
  H   H1769     1.0  0.80527  0.87940  0.38751  1.0000
  C   C1092     1.0  0.97368  0.89026  0.23834  1.0000
  C   C1093     1.0  0.92931  0.58746  0.29068  1.0000
  H   H1770     1.0  0.95541  0.85981  0.28885  1.0000
  Fe  Fe216     1.0  0.95711  0.56438  0.47464  1.0000
  H   H1771     1.0  0.95169  0.91436  0.08690  1.0000
  H   H1772     1.0  0.93632  0.49886  0.37525  1.0000
  H   H1773     1.0  0.84841  0.90322  0.33014  1.0000
  Fe  Fe217     1.0  0.89850  0.93800  0.45838  1.0000
  Fe  Fe218     1.0  0.86264  0.90735  0.45209  1.0000
  S   S438      1.0  0.85470  0.87266  0.44874  1.0000
  Fe  Fe219     1.0  0.86255  0.94616  0.41616  1.0000
  H   H1774     1.0  0.88717  0.59660  0.10585  1.0000
  H   H1775     1.0  0.93171  0.89001  0.22932  1.0000
  S   S439      1.0  0.88704  0.91866  0.42299  1.0000
  H   H1776     1.0  0.89643  0.95290  0.05891  1.0000
  Fe  Fe220     1.0  0.92923  0.92813  0.18007  1.0000
  S   S440      1.0  0.90223  0.90790  0.18713  1.0000
  S   S441      1.0  0.96199  0.91577  0.16471  1.0000
  Fe  Fe221     1.0  0.89568  0.92764  0.22535  1.0000
  S   S442      1.0  0.89425  0.91181  0.26691  1.0000
  Fe  Fe222     1.0  0.88207  0.93375  0.16499  1.0000
  S   S443      1.0  0.86209  0.92245  0.12984  1.0000
  S   S444      1.0  0.92439  0.94607  0.21970  1.0000
  S   S445      1.0  0.90955  0.95295  0.15590  1.0000
  S   S446      1.0  0.88844  0.56954  0.21021  1.0000
  S   S447      1.0  0.90470  0.56354  0.14667  1.0000
  Fe  Fe223     1.0  0.88550  0.58854  0.17147  1.0000
  S   S448      1.0  0.85319  0.60196  0.15552  1.0000
  Fe  Fe224     1.0  0.91061  0.54649  0.18654  1.0000
  S   S449      1.0  0.95861  0.58758  0.12862  1.0000
  H   H1777     1.0  0.82458  0.86111  0.37097  1.0000
  H   H1778     1.0  0.90276  0.91217  0.09216  1.0000
  H   H1779     1.0  0.89240  0.50354  0.01107  1.0000
  C   C1094     1.0  0.84725  0.95782  0.04918  1.0000
  C   C1095     1.0  0.84978  0.93554  0.05014  1.0000
  C   C1096     1.0  0.85440  0.92504  0.07498  1.0000
  C   C1097     1.0  0.85746  0.93668  0.09905  1.0000
  C   C1098     1.0  0.85576  0.95905  0.09810  1.0000
  C   C1099     1.0  0.85031  0.96959  0.07326  1.0000
  H   H1780     1.0  0.85783  0.96817  0.11665  1.0000
  C   C1100     1.0  0.86611  0.94593  0.34380  1.0000
  C   C1101     1.0  0.85863  0.95234  0.31771  1.0000
  C   C1102     1.0  0.86768  0.94265  0.29388  1.0000
  C   C1103     1.0  0.88386  0.92596  0.29601  1.0000
  C   C1104     1.0  0.89120  0.91946  0.32209  1.0000
  N   N114      1.0  0.79682  0.90684  0.01366  1.0000
  H   H1781     1.0  0.86167  0.94760  0.27390  1.0000
  H   H1782     1.0  0.92832  0.52061  0.35277  1.0000
  H   H1783     1.0  0.90602  0.53896  0.00147  1.0000
  H   H1784     1.0  0.76684  0.73134  0.08116  1.0000
  C   C1105     1.0  0.97054  0.88833  0.16747  1.0000
  C   C1106     1.0  0.95619  0.87339  0.17420  1.0000
  C   C1107     1.0  0.96361  0.85191  0.17835  1.0000
  H   H1785     1.0  0.94330  0.91666  0.03726  1.0000
  H   H1786     1.0  0.84474  0.56333  0.08064  1.0000
  H   H1787     1.0  0.93939  0.87835  0.17639  1.0000
  C   C1108     1.0  0.90974  0.95102  0.07414  1.0000
  N   N115      1.0  0.82740  0.89422  0.36186  1.0000
  Fe  Fe225     1.0  0.91345  0.57871  0.45328  1.0000
  H   H1788     1.0  0.92497  0.51417  0.30306  1.0000
  H   H1789     1.0  0.80255  0.87382  0.35168  1.0000
  H   H1790     1.0  0.84787  0.58303  0.03714  1.0000
  H   H1791     1.0  0.80016  0.84439  0.48975  1.0000
  C   C1109     1.0  0.94626  0.57319  0.07745  1.0000
  H   H1792     1.0  0.92606  0.87248  0.25647  1.0000
  H   H1793     1.0  0.91902  0.96530  0.07258  1.0000
  N   N116      1.0  0.92345  0.93104  0.06937  1.0000
  C   C1110     1.0  0.78673  0.85187  0.43481  1.0000
  C   C1111     1.0  0.78972  0.87303  0.44247  1.0000
  C   C1112     1.0  0.81040  0.87963  0.44668  1.0000
  C   C1113     1.0  0.82838  0.86511  0.44328  1.0000
  C   C1114     1.0  0.82541  0.84397  0.43544  1.0000
  C   C1115     1.0  0.80471  0.83739  0.43106  1.0000
  H   H1794     1.0  0.95244  0.84047  0.18386  1.0000
  H   H1795     1.0  0.81239  0.89588  0.45297  1.0000
  H   H1796     1.0  0.83923  0.83263  0.43268  1.0000
  H   H1797     1.0  0.80269  0.82111  0.42487  1.0000
  C   C1116     1.0  0.82888  0.67164  0.17312  1.0000
  C   C1117     1.0  0.81480  0.65701  0.16389  1.0000
  C   C1118     1.0  0.82251  0.63576  0.15808  1.0000
  C   C1119     1.0  0.84427  0.62900  0.16160  1.0000
  C   C1120     1.0  0.85840  0.64375  0.17029  1.0000
  C   C1121     1.0  0.85072  0.66498  0.17602  1.0000
  H   H1798     1.0  0.79794  0.66199  0.16155  1.0000
  H   H1799     1.0  0.81147  0.62445  0.15128  1.0000
  H   H1800     1.0  0.87523  0.63883  0.17264  1.0000
  H   H1801     1.0  0.86171  0.67630  0.18290  1.0000
  H   H1802     1.0  0.97251  0.85151  0.26067  1.0000
  H   H1803     1.0  0.78322  0.87905  0.02899  1.0000
  C   C1122     1.0  0.76016  0.73739  0.30234  1.0000
  H   H1804     1.0  0.96458  0.62618  0.01986  1.0000
  H   H1805     1.0  0.97031  0.49868  0.13934  1.0000
  H   H1806     1.0  0.93840  0.89715  0.29086  1.0000
  H   H1807     1.0  0.86643  0.60301  0.03460  1.0000
  H   H1808     1.0  0.88708  0.98718  0.35058  1.0000
  H   H1809     1.0  0.85666  0.72337  0.13777  1.0000
  C   C1123     1.0  0.88267  0.54694  0.48629  1.0000
  C   C1124     1.0  0.76756  0.76491  0.07334  1.0000
  H   H1810     1.0  0.89413  0.56268  0.08039  1.0000
  H   H1811     1.0  0.89567  0.97918  0.31681  1.0000
  C   C1125     1.0  0.93272  0.93140  0.04163  1.0000
  C   C1126     1.0  0.76467  0.77495  0.02521  1.0000
  C   C1127     1.0  0.76673  0.78060  0.05298  1.0000
  C   C1128     1.0  0.87471  0.55465  0.99310  1.0000
  C   C1129     1.0  0.98908  0.67026  0.43120  1.0000
  H   H1812     1.0  0.81762  0.87886  0.00349  1.0000
  H   H1813     1.0  0.79316  0.89615  0.05493  1.0000
  H   H1814     1.0  0.97319  0.60326  0.04015  1.0000
  H   H1815     1.0  0.80314  0.73636  0.10656  1.0000
  C   C1130     1.0  0.92694  0.49662  0.20841  1.0000
  C   C1131     1.0  0.91918  0.49109  0.12060  1.0000
  C   C1132     1.0  0.76402  0.75348  0.01774  1.0000
  H   H1816     1.0  0.89812  0.50118  0.33520  1.0000
  H   H1817     1.0  0.94328  0.86287  0.22898  1.0000
  H   H1818     1.0  0.85317  0.90991  0.38007  1.0000
  C   C1133     1.0  0.98946  0.59875  0.34872  1.0000
  Fe  Fe226     1.0  0.94924  0.56856  0.41176  1.0000
  H   H1819     1.0  0.95080  0.94296  0.08936  1.0000
  H   H1820     1.0  0.94590  0.51249  0.15151  1.0000
  H   H1821     1.0  0.76765  0.79717  0.05870  1.0000
  N   N117      1.0  0.93138  0.48967  0.33334  1.0000
  C   C1134     1.0  0.94491  0.51034  0.09646  1.0000
  S   S450      1.0  0.91330  0.60745  0.18120  1.0000
  C   C1135     1.0  0.95101  0.56492  0.05099  1.0000
  H   H1822     1.0  0.89525  0.57632  0.04821  1.0000
  S   S451      1.0  0.87755  0.92310  0.48834  1.0000
  C   C1136     1.0  0.84326  0.89642  0.38396  1.0000
  C   C1137     1.0  0.97194  0.55669  0.04455  1.0000
  S   S452      1.0  0.85428  0.95851  0.37328  1.0000
  H   H1823     1.0  0.97544  0.68124  0.42600  1.0000
  C   C1138     1.0  0.85935  0.51479  0.00448  1.0000
  H   H1824     1.0  0.94038  0.52418  0.22566  1.0000
  S   S453      1.0  0.92563  0.59688  0.41788  1.0000
  C   C1139     1.0  0.92571  0.59724  0.31638  1.0000
  H   H1825     1.0  0.77592  0.88434  0.44547  1.0000
  S   S454      1.0  0.83777  0.93459  0.44451  1.0000
  H   H1826     1.0  0.76448  0.72120  0.03242  1.0000
  C   C1140     1.0  0.88138  0.51714  0.00596  1.0000
  C   C1141     1.0  0.83865  0.88991  0.33564  1.0000
  C   C1142     1.0  0.81840  0.89565  0.01070  1.0000
  H   H1827     1.0  0.95446  0.62492  0.36065  1.0000
  S   S455      1.0  0.93088  0.94847  0.47010  1.0000
  H   H1828     1.0  0.83530  0.89956  0.40400  1.0000
  H   H1829     1.0  0.82649  0.74470  0.16003  1.0000
  C   C1143     1.0  0.94473  0.56696  0.33931  1.0000
  H   H1830     1.0  0.93860  0.56513  0.03550  1.0000
  C   C1144     1.0  0.91041  0.91262  0.07164  1.0000
  H   H1831     1.0  0.84725  0.92633  0.03192  1.0000
  H   H1832     1.0  0.90365  0.90653  0.32398  1.0000
  H   H1833     1.0  0.85554  0.90777  0.07560  1.0000
  H   H1834     1.0  0.76848  0.90403  0.03742  1.0000
  H   H1835     1.0  0.93694  0.50753  0.07648  1.0000
  S   S456      1.0  0.94040  0.56224  0.19719  1.0000
  H   H1836     1.0  0.93018  0.59473  0.36005  1.0000
  S   S457      1.0  0.97929  0.54768  0.01127  1.0000
  H   H1837     1.0  0.88881  0.92465  0.36562  1.0000
  S   S458      1.0  0.97447  0.57978  0.44040  1.0000
  S   S459      1.0  0.92028  0.60164  0.26093  1.0000
  Fe  Fe227     1.0  0.90173  0.96879  0.19637  1.0000
  H   H1838     1.0  0.94241  0.94530  0.03900  1.0000
  C   C1145     1.0  0.93314  0.58696  0.34054  1.0000
  C   C1146     1.0  0.98539  0.84512  0.17561  1.0000
  S   S460      1.0  0.83905  0.97088  0.01839  1.0000
  C   C1147     1.0  0.85569  0.59543  0.04902  1.0000
  Fe  Fe228     1.0  0.91787  0.58657  0.21862  1.0000
  H   H1839     1.0  0.82719  0.88799  0.31848  1.0000
  H   H1840     1.0  0.77004  0.72325  0.30843  1.0000
  S   S461      1.0  0.93489  0.59337  0.48351  1.0000
  C   C1148     1.0  0.81439  0.87636  0.36820  1.0000
  S   S462      1.0  0.76538  0.74717  0.48830  1.0000
  H   H1841     1.0  0.85426  0.88166  0.38631  1.0000
  H   H1842     1.0  0.78278  0.93844  0.02350  1.0000
  Fe  Fe229     1.0  0.75003  0.81062  0.42502  1.0000
  H   H1843     1.0  0.91275  0.49003  0.44275  1.0000
  S   S463      1.0  0.90794  0.51102  0.18755  1.0000
  H   H1844     1.0  0.82739  0.89510  0.03042  1.0000
  H   H1845     1.0  0.92004  0.93266  0.02550  1.0000
  C   C1149     1.0  0.76636  0.74355  0.06578  1.0000
  S   S464      1.0  0.87244  0.95145  0.20405  1.0000
  H   H1846     1.0  0.89501  0.96852  0.00797  1.0000
  C   C1150     1.0  0.95072  0.90159  0.27613  1.0000
  H   H1847     1.0  0.93444  0.92837  0.11120  1.0000
  H   H1848     1.0  0.93038  0.58027  0.08208  1.0000
  C   C1151     1.0  0.94094  0.50701  0.22531  1.0000
  S   S465      1.0  0.93531  0.54962  0.44487  1.0000
  C   C1152     1.0  0.90777  0.97906  0.00881  1.0000
  H   H1849     1.0  0.86594  0.61563  0.09551  1.0000
  C   C1153     1.0  0.94084  0.92913  0.09004  1.0000
  H   H1850     1.0  0.95750  0.54177  0.31230  1.0000
  H   H1851     1.0  0.76401  0.78711  0.00960  1.0000
  C   C1154     1.0  0.79871  0.92928  0.02198  1.0000
  H   H1852     1.0  0.85340  0.53479  0.47214  1.0000
  H   H1853     1.0  0.84022  0.58820  0.09906  1.0000
  C   C1155     1.0  0.88264  0.92961  0.34582  1.0000
  N   N118      1.0  0.85843  0.63168  0.25399  1.0000
  C   C1156     1.0  0.86511  0.61311  0.27138  1.0000
  C   C1157     1.0  0.87724  0.63836  0.23928  1.0000
  C   C1158     1.0  0.84931  0.64956  0.27129  1.0000
  C   C1159     1.0  0.84213  0.62572  0.23400  1.0000
  H   H1854     1.0  0.87764  0.61696  0.28648  1.0000
  H   H1855     1.0  0.87214  0.59939  0.25888  1.0000
  H   H1856     1.0  0.85142  0.60761  0.28295  1.0000
  H   H1857     1.0  0.88426  0.62539  0.22564  1.0000
  H   H1858     1.0  0.87298  0.65265  0.22644  1.0000
  H   H1859     1.0  0.89016  0.64234  0.25373  1.0000
  H   H1860     1.0  0.84411  0.66383  0.25871  1.0000
  H   H1861     1.0  0.86124  0.65452  0.28655  1.0000
  H   H1862     1.0  0.83508  0.64511  0.28273  1.0000
  H   H1863     1.0  0.83617  0.63959  0.22119  1.0000
  H   H1864     1.0  0.82800  0.61992  0.24433  1.0000
  H   H1865     1.0  0.84870  0.61283  0.21983  1.0000
  H   H1866     1.0  0.82272  0.92808  0.35494  1.0000
  Fe  Fe230     1.0  0.75085  0.76800  0.45427  1.0000
  H   H1867     1.0  0.84967  0.87508  0.33666  1.0000
  H   H1868     1.0  0.96685  0.90347  0.22497  1.0000
  H   H1869     1.0  0.80667  0.93035  0.04232  1.0000
  H   H1870     1.0  0.97668  0.62960  0.05287  1.0000
  C   C1160     1.0  0.78487  0.89604  0.03468  1.0000
  Fe  Fe231     1.0  0.74953  0.74203  0.19887  1.0000
  N   N119      1.0  0.95762  0.88353  0.25777  1.0000
  Fe  Fe232     1.0  0.95043  0.60788  0.44735  1.0000
  C   C1161     1.0  0.78994  0.80333  0.48732  1.0000
  C   C1162     1.0  0.95289  0.49729  0.14208  1.0000
  S   S466      1.0  0.75480  0.70622  0.19649  1.0000
  S   S467      1.0  0.88074  0.56911  0.46412  1.0000
  C   C1163     1.0  0.88427  0.56961  0.06311  1.0000
  C   C1164     1.0  0.86678  0.53248  0.48622  1.0000
  C   C1165     1.0  0.98318  0.56494  0.09089  1.0000
  N   N120      1.0  0.83423  0.74567  0.11726  1.0000
  C   C1166     1.0  0.83396  0.76161  0.09513  1.0000
  C   C1167     1.0  0.85615  0.73551  0.12116  1.0000
  C   C1168     1.0  0.81975  0.72915  0.10986  1.0000
  C   C1169     1.0  0.82691  0.75636  0.14299  1.0000
  H   H1871     1.0  0.81752  0.76949  0.09185  1.0000
  H   H1872     1.0  0.83923  0.75411  0.07532  1.0000
  H   H1873     1.0  0.84463  0.77442  0.10003  1.0000
  H   H1874     1.0  0.97970  0.87683  0.22469  1.0000
  H   H1875     1.0  0.86220  0.72724  0.10217  1.0000
  H   H1876     1.0  0.86752  0.74748  0.12692  1.0000
  H   H1877     1.0  0.90238  0.95125  0.09481  1.0000
  H   H1878     1.0  0.81925  0.71701  0.12630  1.0000
  H   H1879     1.0  0.82480  0.72063  0.09064  1.0000
  H   H1880     1.0  0.93799  0.52598  0.10473  1.0000
  H   H1881     1.0  0.81050  0.76446  0.14064  1.0000
  H   H1882     1.0  0.83758  0.76876  0.14945  1.0000
  H   H1883     1.0  0.88935  0.61087  0.07440  1.0000
  Fe  Fe233     1.0  0.93282  0.58112  0.15883  1.0000
  H   H1884     1.0  0.97634  0.59695  0.33366  1.0000
  H   H1885     1.0  0.75985  0.72835  0.25957  1.0000
  S   S468      1.0  0.95920  0.64223  0.44346  1.0000
  H   H1886     1.0  0.94351  0.55956  0.26970  1.0000
  H   H1887     1.0  0.89737  0.91336  0.05603  1.0000
  H   H1888     1.0  0.84299  0.60786  0.05551  1.0000
  H   H1889     1.0  0.77918  0.79040  0.49057  1.0000
  H   H1890     1.0  0.96764  0.64254  0.38302  1.0000
  H   H1891     1.0  0.80832  0.93772  0.00704  1.0000
  C   C1170     1.0  0.96714  0.86538  0.27408  1.0000
  H   H1892     1.0  0.97680  0.63488  0.32192  1.0000
  C   C1171     1.0  0.93425  0.49842  0.30576  1.0000
  H   H1893     1.0  0.80489  0.91817  0.37937  1.0000
  C   C1172     1.0  0.81336  0.91428  0.35976  1.0000
  H   H1894     1.0  0.86138  0.56905  0.10947  1.0000
  C   C1173     1.0  0.76494  0.73783  0.03808  1.0000
  H   H1895     1.0  0.91714  0.61289  0.31764  1.0000
  C   C1174     1.0  0.97734  0.61944  0.03408  1.0000
  S   S469      1.0  0.84836  0.49013  0.00833  1.0000
  C   C1175     1.0  0.75314  0.75265  0.32216  1.0000
  S   S470      1.0  0.95587  0.55438  0.36922  1.0000
  C   C1176     1.0  0.96249  0.57351  0.09736  1.0000
  C   C1177     1.0  0.94045  0.56720  0.28939  1.0000
  S   S471      1.0  0.75969  0.74758  0.35677  1.0000
  N   N121      1.0  0.98887  0.62083  0.35955  1.0000
  H   H1896     1.0  0.94335  0.91546  0.26432  1.0000
  H   H1897     1.0  0.80598  0.79555  0.48192  1.0000
  H   H1898     1.0  0.95138  0.50066  0.30187  1.0000
  H   H1899     1.0  0.92030  0.89722  0.06869  1.0000
  C   C1178     1.0  0.91545  0.49268  0.46500  1.0000
  H   H1900     1.0  0.96612  0.50322  0.25564  1.0000
  C   C1179     1.0  0.98778  0.55624  0.06487  1.0000
  C   C1180     1.0  0.93888  0.87688  0.24245  1.0000
  C   C1181     1.0  0.98574  0.64967  0.44049  1.0000
  C   C1182     1.0  0.95540  0.49512  0.24253  1.0000
  Fe  Fe234     1.0  0.74882  0.76958  0.39175  1.0000
  H   H1901     1.0  0.91573  0.51019  0.46840  1.0000
  H   H1902     1.0  0.95510  0.50826  0.35150  1.0000
  H   H1903     1.0  0.91117  0.50633  0.12858  1.0000
  C   C1183     1.0  0.88908  0.53711  0.00017  1.0000
  C   C1184     1.0  0.93806  0.50497  0.35416  1.0000
  H   H1904     1.0  0.84828  0.98685  0.07277  1.0000
  H   H1905     1.0  0.85497  0.49497  0.21456  1.0000
  C   C1185     1.0  0.99033  0.63586  0.33665  1.0000
  H   H1906     1.0  0.95538  0.50566  0.46351  1.0000
  H   H1907     1.0  0.96691  0.61501  0.39175  1.0000
  C   C1186     1.0  0.96858  0.62605  0.37431  1.0000
  C   C1187     1.0  0.85280  0.55224  0.99237  1.0000
  H   H1908     1.0  0.98762  0.58704  0.36539  1.0000
  H   H1909     1.0  0.96438  0.90712  0.28809  1.0000
  H   H1910     1.0  0.82808  0.90366  0.99546  1.0000
  H   H1911     1.0  0.95906  0.98162  0.48232  1.0000
  H   H1912     1.0  0.78368  0.81256  0.46923  1.0000
  H   H1913     1.0  0.82820  0.53070  0.99647  1.0000
  H   H1914     1.0  0.98780  0.89598  0.24914  1.0000
  C   C1188     1.0  0.94182  0.98934  0.99291  1.0000
  H   H1915     1.0  0.86478  0.60469  0.53527  1.0000
  C   C1189     1.0  0.91229  0.90948  0.57232  1.0000
  C   C1190     1.0  0.77395  0.74896  0.79887  1.0000
  Fe  Fe235     1.0  0.78351  0.70457  0.67012  1.0000
  S   S472      1.0  0.77836  0.73944  0.68261  1.0000
  S   S473      1.0  0.81758  0.68906  0.67279  1.0000
  H   H1916     1.0  0.95558  0.98657  0.97971  1.0000
  H   H1917     1.0  0.82209  0.81454  0.82537  1.0000
  Fe  Fe236     1.0  0.75944  0.74310  0.64332  1.0000
  H   H1918     1.0  0.79100  0.74530  0.80162  1.0000
  C   C1191     1.0  0.74226  0.74867  0.77015  1.0000
  S   S474      1.0  0.76663  0.70921  0.62938  1.0000
  S   S475      1.0  0.94138  0.58980  0.62444  1.0000
  C   C1192     1.0  0.94366  0.92419  0.59106  1.0000
  H   H1919     1.0  0.79916  0.81401  0.55451  1.0000
  H   H1920     1.0  0.92353  0.92830  0.52620  1.0000
  C   C1193     1.0  0.80584  0.83373  0.50684  1.0000
  C   C1194     1.0  0.91396  0.94764  0.57454  1.0000
  H   H1921     1.0  0.88753  0.58791  0.52369  1.0000
  S   S476      1.0  0.75825  0.84828  0.92586  1.0000
  H   H1922     1.0  0.86335  0.96186  0.77517  1.0000
  S   S477      1.0  0.77449  0.78668  0.92360  1.0000
  H   H1923     1.0  0.89908  0.91118  0.55692  1.0000
  H   H1924     1.0  0.79570  0.85594  0.87194  1.0000
  S   S478      1.0  0.87125  0.97053  0.95065  1.0000
  H   H1925     1.0  0.78708  0.73049  0.53591  1.0000
  H   H1926     1.0  0.92494  0.53144  0.82423  1.0000
  H   H1927     1.0  0.79754  0.82042  0.89443  1.0000
  H   H1928     1.0  0.89040  0.65883  0.73995  1.0000
  H   H1929     1.0  0.93975  0.50233  0.50846  1.0000
  H   H1930     1.0  0.90072  0.95010  0.55929  1.0000
  C   C1195     1.0  0.88428  0.53331  0.92002  1.0000
  Fe  Fe237     1.0  0.89498  0.94259  0.95762  1.0000
  Fe  Fe238     1.0  0.85996  0.91090  0.95128  1.0000
  S   S479      1.0  0.85120  0.87654  0.95443  1.0000
  Fe  Fe239     1.0  0.85831  0.95069  0.91683  1.0000
  S   S480      1.0  0.85077  0.96536  0.87480  1.0000
  C   C1196     1.0  0.89987  0.54387  0.50461  1.0000
  S   S481      1.0  0.88354  0.92345  0.92197  1.0000
  C   C1197     1.0  0.85760  0.96304  0.81889  1.0000
  Fe  Fe240     1.0  0.93253  0.93852  0.68290  1.0000
  S   S482      1.0  0.90648  0.91709  0.68959  1.0000
  S   S483      1.0  0.96692  0.92676  0.67378  1.0000
  Fe  Fe241     1.0  0.89616  0.93905  0.72465  1.0000
  S   S484      1.0  0.89245  0.92328  0.76597  1.0000
  Fe  Fe242     1.0  0.88650  0.93992  0.66263  1.0000
  S   S485      1.0  0.86864  0.92567  0.62755  1.0000
  S   S486      1.0  0.92385  0.95910  0.71968  1.0000
  S   S487      1.0  0.91332  0.96007  0.65382  1.0000
  S   S488      1.0  0.89043  0.55774  0.72066  1.0000
  S   S489      1.0  0.89781  0.55576  0.65408  1.0000
  Fe  Fe243     1.0  0.88006  0.57773  0.68416  1.0000
  S   S490      1.0  0.84521  0.58942  0.67774  1.0000
  Fe  Fe244     1.0  0.91112  0.53803  0.69104  1.0000
  S   S491      1.0  0.83428  0.93758  0.94526  1.0000
  H   H1931     1.0  0.96578  0.85294  0.75375  1.0000
  S   S492      1.0  0.87511  0.92635  0.98746  1.0000
  C   C1198     1.0  0.95455  0.58789  0.57124  1.0000
  C   C1199     1.0  0.85083  0.95957  0.54660  1.0000
  C   C1200     1.0  0.85048  0.93746  0.54909  1.0000
  C   C1201     1.0  0.85566  0.92747  0.57415  1.0000
  C   C1202     1.0  0.86158  0.93939  0.59693  1.0000
  C   C1203     1.0  0.86195  0.96157  0.59458  1.0000
  H   H1932     1.0  0.84455  0.64696  0.72701  1.0000
  H   H1933     1.0  0.86635  0.97090  0.61211  1.0000
  C   C1204     1.0  0.86226  0.95350  0.84448  1.0000
  C   C1205     1.0  0.87615  0.93489  0.84539  1.0000
  C   C1206     1.0  0.88525  0.92596  0.82120  1.0000
  C   C1207     1.0  0.88094  0.93571  0.79576  1.0000
  C   C1208     1.0  0.86715  0.95441  0.79470  1.0000
  H   H1934     1.0  0.87974  0.92714  0.86467  1.0000
  H   H1935     1.0  0.89568  0.91138  0.82227  1.0000
  C   C1209     1.0  0.77211  0.82620  0.85068  1.0000
  H   H1936     1.0  0.90472  0.90937  0.59289  1.0000
  H   H1937     1.0  0.94651  0.93989  0.53977  1.0000
  C   C1210     1.0  0.97476  0.89905  0.67225  1.0000
  C   C1211     1.0  0.95959  0.88403  0.67039  1.0000
  C   C1212     1.0  0.96615  0.86207  0.67090  1.0000
  H   H1938     1.0  0.92868  0.50734  0.63494  1.0000
  S   S493      1.0  0.75453  0.69485  0.69241  1.0000
  H   H1939     1.0  0.94281  0.88929  0.66858  1.0000
  H   H1940     1.0  0.95430  0.85053  0.66983  1.0000
  S   S494      1.0  0.75575  0.77097  0.61404  1.0000
  H   H1941     1.0  0.86271  0.61039  0.72403  1.0000
  H   H1942     1.0  0.81445  0.89812  0.92569  1.0000
  H   H1943     1.0  0.98793  0.69714  0.49588  1.0000
  H   H1944     1.0  0.88424  0.53780  0.94206  1.0000
  H   H1945     1.0  0.79960  0.79864  0.82382  1.0000
  Fe  Fe245     1.0  0.75502  0.77537  0.88847  1.0000
  H   H1946     1.0  0.95016  0.50385  0.61085  1.0000
  H   H1947     1.0  0.93995  0.86682  0.79008  1.0000
  H   H1948     1.0  0.95352  0.90873  0.58839  1.0000
  C   C1213     1.0  0.78449  0.85545  0.93292  1.0000
  C   C1214     1.0  0.79983  0.84147  0.94590  1.0000
  C   C1215     1.0  0.82031  0.84802  0.95191  1.0000
  C   C1216     1.0  0.82567  0.86857  0.94501  1.0000
  C   C1217     1.0  0.81046  0.88239  0.93153  1.0000
  C   C1218     1.0  0.78994  0.87589  0.92567  1.0000
  H   H1949     1.0  0.79585  0.82572  0.95174  1.0000
  H   H1950     1.0  0.83198  0.83719  0.96227  1.0000
  S   S495      1.0  0.91224  0.50212  0.69026  1.0000
  H   H1951     1.0  0.77822  0.88680  0.91551  1.0000
  C   C1219     1.0  0.82453  0.66121  0.67249  1.0000
  C   C1220     1.0  0.80930  0.64646  0.67602  1.0000
  C   C1221     1.0  0.81578  0.62445  0.67716  1.0000
  C   C1222     1.0  0.83747  0.61705  0.67478  1.0000
  C   C1223     1.0  0.85261  0.63178  0.67068  1.0000
  C   C1224     1.0  0.84617  0.65376  0.66969  1.0000
  H   H1952     1.0  0.79259  0.65204  0.67822  1.0000
  H   H1953     1.0  0.80394  0.61315  0.68020  1.0000
  H   H1954     1.0  0.86926  0.62629  0.66818  1.0000
  H   H1955     1.0  0.85800  0.66509  0.66676  1.0000
  C   C1225     1.0  0.92941  0.57997  0.79522  1.0000
  C   C1226     1.0  0.97703  0.49150  0.86026  1.0000
  H   H1956     1.0  0.94597  0.91134  0.53845  1.0000
  C   C1227     1.0  0.75510  0.69515  0.53454  1.0000
  H   H1957     1.0  0.78342  0.88961  0.98046  1.0000
  C   C1228     1.0  0.76429  0.74415  0.77378  1.0000
  H   H1958     1.0  0.95462  0.93719  0.59014  1.0000
  H   H1959     1.0  0.76673  0.80980  0.84913  1.0000
  S   S496      1.0  0.88317  0.57989  0.98515  1.0000
  H   H1960     1.0  0.77384  0.73681  0.75732  1.0000
  H   H1961     1.0  0.92410  0.96128  0.57280  1.0000
  H   H1962     1.0  0.91230  0.55480  0.50481  1.0000
  S   S497      1.0  0.88636  0.49245  0.54845  1.0000
  H   H1963     1.0  0.92293  0.50848  0.59888  1.0000
  C   C1229     1.0  0.77544  0.74319  0.54244  1.0000
  C   C1230     1.0  0.77300  0.74779  0.57044  1.0000
  C   C1231     1.0  0.87472  0.58954  0.53947  1.0000
  H   H1964     1.0  0.81985  0.84804  0.85370  1.0000
  N   N122      1.0  0.92653  0.92696  0.57010  1.0000
  H   H1965     1.0  0.78279  0.73876  0.58536  1.0000
  H   H1966     1.0  0.79407  0.91410  0.97081  1.0000
  H   H1967     1.0  0.85651  0.98870  0.56767  1.0000
  H   H1968     1.0  0.86858  0.53957  0.91128  1.0000
  H   H1969     1.0  0.84635  0.97700  0.81759  1.0000
  H   H1970     1.0  0.87245  0.50967  0.87695  1.0000
  Fe  Fe246     1.0  0.74914  0.81396  0.92552  1.0000
  H   H1971     1.0  0.92717  0.85886  0.74324  1.0000
  H   H1972     1.0  0.97407  0.49545  0.75317  1.0000
  C   C1232     1.0  0.96755  0.86993  0.74865  1.0000
  H   H1973     1.0  0.85544  0.57920  0.58612  1.0000
  H   H1974     1.0  0.90046  0.51340  0.87578  1.0000
  N   N123      1.0  0.88384  0.58932  0.56748  1.0000
  C   C1233     1.0  0.86641  0.59219  0.58776  1.0000
  C   C1234     1.0  0.76166  0.75823  0.82044  1.0000
  H   H1975     1.0  0.86449  0.57610  0.53607  1.0000
  H   H1976     1.0  0.91149  0.60504  0.55570  1.0000
  H   H1977     1.0  0.82197  0.81319  0.87647  1.0000
  Fe  Fe247     1.0  0.91536  0.58023  0.96524  1.0000
  C   C1235     1.0  0.94865  0.57600  0.59371  1.0000
  H   H1978     1.0  0.76942  0.83837  0.53555  1.0000
  H   H1979     1.0  0.97230  0.87033  0.72676  1.0000
  H   H1980     1.0  0.93335  0.87551  0.71525  1.0000
  N   N124      1.0  0.79091  0.81719  0.51179  1.0000
  S   S498      1.0  0.96336  0.63916  0.94460  1.0000
  C   C1236     1.0  0.74620  0.77650  0.55951  1.0000
  N   N125      1.0  0.87053  0.63454  0.75287  1.0000
  C   C1237     1.0  0.86721  0.61213  0.74592  1.0000
  C   C1238     1.0  0.88737  0.64201  0.73518  1.0000
  C   C1239     1.0  0.87730  0.63588  0.78184  1.0000
  C   C1240     1.0  0.85032  0.64805  0.74854  1.0000
  H   H1981     1.0  0.85424  0.60606  0.75831  1.0000
  H   H1982     1.0  0.88200  0.60141  0.74951  1.0000
  H   H1983     1.0  0.90279  0.63200  0.73778  1.0000
  H   H1984     1.0  0.88278  0.64130  0.71318  1.0000
  H   H1985     1.0  0.86510  0.63013  0.79579  1.0000
  H   H1986     1.0  0.87990  0.65257  0.78787  1.0000
  H   H1987     1.0  0.89260  0.62588  0.78560  1.0000
  H   H1988     1.0  0.85230  0.66520  0.75285  1.0000
  H   H1989     1.0  0.83733  0.64311  0.76187  1.0000
  N   N126      1.0  0.94757  0.88360  0.75370  1.0000
  H   H1990     1.0  0.90942  0.50615  0.95078  1.0000
  C   C1241     1.0  0.92991  0.87551  0.73754  1.0000
  C   C1242     1.0  0.76932  0.82761  0.51735  1.0000
  C   C1243     1.0  0.90899  0.50243  0.92844  1.0000
  H   H1991     1.0  0.95965  0.51133  0.81642  1.0000
  H   H1992     1.0  0.98174  0.67927  0.94791  1.0000
  C   C1244     1.0  0.89802  0.60684  0.57052  1.0000
  Fe  Fe248     1.0  0.85095  0.95378  0.97973  1.0000
  C   C1245     1.0  0.74824  0.77150  0.53146  1.0000
  H   H1993     1.0  0.90660  0.94847  0.59519  1.0000
  C   C1246     1.0  0.99001  0.64579  0.93996  1.0000
  S   S499      1.0  0.93822  0.54519  0.87789  1.0000
  H   H1994     1.0  0.81472  0.79609  0.53201  1.0000
  C   C1247     1.0  0.88822  0.50482  0.88662  1.0000
  H   H1995     1.0  0.87060  0.50248  0.95211  1.0000
  C   C1248     1.0  0.96332  0.49379  0.81399  1.0000
  C   C1249     1.0  0.95933  0.55579  0.54305  1.0000
  H   H1996     1.0  0.80016  0.79653  0.87390  1.0000
  C   C1250     1.0  0.93433  0.55902  0.84639  1.0000
  H   H1997     1.0  0.76901  0.91476  0.98849  1.0000
  H   H1998     1.0  0.96404  0.91224  0.75671  1.0000
  Fe  Fe249     1.0  0.75286  0.76964  0.95062  1.0000
  H   H1999     1.0  0.90339  0.56797  0.59320  1.0000
  H   H2000     1.0  0.88918  0.62270  0.56703  1.0000
  H   H2001     1.0  0.76509  0.83542  0.83297  1.0000
  H   H2002     1.0  0.90523  0.60712  0.59141  1.0000
  H   H2003     1.0  0.91461  0.88556  0.74074  1.0000
  H   H2004     1.0  0.79603  0.85754  0.83527  1.0000
  H   H2005     1.0  0.93695  0.92435  0.61215  1.0000
  H   H2006     1.0  0.85570  0.50410  0.50436  1.0000
  S   S500      1.0  0.92738  0.95332  0.96890  1.0000
  S   S501      1.0  0.96577  0.54320  0.51119  1.0000
  H   H2007     1.0  0.95514  0.60499  0.57331  1.0000
  H   H2008     1.0  0.78766  0.79140  0.53979  1.0000
  Fe  Fe250     1.0  0.96060  0.56341  0.97628  1.0000
  H   H2009     1.0  0.94253  0.58936  0.86217  1.0000
  N   N127      1.0  0.79571  0.82570  0.85108  1.0000
  C   C1251     1.0  0.80431  0.81533  0.82573  1.0000
  C   C1252     1.0  0.80212  0.84777  0.85302  1.0000
  C   C1253     1.0  0.80424  0.81342  0.87501  1.0000
  H   H2010     1.0  0.84161  0.56563  0.98694  1.0000
  H   H2011     1.0  0.79817  0.82412  0.80720  1.0000
  C   C1254     1.0  0.95973  0.57789  0.54606  1.0000
  H   H2012     1.0  0.95359  0.52660  0.56357  1.0000
  H   H2013     1.0  0.94670  0.51607  0.72482  1.0000
  H   H2014     1.0  0.95393  0.90670  0.72328  1.0000
  H   H2015     1.0  0.84563  0.92807  0.53187  1.0000
  H   H2016     1.0  0.85509  0.91037  0.57589  1.0000
  C   C1255     1.0  0.90074  0.52703  0.52339  1.0000
  C   C1256     1.0  0.92570  0.55840  0.79738  1.0000
  Fe  Fe251     1.0  0.92508  0.57599  0.66072  1.0000
  S   S502      1.0  0.90644  0.59924  0.68873  1.0000
  S   S503      1.0  0.92300  0.59512  0.92512  1.0000
  C   C1257     1.0  0.85639  0.97163  0.56950  1.0000
  C   C1258     1.0  0.91054  0.97417  0.50941  1.0000
  H   H2017     1.0  0.85664  0.60766  0.58495  1.0000
  C   C1259     1.0  0.87093  0.49921  0.92972  1.0000
  H   H2018     1.0  0.89693  0.54193  0.91005  1.0000
  S   S504      1.0  0.97312  0.57526  0.93640  1.0000
  H   H2019     1.0  0.86361  0.49399  0.71821  1.0000
  S   S505      1.0  0.87329  0.95973  0.69825  1.0000
  Fe  Fe252     1.0  0.91826  0.57783  0.72342  1.0000
  S   S506      1.0  0.84442  0.97221  0.51500  1.0000
  Fe  Fe253     1.0  0.95265  0.60543  0.94631  1.0000
  Fe  Fe254     1.0  0.90182  0.97842  0.69124  1.0000
  C   C1260     1.0  0.75840  0.76447  0.57907  1.0000
  C   C1261     1.0  0.92806  0.54802  0.82286  1.0000
  C   C1262     1.0  0.94224  0.88329  0.78311  1.0000
  H   H2020     1.0  0.90982  0.56615  0.55748  1.0000
  C   C1263     1.0  0.93608  0.92658  0.54248  1.0000
  S   S507      1.0  0.93322  0.54887  0.95608  1.0000
  H   H2021     1.0  0.98226  0.67675  0.86254  1.0000
  H   H2022     1.0  0.92107  0.54971  0.77939  1.0000
  H   H2023     1.0  0.95507  0.88954  0.79595  1.0000
  C   C1264     1.0  0.93340  0.50017  0.61471  1.0000
  H   H2024     1.0  0.93814  0.60774  0.81742  1.0000
  H   H2025     1.0  0.94394  0.54459  0.60823  1.0000
  S   S508      1.0  0.77436  0.76376  0.85165  1.0000
  H   H2026     1.0  0.91375  0.52531  0.53809  1.0000
  C   C1265     1.0  0.93526  0.59105  0.81884  1.0000
  S   S509      1.0  0.92673  0.59378  0.76364  1.0000
  C   C1266     1.0  0.86812  0.51504  0.50434  1.0000
  H   H2027     1.0  0.88627  0.55502  0.56985  1.0000
  C   C1267     1.0  0.94724  0.49885  0.72517  1.0000
  C   C1268     1.0  0.88500  0.51248  0.52324  1.0000
  H   H2028     1.0  0.75769  0.81560  0.52134  1.0000
  S   S510      1.0  0.93988  0.55679  0.69582  1.0000
  H   H2029     1.0  0.92118  0.89359  0.56907  1.0000
  C   C1269     1.0  0.94830  0.55383  0.59091  1.0000
  C   C1270     1.0  0.93773  0.58066  0.84427  1.0000
  H   H2030     1.0  0.85484  0.50474  0.92147  1.0000
  H   H2031     1.0  0.76506  0.83373  0.86964  1.0000
  H   H2032     1.0  0.93592  0.91659  0.74954  1.0000
  Fe  Fe255     1.0  0.94291  0.56430  0.91714  1.0000
  C   C1271     1.0  0.95378  0.54372  0.56567  1.0000
  H   H2033     1.0  0.93515  0.50248  0.85483  1.0000
  H   H2034     1.0  0.87281  0.59205  0.60912  1.0000
  C   C1272     1.0  0.95052  0.90574  0.74549  1.0000
  C   C1273     1.0  0.89635  0.56868  0.57221  1.0000
  C   C1274     1.0  0.79846  0.80413  0.53556  1.0000
  H   H2035     1.0  0.98114  0.87529  0.76091  1.0000
  H   H2036     1.0  0.96463  0.58729  0.52915  1.0000
  S   S511      1.0  0.94223  0.59414  0.98724  1.0000
  H   H2037     1.0  0.82209  0.82652  0.50131  1.0000
  H   H2038     1.0  0.89777  0.96367  0.50801  1.0000
  C   C1275     1.0  0.76291  0.75481  0.52292  1.0000
  N   N128      1.0  0.88809  0.50992  0.91621  1.0000
  C   C1276     1.0  0.98793  0.85491  0.67296  1.0000
  H   H2039     1.0  0.92231  0.51022  0.91871  1.0000
  Fe  Fe256     1.0  0.74828  0.72986  0.70230  1.0000
  H   H2040     1.0  0.98651  0.61006  0.98168  1.0000
  S   S512      1.0  0.76202  0.74542  0.98334  1.0000
  H   H2041     1.0  0.80752  0.84406  0.52521  1.0000
  H   H2042     1.0  0.92713  0.89340  0.78745  1.0000
  H   H2043     1.0  0.97953  0.49107  0.80477  1.0000
  H   H2044     1.0  0.76310  0.83738  0.49957  1.0000
  C   C1277     1.0  0.94500  0.98437  0.49501  1.0000
  C   C1278     1.0  0.78530  0.90633  0.98721  1.0000
  H   H2045     1.0  0.97266  0.50886  0.86397  1.0000
  H   H2046     1.0  0.76286  0.70144  0.55316  1.0000
  H   H2047     1.0  0.76040  0.70421  0.51664  1.0000
  C   C1279     1.0  0.92544  0.97544  0.99156  1.0000
  H   H2048     1.0  0.76144  0.67818  0.53190  1.0000
  C   C1280     1.0  0.92859  0.97055  0.49285  1.0000
