data_image0
_chemical_formula_structural       FeS2FeS2FeSFeS3FeS2FeS2FeSFeS3FeS2FeS2FeSFeS3FeS2FeS2FeSFeS3FeS2FeS2FeSFeS3FeS2FeS2FeSFeS3FeS2FeS2FeSFeS3FeS2FeS2FeSFeS3FeS2FeS2FeSFeS3FeS2FeS2FeSFeS3FeS2FeS2FeSFeS3FeS2FeS2FeSFeS3FeS2FeS2FeSFeS3FeS2FeS2FeSFeS3FeS2FeS2FeSFeS3FeS2FeS2FeSFeS3C6H4C6H4C6H4C6H4C6H4C6H4C6H4C6H4C6H4C6H4C6H4C6H4C6H4C6H4C6H4C6H4C6H4C6H4C6H4C6H4C6H4C6H4C6H4C6H4C6H4C6H4C6H4C6H4C6H4C6H4C6H4C6H4FeS2FeS2FeSFeS3FeS2FeS2FeSFeS3FeS2FeS2FeSFeS3FeS2FeS2FeSFeS3FeS2FeS2FeSFeS3FeS2FeS2FeSFeS3FeS2FeS2FeSFeS3FeS2FeS2FeSFeS3FeS2FeS2FeSFeS3FeS2FeS2FeSFeS3FeS2FeS2FeSFeS3FeS2FeS2FeSFeS3FeS2FeS2FeSFeS3FeS2FeS2FeSFeS3FeS2FeS2FeSFeS3FeS2FeS2FeSFeS3C6H4C6H4C6H4C6H4C6H4C6H4C6H4C6H4C6H4C6H4C6H4C6H4C6H4C6H4C6H4C6H4C6H4C6H4C6H4C6H4C6H4C6H4C6H4C6H4C6H4C6H4C6H4C6H4C6H4C6H4C6H4C6H4NC4H12NC4H12NC4H12NC4H12NC4H12NC4H12NC4H12NC4H12NC4H12NC4H12NC4H12NC4H12NC4H12NC4H12NC4H12NC4H12NC4H12NC4H12NC4H12NC4H12NC4H12NC4H12NC4H12NC4H12NC4H12NC4H12NC4H12NC4H12NC4H12NC4H12NC4H12NC4H12NC4H12NC4H12NC4H12NC4H12NC4H12NC4H12NC4H12NC4H12NC4H12NC4H12NC4H12NC4H12NC4H12NC4H12NC4H12NC4H12NC4H12NC4H12NC4H12NC4H12NC4H12NC4H12NC4H12NC4H12NC4H12NC4H12NC4H12NC4H12NC4H12NC4H12NC4H12NC4H12
_chemical_formula_sum              "Fe128 S256 C640 H1024 N64"
_cell_length_a       38.981672352688165
_cell_length_b       38.8881923399924
_cell_length_c       46.7242013581911
_cell_angle_alpha    90.2758963699584
_cell_angle_beta     90.00811022421045
_cell_angle_gamma    86.54559175763603

_space_group_name_H-M_alt    "P 1"
_space_group_IT_number       1

loop_
  _space_group_symop_operation_xyz
  'x, y, z'

loop_
  _atom_site_type_symbol
  _atom_site_label
  _atom_site_symmetry_multiplicity
  _atom_site_fract_x
  _atom_site_fract_y
  _atom_site_fract_z
  _atom_site_occupancy
  Fe  Fe1       1.0  0.6206720261677496  0.03586937654081135  0.28004650684746196  1.0000
  S   S1        1.0  0.647169832179036  0.08337402104289904  0.2917893069798571  1.0000
  S   S2        1.0  0.6171552223606016  0.9913776779993173  0.3102345633048623  1.0000
  Fe  Fe2       1.0  0.597805170381201  0.06521476340624877  0.2226401763451194  1.0000
  S   S3        1.0  0.623280758683942  0.11486492876924226  0.2296743773310687  1.0000
  S   S4        1.0  0.5636142452982693  0.05750517939768329  0.18478402600373683  1.0000
  Fe  Fe3       1.0  0.6669356108686743  0.0805342698632503  0.2468294896009951  1.0000
  S   S5        1.0  0.7238748340495199  0.08584579333072595  0.2425743022707717  1.0000
  Fe  Fe4       1.0  0.6008883042572516  0.11235275669954703  0.2738558549437845  1.0000
  S   S6        1.0  0.5786813057565663  0.15906100795235667  0.2977330276495579  1.0000
  S   S7        1.0  0.6433188754587533  0.03083675607605052  0.23604102450711556  1.0000
  S   S8        1.0  0.5725355219900067  0.06502410002638581  0.26566158898905007  1.0000
  Fe  Fe5       1.0  0.6099757052337804  0.020567036062127952  0.031704546136897264  1.0000
  S   S9        1.0  0.5571311414589402  0.0011387033453129636  0.035890391965073175  1.0000
  S   S10       1.0  0.6435421068377379  0.03511514255999182  0.06838192446535522  1.0000
  Fe  Fe6       1.0  0.6292542963746405  0.018774476967326148  0.46189579767742056  1.0000
  S   S11       1.0  0.5789256367893497  0.9986503606502949  0.4487459853609375  1.0000
  S   S12       1.0  0.6723328191417209  0.028279839280798136  0.4319307174401541  1.0000
  Fe  Fe7       1.0  0.5455527106472088  0.0328194210116004  0.9964334705679476  1.0000
  S   S13       1.0  0.4949157018195169  0.06181442220416611  0.9875825420070561  1.0000
  Fe  Fe8       1.0  0.5766541098846387  0.959972482256329  0.005246400940506214  1.0000
  S   S14       1.0  0.5716967487173771  0.9027096890074502  0.007805702396690258  1.0000
  S   S15       1.0  0.5970015315210643  0.05566132196635465  0.9948145975954671  1.0000
  S   S16       1.0  0.6304365585809313  0.9770512440538585  0.0038357504082862093  1.0000
  Fe  Fe9       1.0  0.39277325298078875  0.21684705881326927  0.31273472350286025  1.0000
  S   S17       1.0  0.4189313646995757  0.266062017510676  0.3076933676346775  1.0000
  S   S18       1.0  0.4207208906364058  0.16871756943106483  0.32932188294223885  1.0000
  Fe  Fe10      1.0  0.32422665772509035  0.24870005702484774  0.29179701554141757  1.0000
  S   S19       1.0  0.3448278695521456  0.30068687158326257  0.2853417124224582  1.0000
  S   S20       1.0  0.267703768059629  0.2444271679052903  0.2842824137374242  1.0000
  Fe  Fe11      1.0  0.39013232226106437  0.2708394718557576  0.2663540319113501  1.0000
  S   S21       1.0  0.41673556410498064  0.29164680930078357  0.22827532433664044  1.0000
  Fe  Fe12      1.0  0.37122975709822664  0.29088363630522845  0.3272420052830924  1.0000
  S   S22       1.0  0.37737358940446764  0.33175386099806187  0.3605074072383399  1.0000
  S   S23       1.0  0.3677868150307298  0.21915933049535127  0.2694426385346115  1.0000
  S   S24       1.0  0.346928376790777  0.24116863973304678  0.33561989267623127  1.0000
  Fe  Fe13      1.0  0.4416766328298458  0.25090092426547594  0.020029773281478137  1.0000
  S   S25       1.0  0.39226815252045144  0.22677210738555867  0.02938608464378947  1.0000
  S   S26       1.0  0.4861876156776614  0.22451800808833391  0.9962146516757295  1.0000
  Fe  Fe14      1.0  0.4158451600344273  0.3203656344771181  0.04375023835418706  1.0000
  S   S27       1.0  0.3640961421256636  0.3023506658429382  0.054807839336788074  1.0000
  S   S28       1.0  0.42483958612555356  0.3763006483847128  0.05024232384120667  1.0000
  Fe  Fe15      1.0  0.3934925470578819  0.25528229193313723  0.07112077101765608  1.0000
  S   S29       1.0  0.3717745905880913  0.23020903130736425  0.10975849458896676  1.0000
  Fe  Fe16      1.0  0.3819803806553817  0.2657641787129138  0.5123473833270745  1.0000
  S   S30       1.0  0.3432423065232078  0.26108296141372805  0.47719314773705945  1.0000
  S   S31       1.0  0.44565783431743156  0.27533989630505784  0.0636244334611955  1.0000
  S   S32       1.0  0.43304212996552627  0.2883359702599103  0.5072324586002454  1.0000
  Fe  Fe17      1.0  0.8902470432112682  0.08695646259484713  0.3395910275858913  1.0000
  S   S33       1.0  0.9424327852210276  0.06266737822042767  0.3499059298209049  1.0000
  S   S34       1.0  0.878244485067697  0.12423548244461169  0.3039150344925868  1.0000
  Fe  Fe18      1.0  0.8563798440190308  0.05550676010468503  0.39049323270808034  1.0000
  S   S35       1.0  0.905282223299067  0.02880184475700731  0.4056882658444263  1.0000
  S   S36       1.0  0.8066704119514219  0.047621083493091465  0.4127777254815693  1.0000
  Fe  Fe19      1.0  0.9290861172132495  0.07809486750660288  0.395136373734073  1.0000
  S   S37       1.0  0.9700802669111654  0.09744572622915038  0.4236999745540007  1.0000
  Fe  Fe20      1.0  0.913947427881354  0.01556971451469824  0.35953130362240676  1.0000
  S   S38       1.0  0.9297103260780235  0.9603863699695329  0.34996926734025513  1.0000
  S   S39       1.0  0.8790337492575224  0.10636746416136145  0.3840537310497473  1.0000
  S   S40       1.0  0.8628662380066043  0.03834127237347085  0.34491165022680387  1.0000
  Fe  Fe21      1.0  0.8293350940599047  0.11810176850764575  0.11444001772944949  1.0000
  S   S41       1.0  0.8536305532320034  0.06484918951415941  0.11925401768369207  1.0000
  S   S42       1.0  0.7720534461403303  0.12430128803810847  0.11845123305153701  1.0000
  Fe  Fe22      1.0  0.8968368584942596  0.14880731670598957  0.09956353785468562  1.0000
  S   S43       1.0  0.9267275386539707  0.0980737861993759  0.103378245272544  1.0000
  S   S44       1.0  0.9203625906911733  0.1977956779345335  0.086588273657482  1.0000
  Fe  Fe23      1.0  0.882597593115999  0.07693257233840045  0.07961287177552084  1.0000
  S   S45       1.0  0.8922645329119443  0.03827367733036002  0.04422672582866648  1.0000
  Fe  Fe24      1.0  0.8948462573494023  0.09113174697861948  0.14270069672218827  1.0000
  S   S46       1.0  0.9192079611231714  0.06572322634674288  0.1814913534877832  1.0000
  S   S47       1.0  0.8550056027856939  0.12840806807700855  0.0727645119196877  1.0000
  S   S48       1.0  0.8683040369227515  0.1439485668045335  0.14100544936598977  1.0000
  Fe  Fe25      1.0  0.12174927875088226  0.3173778244242784  0.11325366873274513  1.0000
  S   S49       1.0  0.14674735551644813  0.26507005407340034  0.10462520846611155  1.0000
  S   S50       1.0  0.11572671470120027  0.3585325217716985  0.07991254498047971  1.0000
  Fe  Fe26      1.0  0.10415487212467131  0.3000077402398537  0.17432748815507576  1.0000
  S   S51       1.0  0.12775808797715169  0.24584989826353204  0.17086001883272  1.0000
  S   S52       1.0  0.08019224559177777  0.32676620312856447  0.2129337592564345  1.0000
  Fe  Fe27      1.0  0.1703065297533131  0.2705934340825419  0.1479483330955375  1.0000
  S   S53       1.0  0.22673856225263608  0.2571284488134186  0.15367860332678046  1.0000
  Fe  Fe28      1.0  0.10183615712086895  0.24538452152760634  0.12787533722104394  1.0000
  S   S54       1.0  0.07995750084791949  0.19795096081984237  0.1088648363559023  1.0000
  S   S55       1.0  0.14898709168710755  0.3247403026232832  0.15471125707074854  1.0000
  S   S56       1.0  0.07466905560411465  0.2975113293410856  0.13317694171776528  1.0000
  Fe  Fe29      1.0  0.014944659507922786  0.27693469122472647  0.4125737596041386  1.0000
  S   S57       1.0  0.06048183353783138  0.2404403303343275  0.40454704172712685  1.0000
  S   S58       1.0  0.9652136526275952  0.25895357696609406  0.4296147586453227  1.0000
  Fe  Fe30      1.0  0.05341427960595735  0.3390951049056179  0.39502485638688845  1.0000
  S   S59       1.0  0.10211606280908382  0.3073616247619158  0.38551961577887084  1.0000
  S   S60       1.0  0.056348874706168894  0.39665151164814577  0.39577634792312383  1.0000
  Fe  Fe31      1.0  0.0670837657219893  0.27094194708331  0.36486104784976414  1.0000
  S   S61       1.0  0.08050631009563855  0.2387817012199523  0.3260902780554179  1.0000
  Fe  Fe32      1.0  0.09082056768023945  0.28002120476733616  0.42611051563882296  1.0000
  S   S62       1.0  0.13133255495804264  0.2626028104520776  0.4578856988077979  1.0000
  S   S63       1.0  0.018895117027398104  0.30487847928511436  0.3707788593221791  1.0000
  S   S64       1.0  0.044598067401043995  0.3142371639114689  0.43744934701690735  1.0000
  Fe  Fe33      1.0  0.3717245828614388  0.5384057020943915  0.4721306950634795  1.0000
  S   S65       1.0  0.34010420088867843  0.5878500095913455  0.46587593859724724  1.0000
  S   S66       1.0  0.392792402754317  0.5156738678038023  0.5130365829584405  1.0000
  Fe  Fe34      1.0  0.37065993800425256  0.5197069095437057  0.40943912944756294  1.0000
  S   S67       1.0  0.3388819588731947  0.5672086469430883  0.3970811341706259  1.0000
  S   S68       1.0  0.38680784512953004  0.4784966136297388  0.37791456033472043  1.0000
  Fe  Fe35      1.0  0.3734009384664359  0.5940014985302031  0.42724535309084966  1.0000
  S   S69       1.0  0.3926389955947078  0.646177872689692  0.4183262229651251  1.0000
  Fe  Fe36      1.0  0.3083557860178872  0.5568975338970664  0.43645776462692726  1.0000
  S   S70       1.0  0.25094361827674194  0.5553400760238072  0.4343362885478364  1.0000
  S   S71       1.0  0.40811266151974873  0.547168572417772  0.43619458744467005  1.0000
  S   S72       1.0  0.33712277998641915  0.5068077753849709  0.44604185072188085  1.0000
  Fe  Fe37      1.0  0.3842455616634841  0.5449022288473696  0.20324969528757672  1.0000
  S   S73       1.0  0.3277084647075439  0.5583396327886427  0.20754942009902327  1.0000
  S   S74       1.0  0.42495575697025234  0.5828712785269213  0.20872208761004835  1.0000
  Fe  Fe38      1.0  0.37441450824568784  0.4704600171540596  0.18719568003088577  1.0000
  S   S75       1.0  0.31704893715703664  0.47727059622188067  0.1897479013405742  1.0000
  S   S76       1.0  0.3985097504981906  0.41724730151233963  0.17994892890380976  1.0000
  Fe  Fe39      1.0  0.323657040849753  0.527156083875498  0.16733542258826764  1.0000
  S   S77       1.0  0.29017325026302543  0.546501379231834  0.1311650162862806  1.0000
  Fe  Fe40      1.0  0.3262918490177949  0.5073932097815387  0.22974680033130057  1.0000
  S   S78       1.0  0.2938174323414789  0.4969889778887968  0.26819915317370374  1.0000
  S   S79       1.0  0.3804868488941266  0.5178757523728138  0.16111616673507026  1.0000
  S   S80       1.0  0.38343579354759816  0.49644012659375825  0.2291035091951718  1.0000
  Fe  Fe41      1.0  0.628881451294828  0.7178836690880724  0.3625175537897596  1.0000
  S   S81       1.0  0.610404317103624  0.7734032053916147  0.3633695891674124  1.0000
  S   S82       1.0  0.6861108311685805  0.7094215555381416  0.3639171636499257  1.0000
  Fe  Fe42      1.0  0.5572065034240862  0.6932940203073767  0.3531422511496544  1.0000
  S   S83       1.0  0.5329300349641699  0.7470256821552154  0.35274120918007257  1.0000
  S   S84       1.0  0.5284631412147558  0.6457126665764157  0.34553224485525164  1.0000
  Fe  Fe43      1.0  0.5781666264389572  0.7595231786449784  0.32609405194384916  1.0000
  S   S85       1.0  0.5726909050581217  0.7952320033838558  0.2886822464565663  1.0000
  Fe  Fe44      1.0  0.5675777095875008  0.7554299273149114  0.3900503920266751  1.0000
  S   S86       1.0  0.5478245330371344  0.7859220913374859  0.4279998230445412  1.0000
  S   S87       1.0  0.5996809604319849  0.7049122372843605  0.32317008376027906  1.0000
  S   S88       1.0  0.5886894862302343  0.7005537632338065  0.39273784683398877  1.0000
  Fe  Fe45      1.0  0.47175470497685146  0.7184271783379053  0.11014179113259628  1.0000
  S   S89       1.0  0.5226267575796715  0.6888111158691761  0.10785960832164115  1.0000
  S   S90       1.0  0.42451825931480486  0.688382356912973  0.10637940922866809  1.0000
  Fe  Fe46      1.0  0.5044707520567328  0.7871813498547903  0.11571639120285858  1.0000
  S   S91       1.0  0.5580591134062559  0.7628394941170833  0.11471856339453876  1.0000
  S   S92       1.0  0.4986603305247542  0.8450926461026024  0.11680443715241637  1.0000
  Fe  Fe47      1.0  0.5380070753788762  0.7310069168808544  0.07921274097414585  1.0000
  S   S93       1.0  0.5701524252851475  0.7176113408688777  0.040661392657064185  1.0000
  Fe  Fe48      1.0  0.5371903050969024  0.7234783307692694  0.14362256275797164  1.0000
  S   S94       1.0  0.5678557222071922  0.7001321787389507  0.1798601211137568  1.0000
  S   S95       1.0  0.4855980746931571  0.7577744937089541  0.07799394713087976  1.0000
  S   S96       1.0  0.4849754481157933  0.7505040744677904  0.1482349397971171  1.0000
  Fe  Fe49      1.0  0.03143884271016262  0.5396041939166123  0.29286794015543255  1.0000
  S   S97       1.0  0.08783503197968057  0.5478756004728413  0.29259555175290974  1.0000
  S   S98       1.0  0.014604103326252504  0.48564303629705435  0.28682752421465  1.0000
  Fe  Fe50      1.0  0.011062642711052284  0.6157259514901695  0.3013853468665265  1.0000
  S   S99       1.0  0.06569481907011632  0.6304380478454651  0.30213204826572454  1.0000
  S   S100      1.0  0.9667519157037475  0.6549846198312935  0.3077231656069664  1.0000
  Fe  Fe51      1.0  0.0729617354587957  0.5935109659435219  0.2654073659604929  1.0000
  S   S101      1.0  0.10511092793647059  0.6067099490169258  0.22779193474316514  1.0000
  Fe  Fe52      1.0  0.07559456520340468  0.5835973996716433  0.3293441311649789  1.0000
  S   S102      1.0  0.11173300286315868  0.5863984776008416  0.3666398152329569  1.0000
  S   S103      1.0  0.017243049300163626  0.5824653605001961  0.26215798003384405  1.0000
  S   S104      1.0  0.01998236808761744  0.571892639002374  0.3320942683821832  1.0000
  Fe  Fe53      1.0  0.11596228194128329  0.605111105786799  0.5411650710327304  1.0000
  S   S105      1.0  0.10989663123917492  0.5480958774598597  0.5397625185443976  1.0000
  S   S106      1.0  0.16747484277830085  0.6271842884938882  0.5362534880656503  1.0000
  Fe  Fe54      1.0  0.04130375357864935  0.6219472604162236  0.5565479080142597  1.0000
  S   S107      1.0  0.028634886328193332  0.5665639126988214  0.5565499973532945  1.0000
  S   S108      1.0  0.002692683411365193  0.6646928808542831  0.5683842786259818  1.0000
  Fe  Fe55      1.0  0.05688550699502515  0.5727026897892864  0.08090789161598132  1.0000
  S   S109      1.0  0.0525416900570328  0.535337923055671  0.11700719398624806  1.0000
  Fe  Fe56      1.0  0.060727749082749805  0.5627840244413773  0.5167025386640789  1.0000
  S   S110      1.0  0.04292886911015592  0.5333286149622765  0.47855839722277416  1.0000
  S   S111      1.0  0.07094834925810978  0.6273371609922761  0.08718347960308839  1.0000
  S   S112      1.0  0.06932813834719886  0.6193017128732611  0.5146201918383299  1.0000
  Fe  Fe57      1.0  0.8685286379240328  0.8607375488937717  0.22169406230719002  1.0000
  S   S113      1.0  0.812897460895877  0.8489760865319447  0.22145240715107392  1.0000
  S   S114      1.0  0.8814323463524666  0.9161236283560882  0.22680161108045827  1.0000
  Fe  Fe58      1.0  0.8930003175734208  0.7867683215048569  0.2072497328199252  1.0000
  S   S115      1.0  0.8395270706385907  0.7690374923961782  0.2055722907035822  1.0000
  S   S116      1.0  0.9387120999738325  0.7497022998347427  0.1993371431355436  1.0000
  Fe  Fe59      1.0  0.8264940593153555  0.8182039751689335  0.18202244847290708  1.0000
  S   S117      1.0  0.7904644369630626  0.8167921651251365  0.14455609833328262  1.0000
  Fe  Fe60      1.0  0.8310829951911255  0.8013332305072007  0.24494429899929607  1.0000
  S   S118      1.0  0.8025746357997239  0.7803706669172273  0.2818659894870112  1.0000
  S   S119      1.0  0.8809514522022658  0.8334636713756826  0.1802122389924215  1.0000
  S   S120      1.0  0.885879265603916  0.8153085257702607  0.24875080781896045  1.0000
  Fe  Fe61      1.0  0.801073621002655  0.7781419573074605  0.4727931658053952  1.0000
  S   S121      1.0  0.8187928762448312  0.831694932071485  0.46911276167558064  1.0000
  S   S122      1.0  0.7455019884345386  0.7671781281322856  0.47868277426904177  1.0000
  Fe  Fe62      1.0  0.8528279530494897  0.7508456907597987  0.9657476494926954  1.0000
  S   S123      1.0  0.8774492756988418  0.8009289379922646  0.9600914757062071  1.0000
  S   S124      1.0  0.8835473167599497  0.7002748281223589  0.9648399525327446  1.0000
  Fe  Fe63      1.0  0.8411136532876282  0.8200911587296034  0.9945784352309154  1.0000
  S   S125      1.0  0.8583795543448418  0.856669126080543  0.028137586046024152  1.0000
  Fe  Fe64      1.0  0.8534616103836112  0.8091646692356195  0.4346795354035862  1.0000
  S   S126      1.0  0.862749965292853  0.8398820220663261  0.3951240774909769  1.0000
  S   S127      1.0  0.8203382084937997  0.7685430849636719  0.0032131345573418457  1.0000
  S   S128      1.0  0.8326199701362276  0.7567873278555625  0.435974226874451  1.0000
  C   C1        1.0  0.8363497901200635  0.8503396037970651  0.06023518498549411  1.0000
  C   C2        1.0  0.8493445001746475  0.8624060983480611  0.08609901300377927  1.0000
  C   C3        1.0  0.8344213467233165  0.8534284012892621  0.11216868606689152  1.0000
  C   C4        1.0  0.806600320587645  0.8323257576177634  0.1123610461700476  1.0000
  C   C5        1.0  0.7924378356652977  0.8219420062832568  0.08643435698173971  1.0000
  C   C6        1.0  0.8072366305031295  0.8310098204909769  0.06040901674355515  1.0000
  H   H1        1.0  0.8715135163427692  0.8778726673623146  0.08602170503681206  1.0000
  H   H2        1.0  0.8446118584759406  0.8626415888149577  0.13206905518283524  1.0000
  H   H3        1.0  0.7705963257415746  0.806041004281386  0.08647623537803512  1.0000
  H   H4        1.0  0.7963196068328097  0.8226548141967293  0.040507374237267225  1.0000
  C   C7        1.0  0.8152045441078183  0.7997759439954988  0.3136262226527054  1.0000
  C   C8        1.0  0.8333397106601574  0.8297114806786218  0.31298078083391845  1.0000
  C   C9        1.0  0.8462350614246051  0.8431229996801567  0.33842584357602334  1.0000
  C   C10       1.0  0.8412943710185478  0.8264265419072546  0.3644308335333115  1.0000
  C   C11       1.0  0.8214372956857273  0.7977039881113503  0.36515115000289694  1.0000
  C   C12       1.0  0.8085083715685963  0.7842717140372485  0.3397742712612997  1.0000
  H   H5        1.0  0.8375854709044103  0.842479391048685  0.2929004474507965  1.0000
  H   H6        1.0  0.860673390217004  0.8660091807402666  0.3378342940732736  1.0000
  H   H7        1.0  0.8164685510934355  0.7853831739962812  0.3850682789902468  1.0000
  H   H8        1.0  0.7942835242871732  0.761252844236192  0.3403526927298382  1.0000
  C   C13       1.0  0.9742691185182708  0.6723420527000831  0.5397034925844566  1.0000
  C   C14       1.0  0.9533976658064786  0.7029001684376254  0.5387507125530244  1.0000
  C   C15       1.0  0.9311264489586487  0.7094200011918594  0.5155437287861886  1.0000
  C   C16       1.0  0.9125593090833449  0.6965976329333154  0.9934973961591279  1.0000
  C   C17       1.0  0.929059710056417  0.6645411661829596  0.9996407376342373  1.0000
  C   C18       1.0  0.9530414892886913  0.6613354766348265  0.02194826375887919  1.0000
  H   H9        1.0  0.9548145606770765  0.7217594855666154  0.5557478660581961  1.0000
  H   H10       1.0  0.9154941026019591  0.7333219319109046  0.5147323280647522  1.0000
  H   H11       1.0  0.9230776944360013  0.6420407522967944  0.9873448754198786  1.0000
  H   H12       1.0  0.9654829038583729  0.6364570472467881  0.026530515791003836  1.0000
  C   C19       1.0  0.9585737389771988  0.6796991287802178  0.27675546105206184  1.0000
  C   C20       1.0  0.926379111123766  0.6971356324819272  0.2730124872033221  1.0000
  C   C21       1.0  0.92021157985839  0.7187612619071152  0.24934160178098969  1.0000
  C   C22       1.0  0.9461597258475735  0.722802895123304  0.2291546077203222  1.0000
  C   C23       1.0  0.978265597576858  0.7051697926187127  0.23276874664702066  1.0000
  C   C24       1.0  0.9844483984132427  0.6835415352171728  0.25646085195774887  1.0000
  H   H13       1.0  0.9060723589997537  0.6937154071896426  0.28832460026890366  1.0000
  H   H14       1.0  0.8952274924736715  0.7320050720928188  0.24659728981060014  1.0000
  H   H15       1.0  0.9986212109393235  0.7087661773757723  0.21755513565608137  1.0000
  H   H16       1.0  0.009495777676341355  0.67045171066051  0.2593687980423667  1.0000
  C   C25       1.0  0.09445952353395048  0.5829213892883872  0.19764056472330538  1.0000
  C   C26       1.0  0.07132340541613091  0.5569121500603862  0.19973500385947757  1.0000
  C   C27       1.0  0.05957239771600409  0.5410248079283517  0.17489782075737823  1.0000
  C   C28       1.0  0.07114535401410826  0.5511037717371814  0.14805977637920498  1.0000
  C   C29       1.0  0.0956627777005441  0.5757419362997575  0.14612897113257836  1.0000
  C   C30       1.0  0.10713378018782183  0.5918674969582856  0.17089363437325966  1.0000
  H   H17       1.0  0.061858183956416735  0.5496662761718575  0.22041256121278308  1.0000
  H   H18       1.0  0.040626359034578785  0.5218877439793512  0.17638745726559205  1.0000
  H   H19       1.0  0.10553087516796689  0.5824908875713609  0.12548892646180942  1.0000
  H   H20       1.0  0.12495302310898526  0.6120158243060443  0.1693324138670676  1.0000
  C   C31       1.0  0.09546613137293969  0.5681097903785846  0.39763402884990834  1.0000
  C   C32       1.0  0.10770866436637427  0.5776859294568165  0.424470736257311  1.0000
  C   C33       1.0  0.09209547922750372  0.5662026834872904  0.44941281208193823  1.0000
  C   C34       1.0  0.06462290046873997  0.5448566601074473  0.44758748269273424  1.0000
  C   C35       1.0  0.05350444175195612  0.5339027254275635  0.4207930726458672  1.0000
  C   C36       1.0  0.06885242365915945  0.5456732328104746  0.39584886595083035  1.0000
  H   H21       1.0  0.12842794067352714  0.594945960447499  0.42603377512092633  1.0000
  H   H22       1.0  0.10058014023525708  0.5747069262693956  0.470034175699209  1.0000
  H   H23       1.0  0.032420446758013144  0.5171046009375275  0.419227206333872  1.0000
  H   H24       1.0  0.05990143216188226  0.5375470712501056  0.3752562189483054  1.0000
  C   C37       1.0  0.7271642394125921  0.75425267329348  0.44639295519180017  1.0000
  C   C38       1.0  0.7431626620204838  0.7603649470263442  0.4202818175102862  1.0000
  C   C39       1.0  0.7304837424622959  0.7466246614919025  0.39486744486606884  1.0000
  C   C40       1.0  0.7010036439207487  0.7278497042438954  0.39542967591119615  1.0000
  C   C41       1.0  0.6839506084509525  0.7232136192251267  0.42133177500506486  1.0000
  C   C42       1.0  0.6972484976478973  0.736097573832138  0.44684898203809975  1.0000
  H   H25       1.0  0.765263955286672  0.7757422478002953  0.4195781853618014  1.0000
  H   H26       1.0  0.7433635225900714  0.7507995707904164  0.3747804929718754  1.0000
  H   H27       1.0  0.661269223178427  0.708520309429663  0.42182095157408545  1.0000
  H   H28       1.0  0.6848962094929265  0.7310767266666557  0.46695546827858475  1.0000
  C   C43       1.0  0.5741312023898075  0.7712759450206811  0.25683636066132154  1.0000
  C   C44       1.0  0.5532541952229761  0.7814595205011091  0.23365576561054113  1.0000
  C   C45       1.0  0.5520886466427455  0.7602785675176564  0.20929903464881647  1.0000
  C   C46       1.0  0.5717618290051679  0.7289773242216913  0.20827400776857274  1.0000
  C   C47       1.0  0.593794743504786  0.7196952734430235  0.23087897064756815  1.0000
  C   C48       1.0  0.5950816363765146  0.740943769443176  0.2550149161488767  1.0000
  H   H29       1.0  0.5372371711982096  0.8051401911498665  0.23485009418435004  1.0000
  H   H30       1.0  0.5354165545055213  0.7678347882624821  0.1916688216858251  1.0000
  H   H31       1.0  0.6094676249457828  0.6957783917111848  0.22987870087178888  1.0000
  H   H32       1.0  0.612372390607847  0.7338494586582057  0.2721659795452791  1.0000
  C   C49       1.0  0.5649908540009447  0.7685627297692569  0.4597093839043773  1.0000
  C   C50       1.0  0.5475331789272148  0.7748715916843478  0.4854878251204008  1.0000
  C   C51       1.0  0.5324823249627931  0.766555349326093  0.009422675380688741  1.0000
  C   C52       1.0  0.5576284885660764  0.7392912687564566  0.009250715016435337  1.0000
  C   C53       1.0  0.5729689827677966  0.7286188403902574  0.9834697061095413  1.0000
  C   C54       1.0  0.5948915454734707  0.7468685574864345  0.4592067676081823  1.0000
  H   H33       1.0  0.5243962631073543  0.7917382027646933  0.48595766948419333  1.0000
  H   H34       1.0  0.5212816944424052  0.7757208770346805  0.02928702508080649  1.0000
  H   H35       1.0  0.5927132914865119  0.7077912036070679  0.9831706159376474  1.0000
  H   H36       1.0  0.6089640745162169  0.7426789318748612  0.4394774791444601  1.0000
  C   C55       1.0  0.4231582167743203  0.6136968026400066  0.1813886204023031  1.0000
  C   C56       1.0  0.45104261433720544  0.6341413453946972  0.1773839994763281  1.0000
  C   C57       1.0  0.450866969118108  0.6579420665127785  0.15498062084235184  1.0000
  C   C58       1.0  0.4229517401202453  0.6611162313662147  0.13616507348907045  1.0000
  C   C59       1.0  0.39473527407033887  0.6410244215721554  0.14037454273652192  1.0000
  C   C60       1.0  0.3948788805674155  0.6172101064979927  0.16291736636510878  1.0000
  H   H37       1.0  0.47327253569138716  0.6308853446104149  0.19108497502052205  1.0000
  H   H38       1.0  0.4727559041387475  0.6732637379119574  0.15197193027172712  1.0000
  H   H39       1.0  0.37292155905486113  0.6436108072060228  0.12605498296230377  1.0000
  H   H40       1.0  0.3731734986984805  0.6015385354786877  0.1659329568431984  1.0000
  C   C61       1.0  0.22827529131193003  0.5758716392169123  0.4626598703933501  1.0000
  C   C62       1.0  0.19417293644878278  0.5681694766814243  0.4675164374033417  1.0000
  C   C63       1.0  0.1755843845812054  0.5840138025220313  0.49012421135336975  1.0000
  C   C64       1.0  0.19065241465929494  0.6081425375262087  0.5075413433562556  1.0000
  C   C65       1.0  0.22471500752076665  0.6160324850436603  0.5026715686223671  1.0000
  C   C66       1.0  0.2435814986540733  0.599772334882903  0.4802989912251146  1.0000
  H   H41       1.0  0.18215275125935318  0.5497859692417207  0.45390115201804304  1.0000
  H   H42       1.0  0.149561705980081  0.5776487125429394  0.49409586896866853  1.0000
  H   H43       1.0  0.23646388369782864  0.634801420435303  0.5160728384723039  1.0000
  H   H44       1.0  0.2696264726791624  0.6063424761140733  0.47635050269009493  1.0000
  C   C67       1.0  0.42732734922238186  0.6457606215265668  0.3944569854070574  1.0000
  C   C68       1.0  0.4430546041220641  0.6147461181004429  0.38440313990715247  1.0000
  C   C69       1.0  0.47355048816559  0.6149259742238837  0.3684185082007611  1.0000
  C   C70       1.0  0.4883804957111965  0.6460688421861618  0.36264191118872696  1.0000
  C   C71       1.0  0.47166939504456984  0.6771008409507131  0.37147388817617466  1.0000
  C   C72       1.0  0.4412115357640738  0.6769514681695343  0.387369059247057  1.0000
  H   H45       1.0  0.4321571652237648  0.5905912627212189  0.38939615239489134  1.0000
  H   H46       1.0  0.48613046268188514  0.5908396111645655  0.36125612086081527  1.0000
  H   H47       1.0  0.48234064795175635  0.701253203940025  0.3664399912450509  1.0000
  H   H48       1.0  0.4287413697029943  0.7010050751268889  0.39472078379372116  1.0000
  C   C73       1.0  0.3601962435854222  0.48528425457843816  0.3480889909390048  1.0000
  C   C74       1.0  0.3710303201388768  0.5048689862113386  0.32513535547422046  1.0000
  C   C75       1.0  0.35022469437179604  0.5093565483794725  0.3008032716916089  1.0000
  C   C76       1.0  0.3186343533313273  0.4942087114690147  0.2994183876627363  1.0000
  C   C77       1.0  0.30731189331398084  0.47552476959307527  0.32275962887191667  1.0000
  C   C78       1.0  0.32810388635100113  0.4710427276262846  0.347111203591965  1.0000
  H   H49       1.0  0.39553300414632125  0.5165237729807325  0.326136097065872  1.0000
  H   H50       1.0  0.35855679959914616  0.524777968216619  0.2832247507571431  1.0000
  H   H51       1.0  0.28295570616171306  0.46365588495354987  0.32165661331085565  1.0000
  H   H52       1.0  0.3196171903824432  0.45609843340421874  0.3649684876242018  1.0000
  C   C79       1.0  0.368471732528965  0.5277659954448117  0.5433336522098128  1.0000
  C   C80       1.0  0.372524978392823  0.5082954204922695  0.5683296464814002  1.0000
  C   C81       1.0  0.3348159203673246  0.5080703941291675  0.0971643802459787  1.0000
  C   C82       1.0  0.3113705147258931  0.5366324899316731  0.09888538953583809  1.0000
  C   C83       1.0  0.30615330128018053  0.5581759625198592  0.07515855796026245  1.0000
  C   C84       1.0  0.3475825534895822  0.5582696710981744  0.5436131004145219  1.0000
  H   H53       1.0  0.38851371778372346  0.4846014732607236  0.568162276682791  1.0000
  H   H54       1.0  0.3382208893461417  0.49075892830216433  0.11512511751808048  1.0000
  H   H55       1.0  0.28823954580274896  0.580455280822232  0.0764114821462959  1.0000
  H   H56       1.0  0.34474768994419724  0.5737127724450894  0.5245790302836646  1.0000
  C   C85       1.0  0.0454332281428218  0.4200378386121639  0.36465753113050015  1.0000
  C   C86       1.0  0.027429397640232445  0.405566819137108  0.3421104399069218  1.0000
  C   C87       1.0  0.017804986311703797  0.42570954873375244  0.3181413960964352  1.0000
  C   C88       1.0  0.026727258388077324  0.46006791023303445  0.3165256617617978  1.0000
  C   C89       1.0  0.04553320656506776  0.4740357923122862  0.3386983682398786  1.0000
  C   C90       1.0  0.05450462896471109  0.4542548080851469  0.36284730673716387  1.0000
  H   H57       1.0  0.020255498958297036  0.37919536739766185  0.3434276116847472  1.0000
  H   H58       1.0  0.003150018103756924  0.41478049940222733  0.30105985888873993  1.0000
  H   H59       1.0  0.05305858478347214  0.5001933399830597  0.3372514378094636  1.0000
  H   H60       1.0  0.06858398882110572  0.46551370774352535  0.3801363073175476  1.0000
  C   C91       1.0  0.12017097645923205  0.27812775028783104  0.49216364126252055  1.0000
  C   C92       1.0  0.1333002822828377  0.3457829880813645  0.9957016145207994  1.0000
  C   C93       1.0  0.12120118620384183  0.3589405551392807  0.02197101820850737  1.0000
  C   C94       1.0  0.13493128759595888  0.34559080663067887  0.04749667363734955  1.0000
  C   C95       1.0  0.16212134263544636  0.3203994115428691  0.04670561903644882  1.0000
  C   C96       1.0  0.10140425448856694  0.3096858637227875  0.495322499616059  1.0000
  H   H61       1.0  0.14277621875271512  0.2336538334968882  0.5139939552635167  1.0000
  H   H62       1.0  0.10035745751668405  0.37848932229337345  0.02259209867469475  1.0000
  H   H63       1.0  0.17380358126987766  0.3111532438952503  0.06634791672383128  1.0000
  H   H64       1.0  0.0965892247846579  0.32597803179073387  0.47697287925205994  1.0000
  C   C97       1.0  0.08059655227304247  0.3021376724877  0.2443449412357345  1.0000
  C   C98       1.0  0.07266364959497254  0.3182780364140868  0.27061469930969617  1.0000
  C   C99       1.0  0.072695661119737  0.29894193764871424  0.295880808196181  1.0000
  C   C100      1.0  0.08050462091781165  0.2634016124910474  0.29485098935282605  1.0000
  C   C101      1.0  0.08848737709415036  0.24724966985945132  0.26868384561702724  1.0000
  C   C102      1.0  0.08847221252177341  0.2666004734838305  0.24345792056013477  1.0000
  H   H65       1.0  0.06654010128638603  0.34573452416208333  0.2715275085548343  1.0000
  H   H66       1.0  0.06657094207697223  0.3115788436675653  0.3160769345937335  1.0000
  H   H67       1.0  0.09457974307450501  0.21975057048683086  0.2678558113152848  1.0000
  H   H68       1.0  0.09408951873357746  0.25389407151814897  0.22333371650950284  1.0000
  C   C103      1.0  0.9649662400754896  0.1982220425262767  0.09105884533024834  1.0000
  C   C104      1.0  0.9794373358169071  0.22872966488708416  0.09957639572422068  1.0000
  C   C105      1.0  0.014877368835735098  0.229141435294053  0.10466881834010412  1.0000
  C   C106      1.0  0.03603547258747253  0.19922146282519526  0.10058504780665004  1.0000
  C   C107      1.0  0.021729844531316326  0.16907976114680837  0.09091230435431273  1.0000
  C   C108      1.0  0.9861952982734462  0.1684765101122704  0.0863919824073138  1.0000
  H   H69       1.0  0.9630464118685983  0.2518470593123654  0.10309298738428783  1.0000
  H   H70       1.0  0.025575353701891013  0.25245099599861354  0.11221992763417123  1.0000
  H   H71       1.0  0.03808342554931055  0.14589968550332288  0.08759586507149386  1.0000
  H   H72       1.0  0.9752990623565414  0.1450310012505968  0.0792539073549273  1.0000
  C   C109      1.0  0.91592908318074  0.9483838452318633  0.31586223618386283  1.0000
  C   C110      1.0  0.9102419864584435  0.9730369866435821  0.29443422929012414  1.0000
  C   C111      1.0  0.8999667462382028  0.962909301686657  0.267037644276957  1.0000
  C   C112      1.0  0.8944835104743005  0.9282576566273253  0.2612281633294133  1.0000
  C   C113      1.0  0.8994701237704608  0.903804526293867  0.28289250130094123  1.0000
  C   C114      1.0  0.9106502711751149  0.9137862423028754  0.31006588658031864  1.0000
  H   H73       1.0  0.9145997308806215  0.9997472666761108  0.298792815855885  1.0000
  H   H74       1.0  0.8965962860531961  0.9819414792852624  0.25036965253048604  1.0000
  H   H75       1.0  0.8948618486221603  0.8772676647657413  0.2786643140760666  1.0000
  H   H76       1.0  0.9147867734734794  0.8949024404179716  0.3267751331202137  1.0000
  C   C115      1.0  0.9671379069926388  0.141935171496141  0.4299655466202579  1.0000
  C   C116      1.0  0.9359522242538014  0.1612871540258126  0.42692437422557994  1.0000
  C   C117      1.0  0.9350851578181093  0.19736098486040096  0.4285686481390453  1.0000
  C   C118      1.0  0.9655328903610858  0.2140418773464608  0.43260724953411167  1.0000
  C   C119      1.0  0.996290928039602  0.1945835212098449  0.43730755743993655  1.0000
  C   C120      1.0  0.9970850945805287  0.15857102237979065  0.43617969615023183  1.0000
  H   H77       1.0  0.9125477628040685  0.1485344079826536  0.4232035180697746  1.0000
  H   H78       1.0  0.9110590658266573  0.2123344513692022  0.42552211520825717  1.0000
  H   H79       1.0  0.019570871642225814  0.20717210223280594  0.4415564763527012  1.0000
  H   H80       1.0  0.021187293246241582  0.14362091880268318  0.43892599291172324  1.0000
  C   C121      1.0  0.8151945368947784  0.03451081725087923  0.44798560238019536  1.0000
  C   C122      1.0  0.8826580139717823  0.05460254103762763  0.9594785935003846  1.0000
  C   C123      1.0  0.8923799070478519  0.04036883696502658  0.9859648059140059  1.0000
  C   C124      1.0  0.8765120561461471  0.052839200004165976  0.011071867322416155  1.0000
  C   C125      1.0  0.8496233659978185  0.07820918268021915  0.009476500495642765  1.0000
  C   C126      1.0  0.8399619593175379  0.05025845044377175  0.46439143405228106  1.0000
  H   H81       1.0  0.7785281167693151  0.9952738029469783  0.4468616739790899  1.0000
  H   H82       1.0  0.9129804621876931  0.02049401214833657  0.9871013079970817  1.0000
  H   H83       1.0  0.8362086685348296  0.0866587372312766  0.028621623901972554  1.0000
  H   H84       1.0  0.8536379857526186  0.07114522154332903  0.45548086572562796  1.0000
  C   C127      1.0  0.888806895363405  0.10734205138852482  0.2699799526994834  1.0000
  C   C128      1.0  0.9087768220295372  0.07644487307924686  0.26714253540142635  1.0000
  C   C129      1.0  0.9178866296748444  0.06381546342811428  0.23983374546256217  1.0000
  C   C130      1.0  0.9066299383242438  0.08176886482162526  0.21531849747249884  1.0000
  C   C131      1.0  0.8861753128310751  0.11237454828845528  0.21818495921305764  1.0000
  C   C132      1.0  0.8774527093706966  0.12524693826256939  0.24549078904530422  1.0000
  H   H85       1.0  0.9175900908615151  0.06247065714777067  0.2859725673346159  1.0000
  H   H86       1.0  0.9336345704390174  0.040022149150827024  0.23773863920150706  1.0000
  H   H87       1.0  0.877124320015759  0.12627645864446224  0.1994843495609356  1.0000
  H   H88       1.0  0.8618071115975877  0.14908043658148729  0.24762394442086771  1.0000
  C   C133      1.0  0.4064766068752202  0.4064539227220595  0.14384293976425977  1.0000
  C   C134      1.0  0.4092293328183775  0.3717125375068248  0.13570478223686178  1.0000
  C   C135      1.0  0.4145465380093949  0.3623982060402757  0.10694959271949755  1.0000
  C   C136      1.0  0.41832506947146214  0.3877999213509884  0.08631412411226584  1.0000
  C   C137      1.0  0.4165561617860131  0.42254343984003323  0.0945050969141135  1.0000
  C   C138      1.0  0.41001915615123896  0.4319067365658748  0.12317112305957906  1.0000
  H   H89       1.0  0.4069385653832216  0.3519709672371807  0.15161903493806653  1.0000
  H   H90       1.0  0.41615964974928615  0.335536545333697  0.10082203482833056  1.0000
  H   H91       1.0  0.42012692872448953  0.4421106072133011  0.07863094754257147  1.0000
  H   H92       1.0  0.40834556215085344  0.45867314056293196  0.1293662497131864  1.0000
  C   C139      1.0  0.25638430210403823  0.24736094659338484  0.2479554618707278  1.0000
  C   C140      1.0  0.28094014567085784  0.24022530585301743  0.2265751458774618  1.0000
  C   C141      1.0  0.2715740903833785  0.2428310956759125  0.19762314474050424  1.0000
  C   C142      1.0  0.23773608020978626  0.2529207293931946  0.1899821904089325  1.0000
  C   C143      1.0  0.21324845543441134  0.26037042711418007  0.2113522731614961  1.0000
  C   C144      1.0  0.22250088056890602  0.25732717919439774  0.24029924631409752  1.0000
  H   H93       1.0  0.30699025928487444  0.23214443360445686  0.23232526790966326  1.0000
  H   H94       1.0  0.2904875596736274  0.23687400772204473  0.18114259440788072  1.0000
  H   H95       1.0  0.18714899964740736  0.26851267630833336  0.2056364968614379  1.0000
  H   H96       1.0  0.20340706014275972  0.26306287060157535  0.2567023936249004  1.0000
  C   C145      1.0  0.36489647719455315  0.31621313139089047  0.3938435395525247  1.0000
  C   C146      1.0  0.3839705326627518  0.3231730150114708  0.41834734762684195  1.0000
  C   C147      1.0  0.376501206958265  0.30750610699693715  0.4444282545490068  1.0000
  C   C148      1.0  0.3501320083988348  0.2847131868837647  0.44600245935596877  1.0000
  C   C149      1.0  0.32999994339765953  0.27915533732545766  0.42181387046325713  1.0000
  C   C150      1.0  0.33732422609283363  0.2949492880653135  0.39578939179522715  1.0000
  H   H97       1.0  0.4052193835747507  0.33973143049914895  0.41690324194172634  1.0000
  H   H98       1.0  0.391453139840348  0.3126785500087781  0.4631214212585877  1.0000
  H   H99       1.0  0.30919571027348375  0.26200291265351194  0.42302814286333396  1.0000
  H   H100      1.0  0.32170829441169574  0.2905271802063854  0.3771855015407266  1.0000
  C   C151      1.0  0.40421762968659347  0.2744002718009627  0.19542346475892414  1.0000
  C   C152      1.0  0.3780462187777234  0.251421722336589  0.19408154316513557  1.0000
  C   C153      1.0  0.36880686698311355  0.23733547648714445  0.1677253615120331  1.0000
  C   C154      1.0  0.38492274415893624  0.2470566186320833  0.14252275400036618  1.0000
  C   C155      1.0  0.41088253012528314  0.27028146353043864  0.14380570203500725  1.0000
  C   C156      1.0  0.42075551323803595  0.28366108740926554  0.1702893618094513  1.0000
  H   H101      1.0  0.36486626345057765  0.24443492583090018  0.2132498885105696  1.0000
  H   H102      1.0  0.3488716956967967  0.21916433032092067  0.16678910562764582  1.0000
  H   H103      1.0  0.4235413393450553  0.2777815809017117  0.12444972909428649  1.0000
  H   H104      1.0  0.44107877722715555  0.30142996428200136  0.1712232204658825  1.0000
  C   C157      1.0  0.5500280802075803  0.8875246981339165  0.037691170694301925  1.0000
  C   C158      1.0  0.5505157973998184  0.8519985882284534  0.042286246868249264  1.0000
  C   C159      1.0  0.5346763808906508  0.8390228597601914  0.06652107490888083  1.0000
  C   C160      1.0  0.5176085924636294  0.8614447019411172  0.08600112669452618  1.0000
  C   C161      1.0  0.516231945197313  0.8969937827411738  0.08099881946669349  1.0000
  C   C162      1.0  0.5326487344590999  0.9100522306413147  0.05695306064753914  1.0000
  H   H105      1.0  0.5631684761540018  0.8344540883665618  0.027097791965808152  1.0000
  H   H106      1.0  0.535626297644283  0.8116280387030299  0.07007270333206479  1.0000
  H   H107      1.0  0.5022850472466907  0.9143858574220849  0.09558930504547135  1.0000
  H   H108      1.0  0.5313627503755449  0.9374196194105908  0.053147629427600616  1.0000
  C   C163      1.0  0.493089208768239  0.10688384626573431  0.9915548492372764  1.0000
  C   C164      1.0  0.537488837713053  0.13270803606969764  0.47601066922028223  1.0000
  C   C165      1.0  0.5359540160281473  0.1650685615831537  0.48936745571725976  1.0000
  C   C166      1.0  0.4884137339113611  0.17925109238547418  0.9953268270557648  1.0000
  C   C167      1.0  0.4587803485823035  0.16085142977598774  0.9973568567492034  1.0000
  C   C168      1.0  0.46107179460938585  0.12478751201717575  0.9950045429493414  1.0000
  H   H109      1.0  0.5616845722389434  0.12184692782950653  0.46782255624419533  1.0000
  H   H110      1.0  0.5591155616060387  0.17884689092967784  0.49171547410681443  1.0000
  H   H111      1.0  0.4340514253437217  0.17427589867361995  0.0004231589467080799  1.0000
  H   H112      1.0  0.4380321720657425  0.1106720356749593  0.9963305194690234  1.0000
  C   C169      1.0  0.736578570952358  0.09718528032931162  0.20808462917203432  1.0000
  C   C170      1.0  0.770765591317143  0.10472054320337576  0.20329503487903847  1.0000
  C   C171      1.0  0.7818278297519249  0.112609879555575  0.17569682518163637  1.0000
  C   C172      1.0  0.7584809463507602  0.1139104184455948  0.15294713824678924  1.0000
  C   C173      1.0  0.7241650264777468  0.10673867499814937  0.1577689427963188  1.0000
  C   C174      1.0  0.7132541657521928  0.09813116842367164  0.18531720943601188  1.0000
  H   H113      1.0  0.7886444198409615  0.10490728942550565  0.22097658885972432  1.0000
  H   H114      1.0  0.8082382357237082  0.11842205315704524  0.17216567993747003  1.0000
  H   H115      1.0  0.7060137034261788  0.1076642922023412  0.14022734882412768  1.0000
  H   H116      1.0  0.6868085257178206  0.09232960589644357  0.18890338872872808  1.0000
  C   C175      1.0  0.5346663202498039  0.161234190191605  0.30611840221411596  1.0000
  C   C176      1.0  0.5190643460142447  0.1924969899735403  0.3158662286699409  1.0000
  C   C177      1.0  0.4839808580264763  0.1950374498524891  0.32277004062883524  1.0000
  C   C178      1.0  0.4644898694664055  0.16613684082632219  0.32042202481633253  1.0000
  C   C179      1.0  0.48022633479589216  0.13466579721407096  0.3113705186016612  1.0000
  C   C180      1.0  0.5151407589517915  0.13232303365808232  0.30387304424686684  1.0000
  H   H117      1.0  0.5341039147526175  0.21490097534517436  0.31786802276564696  1.0000
  H   H118      1.0  0.47225057821674077  0.21921328761136563  0.33041753713504873  1.0000
  H   H119      1.0  0.4652179774581555  0.11220884938555285  0.30962975897537864  1.0000
  H   H120      1.0  0.5267572548451865  0.10808847234967298  0.296503695336085  1.0000
  C   C181      1.0  0.6373762241892811  0.9975537957915878  0.34322042019378735  1.0000
  C   C182      1.0  0.6626824917166063  0.021343026903429374  0.34625824665809174  1.0000
  C   C183      1.0  0.6748502587068695  0.029620771297184545  0.37353665720134893  1.0000
  C   C184      1.0  0.662191285314571  0.013511385861553649  0.39768842753722755  1.0000
  C   C185      1.0  0.639117839200558  0.9876297391366317  0.3943904668275996  1.0000
  C   C186      1.0  0.626404737707516  0.9799187411000214  0.36721796040035043  1.0000
  H   H121      1.0  0.6728652556697792  0.03331469874804638  0.32764282378618753  1.0000
  H   H122      1.0  0.6933420178405568  0.04907076387515019  0.3760318826097899  1.0000
  H   H123      1.0  0.6309355446906404  0.9737502309353535  0.41282972146014596  1.0000
  H   H124      1.0  0.6074140504912787  0.9609925328103052  0.36481313616772354  1.0000
  C   C187      1.0  0.5861935492720592  0.05487968313260394  0.152355514887666  1.0000
  C   C188      1.0  0.6221112926472959  0.05144327093081502  0.15207957567697722  1.0000
  C   C189      1.0  0.6396807608412677  0.046216152748659534  0.12606714185479667  1.0000
  C   C190      1.0  0.6213376996348656  0.04440690526448199  0.1003684302348153  1.0000
  C   C191      1.0  0.5855082572350531  0.049045460360956694  0.10059632690167461  1.0000
  C   C192      1.0  0.5679458221799164  0.05415672425011597  0.12658162655344907  1.0000
  H   H125      1.0  0.636342179281349  0.05221716344108018  0.1719151559943242  1.0000
  H   H126      1.0  0.6674506307293896  0.042988016154104525  0.12594514542818583  1.0000
  H   H127      1.0  0.5712750854113711  0.04876237808123407  0.08078666141502218  1.0000
  H   H128      1.0  0.5401727955216934  0.05732570263292924  0.12669093026917716  1.0000
  Fe  Fe65      1.0  0.5882867053276762  0.02781262425009645  0.776086476452077  1.0000
  S   S129      1.0  0.6201562474925227  0.07311064920388266  0.7835932450049691  1.0000
  S   S130      1.0  0.5758141305728549  0.9890539064143912  0.8094042878145267  1.0000
  Fe  Fe66      1.0  0.5723345610121985  0.047812388587468835  0.7147961543420875  1.0000
  S   S131      1.0  0.6023744720712819  0.09510906135057451  0.7170458881735936  1.0000
  S   S132      1.0  0.5429329434226703  0.032219278041312194  0.6760719471090763  1.0000
  Fe  Fe67      1.0  0.6417781031819929  0.06066448586563444  0.7398943952312499  1.0000
  S   S133      1.0  0.6992119206638984  0.05674729467660922  0.732673808986011  1.0000
  Fe  Fe68      1.0  0.5779611126071892  0.10287639416697769  0.7602598264728637  1.0000
  S   S134      1.0  0.5580227246759079  0.15576503089628016  0.7742214553731148  1.0000
  S   S135      1.0  0.6133033992472517  0.012621682786692734  0.734391867616375  1.0000
  S   S136      1.0  0.5443033286803907  0.05852983247164145  0.7558737178641954  1.0000
  Fe  Fe69      1.0  0.6074019967433909  0.028578157530130266  0.5234587505918745  1.0000
  S   S137      1.0  0.5548298489513974  0.009560293139953657  0.5157667737468767  1.0000
  S   S138      1.0  0.6307793543491367  0.0471949878672453  0.5641082670226694  1.0000
  Fe  Fe70      1.0  0.6122857551044641  0.010039224965678883  0.9671811264256123  1.0000
  S   S139      1.0  0.5598949118071866  0.9895428135195249  0.966077109646034  1.0000
  S   S140      1.0  0.6453302884044974  0.017390759626328522  0.9284927894602445  1.0000
  Fe  Fe71      1.0  0.5554769796975569  0.041323228952190316  0.4757734779688211  1.0000
  S   S141      1.0  0.5100080466918503  0.07304492958864195  0.45862451172656826  1.0000
  Fe  Fe72      1.0  0.5834377559816121  0.9687342509438499  0.4895330112612144  1.0000
  S   S142      1.0  0.5731202864359772  0.9126444681357657  0.4894990713746858  1.0000
  S   S143      1.0  0.6054849251530474  0.0640024276428186  0.4858058649338829  1.0000
  S   S144      1.0  0.6359523935447708  0.985205934857103  0.5003243340294108  1.0000
  Fe  Fe73      1.0  0.38266142880684645  0.20798503672722193  0.8188317664337609  1.0000
  S   S145      1.0  0.4022156507532418  0.2603417722741466  0.8128086452312198  1.0000
  S   S146      1.0  0.41585576836509147  0.16505135722078623  0.8387765508993666  1.0000
  Fe  Fe74      1.0  0.3124157053868216  0.2301461648922931  0.7944647909597581  1.0000
  S   S147      1.0  0.32666629175179246  0.28425477882832384  0.7861705860080438  1.0000
  S   S148      1.0  0.2576311046917624  0.21669985054998908  0.7885912250832728  1.0000
  Fe  Fe75      1.0  0.3761588583002482  0.2588921508685399  0.770235577191618  1.0000
  S   S149      1.0  0.4054051816239588  0.2802841185805698  0.7338087155263949  1.0000
  Fe  Fe76      1.0  0.35116243527490376  0.2802784904481081  0.829424269944347  1.0000
  S   S150      1.0  0.34950449224411884  0.32443318745722255  0.8604543254565669  1.0000
  S   S151      1.0  0.3600789611124736  0.20468109938449175  0.7747029913836997  1.0000
  S   S152      1.0  0.3334118074817274  0.22800497062424685  0.8392145894611682  1.0000
  Fe  Fe77      1.0  0.4536311615813875  0.24320096796604765  0.532770018132773  1.0000
  S   S153      1.0  0.4033874538576316  0.21818339613824253  0.5344826105544721  1.0000
  S   S154      1.0  0.5047812990201775  0.2177388920064248  0.5200154571498836  1.0000
  Fe  Fe78      1.0  0.4211559078636809  0.31318187932124575  0.549726598299295  1.0000
  S   S155      1.0  0.3682059514955435  0.29413128155337964  0.5528941421276892  1.0000
  S   S156      1.0  0.4289738858188617  0.3695852645123805  0.5544705360750907  1.0000
  Fe  Fe79      1.0  0.3944248954332994  0.24871127152363326  0.5749332047570863  1.0000
  S   S157      1.0  0.36862185096349565  0.22334834355903457  0.611705895292621  1.0000
  Fe  Fe80      1.0  0.3671460937980059  0.2756337415657742  0.01246545013480227  1.0000
  S   S158      1.0  0.3208615927740763  0.270843572388501  0.9848018946268603  1.0000
  S   S159      1.0  0.44674357324059266  0.27007256373196004  0.5752183554225382  1.0000
  S   S160      1.0  0.4163458705326215  0.29785979419908426  0.9995225776239675  1.0000
  Fe  Fe81      1.0  0.8880899698280248  0.08750327793541612  0.8241642470519185  1.0000
  S   S161      1.0  0.9387338514027413  0.056993974423432014  0.8234896821375457  1.0000
  S   S162      1.0  0.8591876192072168  0.10682491674350758  0.7851255460092416  1.0000
  Fe  Fe82      1.0  0.8838327767936031  0.08694116665353269  0.8893186122251767  1.0000
  S   S163      1.0  0.9341399052360453  0.05626329833950616  0.8938290973368166  1.0000
  S   S164      1.0  0.8497728622449725  0.10443170821731296  0.9261142912139321  1.0000
  Fe  Fe83      1.0  0.9524494575768349  0.09138877190745465  0.8599534707116827  1.0000
  S   S165      1.0  0.004666701282198591  0.11292555563221529  0.8624856582377739  1.0000
  Fe  Fe84      1.0  0.9149536978853308  0.025128352045937552  0.857272551523276  1.0000
  S   S166      1.0  0.9150013389769321  0.9673132793429594  0.8567463150842541  1.0000
  S   S167      1.0  0.9034806345679036  0.12463068785677334  0.8579770535317203  1.0000
  S   S168      1.0  0.8632002569870677  0.05325929656379169  0.855357504360191  1.0000
  Fe  Fe85      1.0  0.8041651667932711  0.09175935790713274  0.6053714703085229  1.0000
  S   S169      1.0  0.8182128394359919  0.035629808280055686  0.6106638515061216  1.0000
  S   S170      1.0  0.7490147193679566  0.1092104712311579  0.6125867316422063  1.0000
  Fe  Fe86      1.0  0.8761414534426254  0.10747789215507986  0.5870861793328178  1.0000
  S   S171      1.0  0.8962566107458095  0.05224721535373855  0.5905217926706926  1.0000
  S   S172      1.0  0.9074834607823153  0.15215558731442158  0.575306654617241  1.0000
  Fe  Fe87      1.0  0.8466203716074171  0.0402128503251431  0.5694402951853202  1.0000
  S   S173      1.0  0.8383663984634243  0.9970302361471386  0.5385891296821742  1.0000
  Fe  Fe88      1.0  0.8658949743860452  0.05284714615437336  0.6313246484696189  1.0000
  S   S174      1.0  0.8871312292969697  0.024557971324560945  0.6697830738971747  1.0000
  S   S175      1.0  0.8287658708767701  0.0952991702567787  0.5622574250822879  1.0000
  S   S176      1.0  0.8495985726509255  0.10906540556025646  0.6297574314137898  1.0000
  Fe  Fe89      1.0  0.08643538322860392  0.2785429471392671  0.6174312684740951  1.0000
  S   S177      1.0  0.11454180831424647  0.22656735506271428  0.6181973193511349  1.0000
  S   S178      1.0  0.07605351893268582  0.3119872265054762  0.5788522572180361  1.0000
  Fe  Fe90      1.0  0.07149625805503375  0.2779237365729812  0.6810998916024047  1.0000
  S   S179      1.0  0.09810592611317694  0.22564347756827816  0.6873486603126738  1.0000
  S   S180      1.0  0.04561202891897677  0.3086660319544262  0.7167172814790181  1.0000
  Fe  Fe91      1.0  0.13871619700963836  0.24541322130071963  0.6586507257853921  1.0000
  S   S181      1.0  0.19647292987893258  0.24034134634792284  0.6640808581348399  1.0000
  Fe  Fe92      1.0  0.07138150108671458  0.21180607904274829  0.6465930455191249  1.0000
  S   S182      1.0  0.047679931391519936  0.16046385325481324  0.6423298800234091  1.0000
  S   S183      1.0  0.11392528098062239  0.29885833082078167  0.655487058923218  1.0000
  S   S184      1.0  0.04135426205077986  0.2625165417401415  0.6428663830618921  1.0000
  Fe  Fe93      1.0  0.05422465714679748  0.28037289042999985  0.9193013757216171  1.0000
  S   S185      1.0  0.10763783162395767  0.2598513344711125  0.908695001073982  1.0000
  S   S186      1.0  0.01429128962808357  0.24726931763657728  0.9378291098384424  1.0000
  Fe  Fe94      1.0  0.06995684139239589  0.35402794896164663  0.9053227201569578  1.0000
  S   S187      1.0  0.12478149153651281  0.33968751033096445  0.8941511632230326  1.0000
  S   S188      1.0  0.05414771566875576  0.4104861612205348  0.9068109053129139  1.0000
  Fe  Fe95      1.0  0.10303832501489725  0.2953832214208007  0.8711244859818303  1.0000
  S   S189      1.0  0.12832012828456038  0.27784109721103556  0.830016305833607  1.0000
  Fe  Fe96      1.0  0.12451322466381522  0.3057733525040356  0.9324906220457222  1.0000
  S   S190      1.0  0.16915492993771558  0.2985039738167453  0.9624737114814172  1.0000
  S   S191      1.0  0.04764730522014294  0.312077443329546  0.8792713358090442  1.0000
  S   S192      1.0  0.07137369857203235  0.32388137869607025  0.946151633871843  1.0000
  Fe  Fe97      1.0  0.3587403854153199  0.5457625542964458  0.9801381670835777  1.0000
  S   S193      1.0  0.3315514915204916  0.5979968704673169  0.9765634554633608  1.0000
  S   S194      1.0  0.37797264074188  0.5186834835128853  0.019752634879351305  1.0000
  Fe  Fe98      1.0  0.35944492791098354  0.5331590176465912  0.9162619320461232  1.0000
  S   S195      1.0  0.3325130747000539  0.5844310561137832  0.9065217668108877  1.0000
  S   S196      1.0  0.377766955755797  0.4930526236495601  0.8840829306485916  1.0000
  Fe  Fe99      1.0  0.36750404365053607  0.6049464680667377  0.9398012548439605  1.0000
  S   S197      1.0  0.39335783581314576  0.6547458883184608  0.9356821198551895  1.0000
  Fe  Fe100     1.0  0.298760469278507  0.5728699033904114  0.9439030103127093  1.0000
  S   S198      1.0  0.24110583424543783  0.5769809068146108  0.9392301946228967  1.0000
  S   S199      1.0  0.3975837894022999  0.5547621915030782  0.9462038646178628  1.0000
  S   S200      1.0  0.32297208164605284  0.5198120625126793  0.9507435700258473  1.0000
  Fe  Fe101     1.0  0.4142795034518021  0.5510769307479949  0.7005595710935753  1.0000
  S   S201      1.0  0.3609065343795005  0.5755346974943945  0.702884091922276  1.0000
  S   S202      1.0  0.46122215741558253  0.580360051160436  0.7095284201505442  1.0000
  Fe  Fe102     1.0  0.3892673909669623  0.4804665094464992  0.686087210734373  1.0000
  S   S203      1.0  0.33373235887726654  0.4991262015374497  0.6873455025063574  1.0000
  S   S204      1.0  0.40130862445279986  0.4235290848075627  0.6808366365077165  1.0000
  Fe  Fe103     1.0  0.35144177375720687  0.5444942482270895  0.6634380275309949  1.0000
  S   S205      1.0  0.32152556691497114  0.5684155064218819  0.6267666769877487  1.0000
  Fe  Fe104     1.0  0.348369499277631  0.5279668398734259  0.7266308497813379  1.0000
  S   S206      1.0  0.31333033011793066  0.5340291649206073  0.7647257691246576  1.0000
  S   S207      1.0  0.40627102637175977  0.5237901808415534  0.6589356496441178  1.0000
  S   S208      1.0  0.40267384425025887  0.5057244033335989  0.7275528124540491  1.0000
  Fe  Fe105     1.0  0.6067044033329165  0.7100341186653604  0.8710690918298893  1.0000
  S   S209      1.0  0.5971943014239133  0.7673857246653475  0.8720952533973323  1.0000
  S   S210      1.0  0.6592968332226881  0.6875398059940504  0.8821242005620388  1.0000
  Fe  Fe106     1.0  0.5360540947870454  0.6987035015765514  0.8467455026613734  1.0000
  S   S211      1.0  0.5209009270367918  0.7552192023932954  0.8454320919751693  1.0000
  S   S212      1.0  0.500110778486317  0.6583586669159148  0.8341017900253314  1.0000
  Fe  Fe107     1.0  0.574270806229471  0.76052172200434  0.828823848020779  1.0000
  S   S213      1.0  0.5856611605119133  0.7974051601070953  0.7937674722987607  1.0000
  Fe  Fe108     1.0  0.545263512791419  0.756165254424524  0.8888726269946314  1.0000
  S   S214      1.0  0.5212243746499595  0.7873105303203342  0.9250890200054127  1.0000
  S   S215      1.0  0.5874561919947459  0.7037781897141627  0.826366908920402  1.0000
  S   S216      1.0  0.5565277829139692  0.6989380428900958  0.8914360752273218  1.0000
  Fe  Fe109     1.0  0.5212994488327716  0.7322320263725972  0.6250449320287016  1.0000
  S   S217      1.0  0.5688670167972499  0.6978783252713472  0.6181743246476932  1.0000
  S   S218      1.0  0.46888679687854146  0.7129698683421066  0.6329210510138608  1.0000
  Fe  Fe110     1.0  0.5591599190512728  0.7977763656496724  0.6163552777999859  1.0000
  S   S219      1.0  0.6097660272566213  0.7686486062802242  0.6093003316451231  1.0000
  S   S220      1.0  0.5600981135053752  0.8556257801993179  0.6153453439045259  1.0000
  Fe  Fe111     1.0  0.5795440366682546  0.7336934953042903  0.5822042540652332  1.0000
  S   S221      1.0  0.6031315651893067  0.7141650433813709  0.5408325327007764  1.0000
  Fe  Fe112     1.0  0.5941469857309095  0.7362252670557015  0.6458814714817341  1.0000
  S   S222      1.0  0.630844900625558  0.7187731958126218  0.680673015764977  1.0000
  S   S223      1.0  0.5296371788412857  0.7650626654749041  0.5866812222439308  1.0000
  S   S224      1.0  0.545664161271569  0.7681577071723904  0.6555289973160986  1.0000
  Fe  Fe113     1.0  0.028599369712984712  0.5423493196893685  0.7920315404123923  1.0000
  S   S225      1.0  0.0821621818368874  0.5603435829446146  0.7937098377638049  1.0000
  S   S226      1.0  0.022793680735514688  0.48501726868459244  0.7885928201945118  1.0000
  Fe  Fe114     1.0  0.9956686223305964  0.6155445998694661  0.7944633252816414  1.0000
  S   S227      1.0  0.046448681358654875  0.6391825778187017  0.7965983667336193  1.0000
  S   S228      1.0  0.9466151369086028  0.648999595554725  0.7973442545240688  1.0000
  Fe  Fe115     1.0  0.06230450339597793  0.6005148701650168  0.7627801718338311  1.0000
  S   S229      1.0  0.09367998426865798  0.6174092355213547  0.7259150473082502  1.0000
  Fe  Fe116     1.0  0.06110744519835376  0.5969351055257837  0.8273259066280123  1.0000
  S   S230      1.0  0.09208721779036  0.6102886914286407  0.8658430207529527  1.0000
  S   S231      1.0  0.010141840017220183  0.5798457011091124  0.7579555187950986  1.0000
  S   S232      1.0  0.00867962076578288  0.5761360686095547  0.8282898639491223  1.0000
  Fe  Fe117     1.0  0.10141468723943463  0.6184570408678878  0.04684376712109728  1.0000
  S   S233      1.0  0.09082669511134212  0.5625958853910951  0.04279941519533215  1.0000
  S   S234      1.0  0.15548704360486074  0.6352038579495867  0.045805488238725545  1.0000
  Fe  Fe118     1.0  0.026686648476741626  0.6408851652734268  0.058106189748344805  1.0000
  S   S235      1.0  0.009808226308964718  0.5870209997748747  0.05528083931176164  1.0000
  S   S236      1.0  0.9894925089181813  0.6858868088399017  0.06706265018450241  1.0000
  Fe  Fe119     1.0  0.07877217040082174  0.5573804839358198  0.5795857483215423  1.0000
  S   S237      1.0  0.08363558734955223  0.5220934629861371  0.6174661771080096  1.0000
  Fe  Fe120     1.0  0.04502655089160079  0.5824485161882941  0.017453894868364905  1.0000
  S   S238      1.0  0.027349221032294313  0.5553985263223469  0.9781852346018332  1.0000
  S   S239      1.0  0.08874829297020859  0.6133225747714961  0.582982609067635  1.0000
  S   S240      1.0  0.0583783483690532  0.6377565412948091  0.018138053979870117  1.0000
  Fe  Fe121     1.0  0.8440450197548598  0.86925744876031  0.7302708863325044  1.0000
  S   S241      1.0  0.7928342476959417  0.8479311999273635  0.7228910028684625  1.0000
  S   S242      1.0  0.8428580674547466  0.9252648042675021  0.7417410592179661  1.0000
  Fe  Fe122     1.0  0.883165091682562  0.8022723608733052  0.7128746367542766  1.0000
  S   S243      1.0  0.8350933925835143  0.7753774182840579  0.703562383309543  1.0000
  S   S244      1.0  0.9350670582165059  0.7737702106154349  0.7106618083745708  1.0000
  Fe  Fe123     1.0  0.8168209795658111  0.8252024083453666  0.6830828016336146  1.0000
  S   S245      1.0  0.784270714633498  0.8286866429645954  0.6435023518833278  1.0000
  Fe  Fe124     1.0  0.8158475897284179  0.8007105565326974  0.744031324742396  1.0000
  S   S246      1.0  0.7892167487128956  0.7731596523145744  0.7784585670441837  1.0000
  S   S247      1.0  0.8666997337658816  0.8503972968658098  0.6885777654156503  1.0000
  S   S248      1.0  0.8652849378688181  0.8238432905236212  0.755094978505903  1.0000
  Fe  Fe125     1.0  0.7809266933058062  0.7842992205368865  0.9699651453744322  1.0000
  S   S249      1.0  0.7992170841968514  0.8373653743839485  0.9644187326904702  1.0000
  S   S250      1.0  0.7239851215827697  0.7804935952419351  0.9760210131638529  1.0000
  Fe  Fe126     1.0  0.8733220339014316  0.7445813761681375  0.4685309087190419  1.0000
  S   S251      1.0  0.8974778273667792  0.795100039648476  0.4640695430479419  1.0000
  S   S252      1.0  0.9018063943239154  0.6929726108121504  0.46427751948896756  1.0000
  Fe  Fe127     1.0  0.8608059362918558  0.8128162120423386  0.4987889581101428  1.0000
  S   S253      1.0  0.8785222840839041  0.8445483189586824  0.5353535368383973  1.0000
  Fe  Fe128     1.0  0.8335930670751949  0.8137598123608294  0.9304005136866483  1.0000
  S   S254      1.0  0.842265999416488  0.8438792794800039  0.8904114976862668  1.0000
  S   S255      1.0  0.840021250772709  0.7609756777809026  0.5058442979198885  1.0000
  S   S256      1.0  0.8115947323614201  0.7619954589988358  0.9330365902463064  1.0000
  C   C193      1.0  0.852069970190935  0.8373923001483987  0.5647367324942411  1.0000
  C   C194      1.0  0.8668057400768263  0.8285845076893645  0.5911740249022198  1.0000
  C   C195      1.0  0.8459097589705549  0.8249494073867686  0.6152205674838062  1.0000
  C   C196      1.0  0.8102499460190152  0.8305775526751956  0.6129759318910423  1.0000
  C   C197      1.0  0.7953948524995702  0.8385935988170924  0.5863592837610513  1.0000
  C   C198      1.0  0.8163100665491556  0.8417853340014949  0.5621724451559893  1.0000
  H   H129      1.0  0.8943728755593666  0.8239634835126446  0.5929625803935876  1.0000
  H   H130      1.0  0.8574671240402936  0.8172892377434231  0.6353631932610685  1.0000
  H   H131      1.0  0.7677971956131839  0.84268468911936  0.5844935594123375  1.0000
  H   H132      1.0  0.804860817654102  0.8483873725204106  0.541674492294543  1.0000
  C   C199      1.0  0.8023829939935478  0.7928569033308495  0.8100034591987273  1.0000
  C   C200      1.0  0.8068520061943811  0.8283063673354335  0.8105072953662593  1.0000
  C   C201      1.0  0.8187643637604547  0.8439650758082575  0.8353905659837417  1.0000
  C   C202      1.0  0.8261080648628552  0.8242288553190861  0.859828337160473  1.0000
  C   C203      1.0  0.8216578621767543  0.7887993487944669  0.8592295265412703  1.0000
  C   C204      1.0  0.809679740643411  0.7731281769444839  0.834388836457846  1.0000
  H   H133      1.0  0.8012425494091975  0.8437449805972156  0.7916884404164212  1.0000
  H   H134      1.0  0.8224914445301096  0.8713424129993035  0.8356296644042117  1.0000
  H   H135      1.0  0.828851636695886  0.7731241046754624  0.8774268443978879  1.0000
  H   H136      1.0  0.8071746610600572  0.7455609414675185  0.8338156546412472  1.0000
  C   C205      1.0  0.96034635732048  0.6900899488862603  0.038432049298784854  1.0000
  C   C206      1.0  0.944057473157475  0.7222276846324359  0.032144510384989555  1.0000
  C   C207      1.0  0.9199579461695878  0.7254744148415958  0.009845593052584034  1.0000
  C   C208      1.0  0.9293159655780169  0.6850963980026865  0.49352270957423205  1.0000
  C   C209      1.0  0.9497394596658856  0.6542787678480732  0.4947104612254197  1.0000
  C   C210      1.0  0.9724584495885933  0.6480437623610125  0.5176350245569801  1.0000
  H   H137      1.0  0.9508638762631043  0.7447744910485619  0.043886013682070235  1.0000
  H   H138      1.0  0.9075972411492531  0.750388862622874  0.0049792418535596905  1.0000
  H   H139      1.0  0.9479155090256801  0.6351356098423894  0.47802341188685005  1.0000
  H   H140      1.0  0.9882506690367526  0.6242316583771464  0.5184372720189353  1.0000
  C   C211      1.0  0.9434161643608735  0.6823884989313493  0.772049340296698  1.0000
  C   C212      1.0  0.9121046090443287  0.7015672153396203  0.7687185076234592  1.0000
  C   C213      1.0  0.9092971840996874  0.7291672309197452  0.7494371105753571  1.0000
  C   C214      1.0  0.9379203588433259  0.7380664250731085  0.7336905773050602  1.0000
  C   C215      1.0  0.9692247807313639  0.7187807548494782  0.7368701843695599  1.0000
  C   C216      1.0  0.9719290314971859  0.6908533296047243  0.7558942847308696  1.0000
  H   H141      1.0  0.8899235792108459  0.6950176133755165  0.7810383221663826  1.0000
  H   H142      1.0  0.8849746990891127  0.7436972862107087  0.7469782904543337  1.0000
  H   H143      1.0  0.9915092087322614  0.7256971467183613  0.7248805546298179  1.0000
  H   H144      1.0  0.9962030344481454  0.6762348967243749  0.7583500542993205  1.0000
  C   C217      1.0  0.09387094220415215  0.5884490736397933  0.6971435281893688  1.0000
  C   C218      1.0  0.11154844171785427  0.5960511519683084  0.6721590349193881  1.0000
  C   C219      1.0  0.1094009285730404  0.5749130772090962  0.6479745957551422  1.0000
  C   C220      1.0  0.08947832524575317  0.5462327147049828  0.6486451112741087  1.0000
  C   C221      1.0  0.07297784462367196  0.5377473695033589  0.674022747479694  1.0000
  C   C222      1.0  0.07518377927403419  0.5588572256610916  0.6983176358358297  1.0000
  H   H145      1.0  0.12635899327061972  0.6186918436581623  0.6713285926017192  1.0000
  H   H146      1.0  0.12304191177150314  0.5809579853129507  0.6287789338287487  1.0000
  H   H147      1.0  0.057556558773903754  0.5155767000412339  0.6745571946965858  1.0000
  H   H148      1.0  0.061968436474583166  0.552549142331851  0.717729741775008  1.0000
  C   C223      1.0  0.07843197724705364  0.591001494114342  0.8972220779006982  1.0000
  C   C224      1.0  0.08883129193374817  0.6034225856447689  0.923765996135206  1.0000
  C   C225      1.0  0.07440159225763399  0.5912784361902627  0.9489545639721498  1.0000
  C   C226      1.0  0.04962175947746439  0.5668170155580392  0.9475489910393784  1.0000
  C   C227      1.0  0.041133685826237  0.5526232512767455  0.9211407116684982  1.0000
  C   C228      1.0  0.05554579293735351  0.5647725140145504  0.8959872779927445  1.0000
  H   H149      1.0  0.1069827556893288  0.6233931432141387  0.924877139765862  1.0000
  H   H150      1.0  0.08179370081848836  0.6016188808622216  0.9693102138762395  1.0000
  H   H151      1.0  0.02248617579378598  0.533126336716032  0.9200080278729524  1.0000
  H   H152      1.0  0.048398488847104515  0.5543548402755527  0.8756426877688449  1.0000
  C   C229      1.0  0.7058865604452348  0.7516242473060651  0.9521982412198234  1.0000
  C   C230      1.0  0.7265187288500612  0.726948821492917  0.9372426675055155  1.0000
  C   C231      1.0  0.7118949905631016  0.7058296890477394  0.9167037596686851  1.0000
  C   C232      1.0  0.676592498833714  0.7093350952897884  0.9111707111771686  1.0000
  C   C233      1.0  0.6557929209817294  0.7328705661589813  0.9270646460998587  1.0000
  C   C234      1.0  0.6703573344438835  0.7540353368934243  0.9475057800327161  1.0000
  H   H153      1.0  0.7536908787168334  0.7238882310924283  0.9416067151715635  1.0000
  H   H154      1.0  0.7280517500614617  0.6872893621911135  0.9047249125772201  1.0000
  H   H155      1.0  0.6286123664788317  0.7353905529941283  0.9229662214394714  1.0000
  H   H156      1.0  0.6541061722963051  0.7727571635343056  0.9591043119813982  1.0000
  C   C235      1.0  0.6018527583277021  0.7770577800204569  0.7626272723382894  1.0000
  C   C236      1.0  0.5958635956745504  0.7928049930682518  0.7360932223020425  1.0000
  C   C237      1.0  0.6059790525397903  0.7754919118237215  0.7108115205191905  1.0000
  C   C238      1.0  0.622070988124763  0.7424263307340256  0.7120627520705376  1.0000
  C   C239      1.0  0.6298196110165801  0.7274855727324346  0.7386352373616231  1.0000
  C   C240      1.0  0.6197132973474437  0.7448142354297124  0.7638985548970777  1.0000
  H   H157      1.0  0.5825319556115034  0.8179904800343025  0.7350525175122523  1.0000
  H   H158      1.0  0.6011178034677681  0.7876941655466357  0.6903693106884202  1.0000
  H   H159      1.0  0.6426861865659261  0.7020666031844062  0.739688725217662  1.0000
  H   H160      1.0  0.6257801010572975  0.7331667083529789  0.7842873767984686  1.0000
  C   C241      1.0  0.5362094876771389  0.7703274857171782  0.9577180200815728  1.0000
  C   C242      1.0  0.5216806352065474  0.7820718938279475  0.9836154804852951  1.0000
  C   C243      1.0  0.5593302333957213  0.7585464706138295  0.5105875826756822  1.0000
  C   C244      1.0  0.5886476912958224  0.7360123606722307  0.5100041651752427  1.0000
  C   C245      1.0  0.6066136039259553  0.7304568431187795  0.4843177410253121  1.0000
  C   C246      1.0  0.5623504536167638  0.7442461406274093  0.9578517723941897  1.0000
  H   H161      1.0  0.5018012759684403  0.8027417351806422  0.9837152814604283  1.0000
  H   H162      1.0  0.5452974287754929  0.7630538431831337  0.530152190557825  1.0000
  H   H163      1.0  0.6293651777821002  0.7131018825994486  0.48377944988110405  1.0000
  H   H164      1.0  0.5741770992436307  0.7357406875474428  0.9381450268792427  1.0000
  C   C247      1.0  0.4632632365422569  0.6173423392298868  0.6884617181432147  1.0000
  C   C248      1.0  0.4953137949844777  0.6286386381065823  0.6804312574431324  1.0000
  C   C249      1.0  0.49731594357269365  0.6582343283168179  0.6635835137183073  1.0000
  C   C250      1.0  0.4672813404147413  0.6767431529748348  0.6549491017364936  1.0000
  C   C251      1.0  0.43527173450446294  0.6655471622289241  0.6631285673663153  1.0000
  C   C252      1.0  0.4332396666202631  0.6357936697559864  0.6797391055321782  1.0000
  H   H165      1.0  0.5186002083612175  0.6141390531835194  0.6868529704536475  1.0000
  H   H166      1.0  0.5220652553526843  0.6665150312775051  0.657084986348894  1.0000
  H   H167      1.0  0.4119556898949777  0.6798498007452669  0.6564780215814962  1.0000
  H   H168      1.0  0.4084186894962954  0.6273893314608621  0.6859569154095058  1.0000
  C   C253      1.0  0.21764049549877165  0.5929603166829291  0.969104158202517  1.0000
  C   C254      1.0  0.18225805036815343  0.5884633441684937  0.9706611144086776  1.0000
  C   C255      1.0  0.16307435175237214  0.6011256195480097  0.994301806990242  1.0000
  C   C256      1.0  0.17907525320727374  0.6189437922099638  0.016145793288785626  1.0000
  C   C257      1.0  0.21432683796255886  0.6238066298140235  0.014409197869727608  1.0000
  C   C258      1.0  0.2336280812866202  0.6105744332617495  0.9910608052086358  1.0000
  H   H169      1.0  0.1696499288647556  0.5750601917004754  0.9536844917800446  1.0000
  H   H170      1.0  0.13587254017893738  0.597428526873648  0.9954976411077382  1.0000
  H   H171      1.0  0.2267554403651421  0.6379663334203616  0.03103056779644242  1.0000
  H   H172      1.0  0.2607069248077782  0.6146256329365792  0.9898419184790175  1.0000
  C   C259      1.0  0.4226306341571607  0.6550626610004285  0.9071660435645604  1.0000
  C   C260      1.0  0.4317514046440317  0.6250294046635175  0.8915999117904869  1.0000
  C   C261      1.0  0.455712577972937  0.6259137244433981  0.8691629115675121  1.0000
  C   C262      1.0  0.4704068011142396  0.6567957530195982  0.8622553165838375  1.0000
  C   C263      1.0  0.4613374670577123  0.6866656483974608  0.877927531567546  1.0000
  C   C264      1.0  0.4373527493024658  0.6858532294603874  0.9001745295956699  1.0000
  H   H173      1.0  0.4207591073954273  0.6010668272210886  0.897127957016883  1.0000
  H   H174      1.0  0.46359478134979665  0.6025476807877387  0.8577214988569691  1.0000
  H   H175      1.0  0.4725017352914042  0.7106185086466166  0.8727856570174266  1.0000
  H   H176      1.0  0.43006134761355086  0.709263654667553  0.9117973636955244  1.0000
  C   C265      1.0  0.35754993688713654  0.5003180129480421  0.8510046624819617  1.0000
  C   C266      1.0  0.3732623366804107  0.48751294961324676  0.8258387404727904  1.0000
  C   C267      1.0  0.3591844959153495  0.49663181009295754  0.799074680372292  1.0000
  C   C268      1.0  0.32939038025042394  0.518479998313326  0.7975316825574262  1.0000
  C   C269      1.0  0.3128411344383012  0.5298174732583445  0.8227033545779086  1.0000
  C   C270      1.0  0.3268523167160781  0.5207433781110615  0.8494192912777853  1.0000
  H   H177      1.0  0.3969111620791841  0.47152462338875123  0.8270670255506409  1.0000
  H   H178      1.0  0.3716323662174148  0.487196111755893  0.7797460273158198  1.0000
  H   H179      1.0  0.2897190002984989  0.5464941098933146  0.8214616950413848  1.0000
  H   H180      1.0  0.314123291691856  0.5298595421407936  0.8687870755758853  1.0000
  C   C271      1.0  0.34979733981826694  0.5240323806139887  0.048845830542210145  1.0000
  C   C272      1.0  0.35390832296737645  0.5017587308499286  0.07213672531050963  1.0000
  C   C273      1.0  0.3565855611994259  0.519811162339291  0.5937746117340478  1.0000
  C   C274      1.0  0.33693821778427807  0.5510715690120674  0.5943071742157235  1.0000
  C   C275      1.0  0.33204986134815623  0.5700576279743288  0.5691437178190484  1.0000
  C   C276      1.0  0.3253638240129378  0.5518368543211961  0.050101187967566574  1.0000
  H   H181      1.0  0.372119341042071  0.4797776878037501  0.07096738009588432  1.0000
  H   H182      1.0  0.359965050271405  0.5046825003673099  0.6130383307949868  1.0000
  H   H183      1.0  0.3176049561413044  0.5946984926894416  0.5696279234683592  1.0000
  H   H184      1.0  0.3220230834411126  0.5691650517940681  0.03222430694994083  1.0000
  C   C277      1.0  0.04686933878418342  0.43027575571303855  0.873381390334074  1.0000
  C   C278      1.0  0.04763092073789155  0.46614180300611535  0.8714141833649984  1.0000
  C   C279      1.0  0.041002789474844814  0.48271785350269886  0.8452330957805201  1.0000
  C   C280      1.0  0.032704253711310693  0.46375136817941154  0.8210284017412882  1.0000
  C   C281      1.0  0.03228695742419885  0.4277684517087549  0.8228303377019814  1.0000
  C   C282      1.0  0.039726687766409974  0.4109970813809679  0.8489263082386168  1.0000
  H   H185      1.0  0.053436180769073305  0.4811808778129956  0.8901223183121247  1.0000
  H   H186      1.0  0.04199091671470945  0.5102460359250054  0.8437667323566737  1.0000
  H   H187      1.0  0.0258112384179352  0.41286374605087217  0.8042251692676086  1.0000
  H   H188      1.0  0.03899527647408285  0.3833135355827998  0.8502910192816776  1.0000
  C   C283      1.0  0.1588554805123168  0.31907940212754515  0.9949166017110328  1.0000
  C   C284      1.0  0.12803147107239596  0.25798316218647854  0.5163370131214929  1.0000
  C   C285      1.0  0.11564306241488839  0.26865143332987834  0.5433991788947728  1.0000
  C   C286      1.0  0.09531492254958471  0.29938590795247905  0.5462278031522394  1.0000
  C   C287      1.0  0.08874821840625592  0.3201279560321625  0.5222423347324314  1.0000
  C   C288      1.0  0.1739523907910433  0.3069372594953179  0.020362351653111954  1.0000
  H   H189      1.0  0.12266266006220622  0.3559334112887382  0.9759822103718672  1.0000
  H   H190      1.0  0.12118390540303343  0.2527224418216779  0.5618419750522237  1.0000
  H   H191      1.0  0.07332997894028108  0.3440234354500589  0.524505970644563  1.0000
  H   H192      1.0  0.19393303645006688  0.28642698250427373  0.019683703455300572  1.0000
  C   C289      1.0  0.07009094641802731  0.3040868591720745  0.7479743087820874  1.0000
  C   C290      1.0  0.10312609381472272  0.28807782122759035  0.7469138600046138  1.0000
  C   C291      1.0  0.12146193594574038  0.281498639932694  0.7722375388095791  1.0000
  C   C292      1.0  0.10691442324931996  0.2911025288116938  0.79865575106847  1.0000
  C   C293      1.0  0.07461354585113472  0.30878399109071203  0.7996463029278142  1.0000
  C   C294      1.0  0.05612788154785165  0.3152012782650292  0.7742763342385147  1.0000
  H   H193      1.0  0.11446302075990426  0.280302997351757  0.7266124456295883  1.0000
  H   H194      1.0  0.14659892748535788  0.26814988070554213  0.771330146883801  1.0000
  H   H195      1.0  0.06341057899802387  0.3166968750534404  0.8199122691236785  1.0000
  H   H196      1.0  0.030598979327314483  0.3277444099697082  0.7751671833825622  1.0000
  C   C295      1.0  0.9475535071232755  0.15388978554006344  0.5922741880892947  1.0000
  C   C296      1.0  0.9616288605034446  0.1858627431495834  0.5962873992369936  1.0000
  C   C297      1.0  0.9928682426494146  0.18811430403816254  0.6109459122033828  1.0000
  C   C298      1.0  0.010217768319960687  0.15833864603220357  0.6215753729141565  1.0000
  C   C299      1.0  0.9965072143915467  0.12627669284523488  0.6169631200625905  1.0000
  C   C300      1.0  0.9652846015509866  0.12402156255286138  0.6022783706243918  1.0000
  H   H197      1.0  0.947811982952332  0.2090111748878295  0.5887082722545232  1.0000
  H   H198      1.0  0.0031362072247071997  0.2129183649087494  0.6144170589833864  1.0000
  H   H199      1.0  0.009954439457553478  0.10313081005471368  0.6249815320130181  1.0000
  H   H200      1.0  0.9548557511549289  0.09920336828727638  0.5988648661116724  1.0000
  C   C301      1.0  0.8943824648212675  0.9548935695687512  0.8252476005243455  1.0000
  C   C302      1.0  0.8830032548000946  0.9799499703442014  0.8055037721346412  1.0000
  C   C303      1.0  0.8669456388568662  0.9704307152460403  0.7801416683566459  1.0000
  C   C304      1.0  0.862341106746544  0.9357852953243405  0.7742209666394608  1.0000
  C   C305      1.0  0.873116290048549  0.9105756184012371  0.794134341045447  1.0000
  C   C306      1.0  0.8891451938760714  0.9201454942068176  0.8196945890802508  1.0000
  H   H201      1.0  0.8870029479751729  0.00670617000848428  0.8095325429043604  1.0000
  H   H202      1.0  0.8586109172082407  0.9899104071466731  0.764810795285275  1.0000
  H   H203      1.0  0.8688776018194919  0.8838785760593248  0.7900251536058194  1.0000
  H   H204      1.0  0.8974119655289515  0.9007503433043982  0.8351355168003641  1.0000
  C   C307      1.0  0.006966866876505935  0.1488936352774104  0.8850950906748678  1.0000
  C   C308      1.0  0.9773951257353172  0.16506140328371052  0.8972899371717696  1.0000
  C   C309      1.0  0.9797510432174205  0.19509408562142155  0.9138034655931166  1.0000
  C   C310      1.0  0.01165186359051651  0.2090427325414281  0.9180604534850262  1.0000
  C   C311      1.0  0.041273177156387675  0.19232372886294227  0.9065407397554778  1.0000
  C   C312      1.0  0.03895234066355591  0.16220970802547988  0.8902425524207399  1.0000
  H   H205      1.0  0.9526631744641484  0.15480890436549433  0.8936585905639503  1.0000
  H   H206      1.0  0.9567335817488448  0.2081283642936324  0.9224792775635106  1.0000
  H   H207      1.0  0.06608084468551423  0.2022655940500164  0.9104803432077833  1.0000
  H   H208      1.0  0.06201415692883123  0.1492302260546919  0.8815901470779723  1.0000
  C   C313      1.0  0.8577911990954961  0.08199513002682823  0.9581276347292378  1.0000
  C   C314      1.0  0.7976787239753136  0.007463797428571617  0.4595416591156054  1.0000
  C   C315      1.0  0.8055827641681202  0.9955257895373517  0.487153855665926  1.0000
  C   C316      1.0  0.8297718687357046  0.011730036360667162  0.5038098293315516  1.0000
  C   C317      1.0  0.8467828191427964  0.03929862579167831  0.49253648832711694  1.0000
  C   C318      1.0  0.8405551010446883  0.09312650416853363  0.983078445095049  1.0000
  H   H209      1.0  0.8950084193784962  0.044859587305845494  0.9402945256032459  1.0000
  H   H210      1.0  0.7925132809229536  0.9740934459832143  0.4957757392503414  1.0000
  H   H211      1.0  0.865671167665619  0.0517844223363757  0.5052781738860244  1.0000
  H   H212      1.0  0.8207799862946177  0.11384290337264757  0.982061443034915  1.0000
  C   C319      1.0  0.8652927532024115  0.08189300507360153  0.7539054886730179  1.0000
  C   C320      1.0  0.889265451697297  0.05369938255749829  0.752911216968894  1.0000
  C   C321      1.0  0.8951413313771245  0.03543848655586279  0.7272167037634545  1.0000
  C   C322      1.0  0.877171144031715  0.045438964764810574  0.7024155963808086  1.0000
  C   C323      1.0  0.85249377055916  0.07300343957847  0.7036227928657305  1.0000
  C   C324      1.0  0.8464951260179052  0.09114658070421178  0.7293109493674457  1.0000
  H   H213      1.0  0.9037097555534674  0.046129263638662765  0.7717410347310047  1.0000
  H   H214      1.0  0.9140768621821396  0.013900696365519494  0.7265178856537162  1.0000
  H   H215      1.0  0.8382779709802239  0.08064524031828046  0.6847227795246965  1.0000
  H   H216      1.0  0.8277105743131332  0.11280951620905522  0.7299508136472848  1.0000
  C   C325      1.0  0.4082209990792155  0.40903243809111456  0.6454649894789092  1.0000
  C   C326      1.0  0.41557318710658203  0.431960274283399  0.6236274752954623  1.0000
  C   C327      1.0  0.42217267878275816  0.41963831549498626  0.5957474236231425  1.0000
  C   C328      1.0  0.42073634827382245  0.38450884420071785  0.5894934108767457  1.0000
  C   C329      1.0  0.4128632288816079  0.3616382881485986  0.6112073008228702  1.0000
  C   C330      1.0  0.40693347725993095  0.3738475346691471  0.6392080550843794  1.0000
  H   H217      1.0  0.41686634903187286  0.4590392627473679  0.628271899529255  1.0000
  H   H218      1.0  0.4286403402460933  0.4372677465377211  0.5790504373447178  1.0000
  H   H219      1.0  0.4116145326472289  0.33452091734838973  0.6064936227742579  1.0000
  H   H220      1.0  0.4011886449865719  0.3560168285913518  0.6559901090209712  1.0000
  C   C331      1.0  0.24078590416514933  0.224052544825425  0.7540749121843998  1.0000
  C   C332      1.0  0.2622114537707009  0.23156230052804347  0.7312192397084484  1.0000
  C   C333      1.0  0.24833460578277367  0.23654874655564356  0.7036862982208003  1.0000
  C   C334      1.0  0.21291969736715033  0.23469547954066952  0.698994699747398  1.0000
  C   C335      1.0  0.1914397544025098  0.2278671357127442  0.7220020078379985  1.0000
  C   C336      1.0  0.20541245197533592  0.22225797206092923  0.7494326763010346  1.0000
  H   H221      1.0  0.2895393220810813  0.23290497010258226  0.7346332644426233  1.0000
  H   H222      1.0  0.2651418439911453  0.24170787688230808  0.6860139763549834  1.0000
  H   H223      1.0  0.16417926745022646  0.22632837287608  0.718602519672396  1.0000
  H   H224      1.0  0.18880991407246225  0.2163612914873132  0.7670667315352797  1.0000
  C   C337      1.0  0.33959359315077897  0.31121151006859066  0.8951805547975571  1.0000
  C   C338      1.0  0.3175646641830718  0.28460310481682455  0.8994343216801748  1.0000
  C   C339      1.0  0.3106887851237719  0.2733715258170241  0.9271646257184123  1.0000
  C   C340      1.0  0.32654913475365127  0.2880594309011306  0.9506921692198919  1.0000
  C   C341      1.0  0.3482329174631633  0.31500395260201935  0.9465531907673892  1.0000
  C   C342      1.0  0.35449692468515925  0.32680062306477364  0.9188096842221934  1.0000
  H   H225      1.0  0.30538116353365846  0.27286630732505696  0.8814750727904295  1.0000
  H   H226      1.0  0.29369982914328857  0.2527004167672607  0.9303572824376382  1.0000
  H   H227      1.0  0.360022066854353  0.32678867145095075  0.9647462508089399  1.0000
  H   H228      1.0  0.37149460695438796  0.3474242873610132  0.9155843468320283  1.0000
  C   C343      1.0  0.3928236046187202  0.2663475481223192  0.6999059325552847  1.0000
  C   C344      1.0  0.4087973809659507  0.27889137878800796  0.6756027952229223  1.0000
  C   C345      1.0  0.4008530063575492  0.2663459219139908  0.6483752863961575  1.0000
  C   C346      1.0  0.37723368103760585  0.24092381935382962  0.6454101243559993  1.0000
  C   C347      1.0  0.36082765733277516  0.2287436097737479  0.6697021314880506  1.0000
  C   C348      1.0  0.36847086966309645  0.24158658240170966  0.6969412722446485  1.0000
  H   H229      1.0  0.4275553598938291  0.29816737354449213  0.6777953146485487  1.0000
  H   H230      1.0  0.41328062875974153  0.2761887223424679  0.6297687804841268  1.0000
  H   H231      1.0  0.3423056577422229  0.20925161973273826  0.6674901019546162  1.0000
  H   H232      1.0  0.3557721926328738  0.23202975599782438  0.7155777653937977  1.0000
  C   C349      1.0  0.5686083117407914  0.8974752647050733  0.5245101262472133  1.0000
  C   C350      1.0  0.5575688031176742  0.864354687705107  0.5289011528824223  1.0000
  C   C351      1.0  0.5551439639238951  0.8513618762295313  0.5567209614578806  1.0000
  C   C352      1.0  0.5632392882263091  0.8716124877702771  0.5803236241981571  1.0000
  C   C353      1.0  0.5742369754513379  0.9048383352094702  0.5758938654782466  1.0000
  C   C354      1.0  0.5770084784371454  0.9177242401397891  0.5480255534107003  1.0000
  H   H233      1.0  0.5506861690820344  0.8487561390778599  0.510785754263472  1.0000
  H   H234      1.0  0.5464792693783608  0.8258737915686989  0.5598173483290573  1.0000
  H   H235      1.0  0.5810467736221333  0.9205638254641358  0.5939084608381473  1.0000
  H   H236      1.0  0.5858431192634862  0.9432486549112616  0.5447906913553617  1.0000
  C   C355      1.0  0.5077674236627696  0.11460657206649831  0.47328526279278244  1.0000
  C   C356      1.0  0.5227529819563786  0.12527972881572322  0.9898175502457082  1.0000
  C   C357      1.0  0.520328840534347  0.16139690042106836  0.991208736899047  1.0000
  C   C358      1.0  0.5047807701506616  0.17929374762073874  0.5002831623332493  1.0000
  C   C359      1.0  0.47480473272896273  0.16173749268673165  0.49665624692215554  1.0000
  C   C360      1.0  0.47625399079641395  0.12949971290388507  0.4829360351764246  1.0000
  H   H237      1.0  0.5475583160435202  0.11188814335578033  0.9872056345332517  1.0000
  H   H238      1.0  0.5433242967029318  0.17554264498904842  0.9896211464481158  1.0000
  H   H239      1.0  0.45070208671871104  0.17245566010670524  0.505061947198472  1.0000
  H   H240      1.0  0.45320030370686376  0.11550400589101634  0.48079383042950063  1.0000
  C   C361      1.0  0.7126318417279217  0.07217052446462291  0.6993863841290342  1.0000
  C   C362      1.0  0.7478060202798261  0.07145574963463375  0.692992173006469  1.0000
  C   C363      1.0  0.7589324281895176  0.08268042351868976  0.6662683200450709  1.0000
  C   C364      1.0  0.735062508878514  0.0953855068444538  0.646055751294189  1.0000
  C   C365      1.0  0.699965747193491  0.09647209522411804  0.6524661944177884  1.0000
  C   C366      1.0  0.6887608066254778  0.08453754037168748  0.6789806143920131  1.0000
  H   H241      1.0  0.7665740447309489  0.06211181101127772  0.7085239404024747  1.0000
  H   H242      1.0  0.7859837656298422  0.08190071929725828  0.6613235579060254  1.0000
  H   H243      1.0  0.6814257900872556  0.10628558729553172  0.6368380833226431  1.0000
  H   H244      1.0  0.661676484700872  0.08497293067604006  0.6835196137709134  1.0000
  C   C367      1.0  0.5209772617149213  0.15766951559620832  0.7956693546140676  1.0000
  C   C368      1.0  0.5049688552325152  0.18988666930866785  0.8022607556229594  1.0000
  C   C369      1.0  0.4731196938058553  0.19220947216424888  0.8162083034428022  1.0000
  C   C370      1.0  0.45727570486950325  0.16233155429053417  0.8239287321147946  1.0000
  C   C371      1.0  0.47423147214071537  0.13007814293294173  0.8189497159326126  1.0000
  C   C372      1.0  0.5060072433467848  0.12773762597595129  0.8046705632068855  1.0000
  H   H245      1.0  0.5168204450418814  0.21314396221069334  0.7959224593937866  1.0000
  H   H246      1.0  0.4609360340733817  0.21718746346556414  0.8209066217137816  1.0000
  H   H247      1.0  0.46216178643630035  0.10687632154545422  0.8250810716284946  1.0000
  H   H248      1.0  0.5185458089725835  0.1028074881390606  0.8002234468199333  1.0000
  C   C373      1.0  0.5967753742425314  0.9949948109117053  0.8420782898301445  1.0000
  C   C374      1.0  0.6265391998135138  0.013260419252380196  0.8435853365348854  1.0000
  C   C375      1.0  0.6417701155827078  0.0194024126127319  0.870179108594711  1.0000
  C   C376      1.0  0.6273851997748318  0.007125717217719485  0.8953061638762954  1.0000
  C   C377      1.0  0.5983394309204377  0.9878051889557096  0.8936594913010069  1.0000
  C   C378      1.0  0.5829518974127005  0.9818973591460252  0.8670985570191091  1.0000
  H   H249      1.0  0.6380417505981149  0.022378237420133562  0.8242874619112386  1.0000
  H   H250      1.0  0.6644997788662068  0.034011281275472705  0.8713172060918711  1.0000
  H   H251      1.0  0.5877844843963989  0.97742011012547  0.9127834896305264  1.0000
  H   H252      1.0  0.559932118429324  0.9677809386561953  0.8658714784174462  1.0000
  C   C379      1.0  0.5682030552590643  0.03404444185437705  0.645220538070211  1.0000
  C   C380      1.0  0.6020990233701591  0.04372193335968455  0.6469466307794959  1.0000
  C   C381      1.0  0.6215455317873899  0.04675914502169909  0.6219501196292968  1.0000
  C   C382      1.0  0.6072718245726273  0.03973568500833924  0.5952324102446711  1.0000
  C   C383      1.0  0.5737470503743238  0.028948717240778077  0.5936454434247128  1.0000
  C   C384      1.0  0.5541641489380971  0.02623819720111964  0.6185918435582078  1.0000
  H   H253      1.0  0.6133278445094058  0.04911920657192437  0.6674891523091124  1.0000
  H   H254      1.0  0.647564530389455  0.05487954441595955  0.6233134037106524  1.0000
  H   H255      1.0  0.5625583356968715  0.0233404358850251  0.5732439446185851  1.0000
  H   H256      1.0  0.5280075685779634  0.018496056792991267  0.6171922422042532  1.0000
  N   N1        1.0  0.5305720179195885  0.07807358927674168  0.9010376626122516  1.0000
  C   C385      1.0  0.5450966252971781  0.08022053255207551  0.8718958426045642  1.0000
  C   C386      1.0  0.5585651084919878  0.07850596072561666  0.9223484445922424  1.0000
  C   C387      1.0  0.5127947536166723  0.04573883878627005  0.9038849203893303  1.0000
  C   C388      1.0  0.5057832691016935  0.10775316138133051  0.906185385707503  1.0000
  H   H257      1.0  0.5642819779385901  0.05844351609979004  0.867500381370052  1.0000
  H   H258      1.0  0.5583477963432454  0.10451917678161604  0.8688611764869961  1.0000
  H   H259      1.0  0.5247723906848771  0.07935521827688174  0.8552098006288301  1.0000
  H   H260      1.0  0.5484988334398622  0.07606316064396634  0.9444684775022474  1.0000
  H   H261      1.0  0.5780332291521804  0.05678333002238256  0.9189296558040141  1.0000
  H   H262      1.0  0.5722278918707943  0.10278132739748469  0.9213595101329848  1.0000
  H   H263      1.0  0.501556672225684  0.04334914838133419  0.925694189219402  1.0000
  H   H264      1.0  0.5307785219859752  0.022824912063748704  0.9003543971406048  1.0000
  H   H265      1.0  0.4914991010283503  0.0444329333318374  0.8881245831806807  1.0000
  H   H266      1.0  0.49418524088806076  0.10655730338007507  0.927961358053251  1.0000
  H   H267      1.0  0.48444826304939564  0.10842554950367256  0.890290416843365  1.0000
  H   H268      1.0  0.5184369024391074  0.13259042080942596  0.9046827957217836  1.0000
  N   N2        1.0  0.001766970951802893  0.6385712076233453  0.4083566337924977  1.0000
  C   C389      1.0  0.0251344237143587  0.6455744290897956  0.3844210310303412  1.0000
  C   C390      1.0  0.02162725231407614  0.6355045453272525  0.43528475972535247  1.0000
  C   C391      1.0  0.9851570022835124  0.6060389637634909  0.4026897197563984  1.0000
  C   C392      1.0  0.975111361107442  0.6670795311610369  0.4109997702145934  1.0000
  H   H269      1.0  0.038446381747806235  0.6697283409171698  0.38802700419809294  1.0000
  H   H270      1.0  0.011030459574040696  0.6480228189142052  0.36370293173894586  1.0000
  H   H271      1.0  0.04546459932973157  0.6244064333095272  0.38179348827509635  1.0000
  H   H272      1.0  0.005140938080681723  0.6291607162110022  0.4537429877420933  1.0000
  H   H273      1.0  0.04237213816124519  0.6147591014410961  0.4337237371087977  1.0000
  H   H274      1.0  0.03400722774858411  0.6597676659120716  0.44064455280410786  1.0000
  H   H275      1.0  0.004541769450733035  0.5840222408214973  0.40041849829575854  1.0000
  H   H276      1.0  0.9699313673627643  0.6074567881633904  0.38249811353064184  1.0000
  H   H277      1.0  0.967617120519859  0.5996903240099776  0.42045025402135855  1.0000
  H   H278      1.0  0.9569017198153928  0.6623632284993072  0.4287111679698721  1.0000
  H   H279      1.0  0.9597812510633229  0.6702540362851814  0.39096896287977817  1.0000
  H   H280      1.0  0.9866240569521332  0.691968313457228  0.415765081592205  1.0000
  N   N3        1.0  0.19352692043762063  0.5796494017988578  0.8616494813509129  1.0000
  C   C393      1.0  0.18974779731283975  0.6142531968590474  0.874964557220128  1.0000
  C   C394      1.0  0.17761774467371053  0.5806362550303473  0.8328988064372153  1.0000
  C   C395      1.0  0.176387692228537  0.5547894076831497  0.8798045049165213  1.0000
  C   C396      1.0  0.2304113013109876  0.5688914347026193  0.8589258722442501  1.0000
  H   H281      1.0  0.20136477820616672  0.6143569101531965  0.8967471684187369  1.0000
  H   H282      1.0  0.1622061405797365  0.6230986927801068  0.8774252952127328  1.0000
  H   H283      1.0  0.2023483612261605  0.6337704072105478  0.8619661170141136  1.0000
  H   H284      1.0  0.1897951138445566  0.599282135160547  0.818685224204593  1.0000
  H   H285      1.0  0.17988569747070138  0.5549313013387482  0.8222733481544169  1.0000
  H   H286      1.0  0.14977381261515138  0.5886147803067507  0.8340300562811845  1.0000
  H   H287      1.0  0.17853978813921934  0.5284003886270074  0.8704687665710323  1.0000
  H   H288      1.0  0.14855619446026724  0.5622920124612093  0.8824359999712206  1.0000
  H   H289      1.0  0.1878579896504639  0.5534684738505261  0.9016387614893306  1.0000
  H   H290      1.0  0.23418250056375242  0.542783469552886  0.8491572655013032  1.0000
  H   H291      1.0  0.24335389675003036  0.5678868462387722  0.880148073430686  1.0000
  H   H292      1.0  0.24414220367277079  0.5871560079202066  0.8454552079772956  1.0000
  N   N4        1.0  0.5680888994560547  0.08918814765310357  0.37632637810554764  1.0000
  C   C397      1.0  0.5314035622117318  0.08151908056339208  0.3757535754216543  1.0000
  C   C398      1.0  0.5845338025296413  0.07820697254503961  0.34901735649439636  1.0000
  C   C399      1.0  0.5854546917757532  0.07033155929636292  0.40014871170291305  1.0000
  C   C400      1.0  0.5710249329869294  0.12661170392507984  0.38040324492253047  1.0000
  H   H293      1.0  0.528285671973896  0.053469372436003575  0.3726909560486381  1.0000
  H   H294      1.0  0.5174767736903195  0.09534061270656169  0.3580250894105835  1.0000
  H   H295      1.0  0.5182671278515545  0.08927540903280762  0.3961712554824732  1.0000
  H   H296      1.0  0.5816466898776791  0.05035999375544753  0.34459777858548263  1.0000
  H   H297      1.0  0.5731733049863098  0.09291000363299573  0.3306312069140108  1.0000
  H   H298      1.0  0.6125232531230382  0.08231905243344227  0.3492371950207414  1.0000
  H   H299      1.0  0.5844455343069807  0.04202010720656468  0.3971822269117375  1.0000
  H   H300      1.0  0.5731819194305029  0.07721828366370409  0.42108564443805385  1.0000
  H   H301      1.0  0.6130928384891918  0.07592829247797672  0.40165029332285535  1.0000
  H   H302      1.0  0.5983912318963737  0.1333163629501671  0.3805203940370614  1.0000
  H   H303      1.0  0.5591562135255055  0.13568420152076235  0.4009786663329442  1.0000
  H   H304      1.0  0.5580538153562271  0.14159296302419935  0.36278431200546984  1.0000
  N   N5        1.0  0.38801822466051966  0.4256279557111885  0.9754021869022145  1.0000
  C   C401      1.0  0.3606232113432151  0.4179230425745658  0.9548653209154242  1.0000
  C   C402      1.0  0.41400837918854894  0.39638796882481586  0.9763555818816861  1.0000
  C   C403      1.0  0.37293854989786224  0.4312833691395529  0.0042166129360834415  1.0000
  C   C404      1.0  0.4045645607388771  0.45694697651747124  0.9661897587006925  1.0000
  H   H305      1.0  0.34060855801949624  0.4395505755119972  0.9537210229958496  1.0000
  H   H306      1.0  0.3476280059357842  0.3943617026590065  0.9610885033815045  1.0000
  H   H307      1.0  0.3710421901164622  0.41386448775984636  0.9328231960087368  1.0000
  H   H308      1.0  0.43514898523045537  0.4015915007049336  0.9915499038609854  1.0000
  H   H309      1.0  0.4025668011442872  0.372521453560584  0.9838788988816013  1.0000
  H   H310      1.0  0.4256693853612053  0.3909946572914674  0.9549543478230389  1.0000
  H   H311      1.0  0.39270341895861804  0.43847930039696853  0.02004136218755685  1.0000
  H   H312      1.0  0.3615984601506693  0.4076749815911725  0.012459485899566601  1.0000
  H   H313      1.0  0.35240288820359206  0.452458790373267  0.0042038322724400334  1.0000
  H   H314      1.0  0.42526410416642385  0.4636704012306612  0.9812763457946735  1.0000
  H   H315      1.0  0.3857544358383933  0.47951720001215603  0.9655129943539057  1.0000
  H   H316      1.0  0.4158945072318705  0.453850047170915  0.9443790811979615  1.0000
  N   N6        1.0  0.48239009213783435  0.19251662605834655  0.21269006559527986  1.0000
  C   C405      1.0  0.4446781887796342  0.1902386659170932  0.21195814751447686  1.0000
  C   C406      1.0  0.49463077999047605  0.18864006265082242  0.24251605347337638  1.0000
  C   C407      1.0  0.4912136062604884  0.22642942427591142  0.2016141230285106  1.0000
  C   C408      1.0  0.49894648753842685  0.1648137238784802  0.19473166676629275  1.0000
  H   H317      1.0  0.4315334167359777  0.21062515907722928  0.2255507721675666  1.0000
  H   H318      1.0  0.4369708348624899  0.1649228803599157  0.21998070078582393  1.0000
  H   H319      1.0  0.4343986431068244  0.1935719739261201  0.1898157701204376  1.0000
  H   H320      1.0  0.5230637971848551  0.18994139106443628  0.24400735151136457  1.0000
  H   H321      1.0  0.482772453807608  0.2092022996176376  0.2566799194020474  1.0000
  H   H322      1.0  0.4880902185228338  0.16344526279161428  0.25158702660181287  1.0000
  H   H323      1.0  0.4818584508351177  0.23044923788003177  0.1792690253625714  1.0000
  H   H324      1.0  0.5194886886216771  0.22905563164793263  0.20165283230226722  1.0000
  H   H325      1.0  0.4792949238949669  0.24790157464293852  0.21481733900128686  1.0000
  H   H326      1.0  0.5274658290432716  0.16571330688823566  0.19484713114702368  1.0000
  H   H327      1.0  0.4902667798451767  0.16691449501142036  0.17205518308416318  1.0000
  H   H328      1.0  0.4929093448152874  0.13881787148668284  0.20250980128233786  1.0000
  N   N7        1.0  0.7023862043349264  0.7798151869422096  0.8443189316313474  1.0000
  C   C409      1.0  0.6743556337286657  0.769376000777875  0.8254414696943413  1.0000
  C   C410      1.0  0.6881273380307334  0.7906992917560148  0.8724376644348034  1.0000
  C   C411      1.0  0.7193794272998393  0.8088568722960366  0.8312837918782401  1.0000
  C   C412      1.0  0.7276339037163199  0.7502778554504947  0.848172131964369  1.0000
  H   H329      1.0  0.6842443044930456  0.7613845761622066  0.8039220849496796  1.0000
  H   H330      1.0  0.6544171126781811  0.7907681490032935  0.8223433236605979  1.0000
  H   H331      1.0  0.6613563260988518  0.7471087229819994  0.8345309772514216  1.0000
  H   H332      1.0  0.708750334555282  0.7972033240723254  0.8877257061585174  1.0000
  H   H333      1.0  0.6696885564899074  0.8135137125538703  0.8705269303082656  1.0000
  H   H334      1.0  0.6740992486890501  0.7698037323998447  0.882228663389603  1.0000
  H   H335      1.0  0.7011827806749109  0.8317666804589182  0.8285948945749315  1.0000
  H   H336      1.0  0.7297342910229929  0.8018425245248845  0.8097131795346755  1.0000
  H   H337      1.0  0.7412480286098703  0.8167488034475735  0.8446802857980182  1.0000
  H   H338      1.0  0.7482583453812082  0.7565293057269069  0.8634972237732672  1.0000
  H   H339      1.0  0.740119429758784  0.742370368869337  0.8275291051641315  1.0000
  H   H340      1.0  0.7152331589754574  0.7274338140214014  0.8568254442690382  1.0000
  N   N8        1.0  0.7781986131593154  0.9680451493928  0.6805973370010284  1.0000
  C   C413      1.0  0.7606592014728312  0.9713034496437123  0.708626486357352  1.0000
  C   C414      1.0  0.7551215595390417  0.9825373395191813  0.6579876903385583  1.0000
  C   C415      1.0  0.7871536864641826  0.9312693220060637  0.6743095972412195  1.0000
  C   C416      1.0  0.8098977872669575  0.9870763048682789  0.6814810651817185  1.0000
  H   H341      1.0  0.7774900130961389  0.960764526538511  0.7261804659288262  1.0000
  H   H342      1.0  0.7366802702527436  0.9571854863654092  0.7088760403432613  1.0000
  H   H343      1.0  0.7533908324869008  0.9987221422565761  0.7139634553930763  1.0000
  H   H344      1.0  0.7676928285361717  0.980990537834066  0.6366017808430211  1.0000
  H   H345      1.0  0.7310163808402427  0.9686674816842283  0.6566499954591509  1.0000
  H   H346      1.0  0.747517788291342  0.010145345995203892  0.6621479488021873  1.0000
  H   H347      1.0  0.7639857474870472  0.9158738446363018  0.6739978620106908  1.0000
  H   H348      1.0  0.8049623760048674  0.9196687720811458  0.6907001009700182  1.0000
  H   H349      1.0  0.800093365304867  0.9277712216668335  0.6531906100047609  1.0000
  H   H350      1.0  0.8243401708749698  0.9846009418676769  0.6610112770321589  1.0000
  H   H351      1.0  0.8276912382128374  0.9773897263556777  0.6987197188205944  1.0000
  H   H352      1.0  0.8042224713144794  0.01504404761433853  0.6855591835028851  1.0000
  N   N9        1.0  0.3990803924232904  0.4001326398467004  0.28876666917885807  1.0000
  C   C417      1.0  0.3957192575871812  0.3928647806058653  0.25780610610527044  1.0000
  C   C418      1.0  0.421096445379733  0.37248192735199753  0.30223743308189266  1.0000
  C   C419      1.0  0.364765022460649  0.4017567911526566  0.30234285414027684  1.0000
  C   C420      1.0  0.4147214004767454  0.43350314416420976  0.2928211467527035  1.0000
  H   H353      1.0  0.37906047855288094  0.4131321891521331  0.24696044897644606  1.0000
  H   H354      1.0  0.3845792128180196  0.3675622773360363  0.2539233105929378  1.0000
  H   H355      1.0  0.4211046216837759  0.3919531066725643  0.24676906630383919  1.0000
  H   H356      1.0  0.42389816695400384  0.377081514805045  0.32566951522573756  1.0000
  H   H357      1.0  0.4099294340375135  0.3469741815223884  0.29968633780327325  1.0000
  H   H358      1.0  0.4472334037129243  0.37047233755848785  0.2925835667459495  1.0000
  H   H359      1.0  0.3523760350031998  0.3768495916163887  0.3003364402652003  1.0000
  H   H360      1.0  0.3473394324665681  0.4221686920524636  0.2925423798636859  1.0000
  H   H361      1.0  0.3664600693660561  0.40759611071863744  0.3256840343949281  1.0000
  H   H362      1.0  0.4172533990530855  0.4399954082865678  0.3159779969045967  1.0000
  H   H363      1.0  0.398740712371556  0.45487238496216653  0.2828384304429547  1.0000
  H   H364      1.0  0.4407215216827964  0.4333491142021759  0.28298743269776155  1.0000
  N   N10       1.0  0.9327470254727186  0.14248705269654918  0.690981437410387  1.0000
  C   C421      1.0  0.9312765938978741  0.115372914829445  0.6688421904351567  1.0000
  C   C422      1.0  0.9424592736479686  0.12652274552985585  0.718696346681097  1.0000
  C   C423      1.0  0.8986450750878788  0.16104800879576534  0.6935374880097839  1.0000
  C   C424      1.0  0.9585601616062439  0.16694607536058637  0.682709299293248  1.0000
  H   H365      1.0  0.9226862201486079  0.1264127948759227  0.6479428056149231  1.0000
  H   H366      1.0  0.9129249491777793  0.09582843224342708  0.6747325778958762  1.0000
  H   H367      1.0  0.9568097645479207  0.10151412187883357  0.6655535427774164  1.0000
  H   H368      1.0  0.9236008931986653  0.10776200172491643  0.7253937850182811  1.0000
  H   H369      1.0  0.9680688610438856  0.11227625149985104  0.7174539650191335  1.0000
  H   H370      1.0  0.9434604787008036  0.14613353963021639  0.7360522486666948  1.0000
  H   H371      1.0  0.8986130044316823  0.18152520809042244  0.7102639443324387  1.0000
  H   H372      1.0  0.8785181067409583  0.1432572961493638  0.6994302024104341  1.0000
  H   H373      1.0  0.8906290939370171  0.17346381932726812  0.672948568149052  1.0000
  H   H374      1.0  0.9603753404441434  0.18793004362535476  0.6988001641843907  1.0000
  H   H375      1.0  0.9520739806078322  0.17920727186903251  0.6617479601509225  1.0000
  H   H376      1.0  0.9846477300378041  0.15380573492132396  0.6804741695510145  1.0000
  N   N11       1.0  0.20318991415073587  0.609473322198951  0.12218690650974376  1.0000
  C   C425      1.0  0.21025531794309885  0.5911307900040261  0.0948275828845719  1.0000
  C   C426      1.0  0.17296720564118415  0.6339433105602558  0.11879687394047475  1.0000
  C   C427      1.0  0.2332861604638794  0.6287129641525422  0.1303963397363412  1.0000
  C   C428      1.0  0.1962639406702159  0.584174857375302  0.1446705688953728  1.0000
  H   H377      1.0  0.2317460567194492  0.5711625729491033  0.09696390307579482  1.0000
  H   H378      1.0  0.2173082118202451  0.6091570418610295  0.07769230261103637  1.0000
  H   H379      1.0  0.18737823946408155  0.5779991463519247  0.08708598405535763  1.0000
  H   H380      1.0  0.16621232670074765  0.6475444855810388  0.13920676987114783  1.0000
  H   H381      1.0  0.17776813399623892  0.6538264401903088  0.10242192956899031  1.0000
  H   H382      1.0  0.15006336770677642  0.6206135804170657  0.1114531170905196  1.0000
  H   H383      1.0  0.22891112266693509  0.6426673012750463  0.15103968885296565  1.0000
  H   H384      1.0  0.2392515868942057  0.6479297564345973  0.11381438427299366  1.0000
  H   H385      1.0  0.2566662105993424  0.6111993419449023  0.13301951024565523  1.0000
  H   H386      1.0  0.19061096027703484  0.5969810882707323  0.16564512450789737  1.0000
  H   H387      1.0  0.21879428343022234  0.5655504947038232  0.14787519807590005  1.0000
  H   H388      1.0  0.1739362048348668  0.5689699336957087  0.1389480811547235  1.0000
  N   N12       1.0  0.38213359247100337  0.3818760879637072  0.7600625062523186  1.0000
  C   C429      1.0  0.3516151778309584  0.39227420459444895  0.7775560714618688  1.0000
  C   C430      1.0  0.4040514219427266  0.3559850284625209  0.775751315651573  1.0000
  C   C431      1.0  0.4018225532335767  0.41239189100597207  0.7542766223247803  1.0000
  C   C432      1.0  0.37109294804125725  0.3669039067309616  0.7326387326880596  1.0000
  H   H389      1.0  0.33622545708641394  0.36980749641237076  0.7823898052740164  1.0000
  H   H390      1.0  0.3345644751452362  0.41187577481789117  0.7663144358776117  1.0000
  H   H391      1.0  0.35909091192008435  0.40372479080487744  0.7983920070553003  1.0000
  H   H392      1.0  0.427055434277609  0.34720253395254064  0.7629111191235037  1.0000
  H   H393      1.0  0.41308842500358284  0.36637749826018495  0.7964763472858613  1.0000
  H   H394      1.0  0.3898947234656708  0.332685850746505  0.7805444878410884  1.0000
  H   H395      1.0  0.4247605499741543  0.40557571712919444  0.7406905790331716  1.0000
  H   H396      1.0  0.41081312060344427  0.4243527726930875  0.7743873285760731  1.0000
  H   H397      1.0  0.38591989770889806  0.43236928326264257  0.7424441472799371  1.0000
  H   H398      1.0  0.39358033517269575  0.3588317405825289  0.7188949491475822  1.0000
  H   H399      1.0  0.35480997509873174  0.385820718129999  0.720006400813234  1.0000
  H   H400      1.0  0.35631021718644534  0.3436591641637408  0.736039524703231  1.0000
  N   N13       1.0  0.06397276607046705  0.25891806125538497  0.022146344306233523  1.0000
  C   C433      1.0  0.0823285075695977  0.2617605354325159  0.04965738645317286  1.0000
  C   C434      1.0  0.045226441304074605  0.2921374760103377  0.01566249770748329  1.0000
  C   C435      1.0  0.03930257125986535  0.2316133158626379  0.024172997035661226  1.0000
  C   C436      1.0  0.08900428052162376  0.2502135232150524  0.9990597027048036  1.0000
  H   H401      1.0  0.09687418133581428  0.2371841924884328  0.05526588891922346  1.0000
  H   H402      1.0  0.06425531573660415  0.26819289106766364  0.06760201261189325  1.0000
  H   H403      1.0  0.10098002219626079  0.2822875679509347  0.04893373195696227  1.0000
  H   H404      1.0  0.02635305737084592  0.29970576388855075  0.03277936566807904  1.0000
  H   H405      1.0  0.06317436944035673  0.31325253845445356  0.013810371124178156  1.0000
  H   H406      1.0  0.030859284085420265  0.2908006633906799  0.9950839483044839  1.0000
  H   H407      1.0  0.025522376679753656  0.22844794150443715  0.0035084816079604675  1.0000
  H   H408      1.0  0.019670588300835026  0.23771530642939398  0.04105736497803014  1.0000
  H   H409      1.0  0.05255515100686891  0.20635817652517896  0.029755269695627584  1.0000
  H   H410      1.0  0.10382100687941939  0.22540761973263157  0.0032823189515076567  1.0000
  H   H411      1.0  0.10791050773569795  0.2703736205248142  0.9968267923990299  1.0000
  H   H412      1.0  0.07600012031157283  0.24784664094242692  0.9779593372555317  1.0000
  N   N14       1.0  0.8717765719231143  0.92613609056818  0.9494217193940732  1.0000
  C   C437      1.0  0.834902225104484  0.9194284187320982  0.9507202448522953  1.0000
  C   C438      1.0  0.8925257900840532  0.8932419467027828  0.9521845897055071  1.0000
  C   C439      1.0  0.8801992146534062  0.9494757926980336  0.9731460241198941  1.0000
  C   C440      1.0  0.8793975666851228  0.9422271779890814  0.9216963842862974  1.0000
  H   H413      1.0  0.8283436839961488  0.9074307558107366  0.971488567583108  1.0000
  H   H414      1.0  0.8277337185242539  0.9015907054154825  0.9332585787393758  1.0000
  H   H415      1.0  0.8184039701238518  0.9436251715236996  0.9485027750818311  1.0000
  H   H416      1.0  0.9205192347305471  0.8972617575207356  0.9513543453266639  1.0000
  H   H417      1.0  0.8872917448221638  0.8803448569789813  0.9728542408738846  1.0000
  H   H418      1.0  0.8866970023741568  0.8750141810285056  0.9346254695973957  1.0000
  H   H419      1.0  0.8646467662683427  0.9744014960231936  0.9719792973810147  1.0000
  H   H420      1.0  0.9077767537744004  0.9553810467761563  0.9727274390890828  1.0000
  H   H421      1.0  0.8750745025377313  0.9378257781074857  0.99438595286581  1.0000
  H   H422      1.0  0.8644116750209985  0.9672493638817189  0.9188218805141829  1.0000
  H   H423      1.0  0.8731707939734429  0.9252968013895421  0.9033015738762824  1.0000
  H   H424      1.0  0.9070883623465097  0.947420562267255  0.9197696550015346  1.0000
  N   N15       1.0  0.26413659269594836  0.24863519140158585  0.5959975369896058  1.0000
  C   C441      1.0  0.2859350686084718  0.25027900070764797  0.5701934784546784  1.0000
  C   C442      1.0  0.22795209305996075  0.25778138494816144  0.5882385335154813  1.0000
  C   C443      1.0  0.27560483596986185  0.2730858105810996  0.617834912405654  1.0000
  C   C444      1.0  0.26710168824219344  0.21335937248834122  0.6077828341376023  1.0000
  H   H425      1.0  0.3133492882697884  0.24321337174259686  0.5751713314182204  1.0000
  H   H426      1.0  0.28474841246169824  0.2766483704643029  0.5609437224067753  1.0000
  H   H427      1.0  0.27792281065129715  0.23226428515915595  0.5532144761563053  1.0000
  H   H428      1.0  0.2247861260134414  0.28426000111005056  0.5793156616365833  1.0000
  H   H429      1.0  0.21834254086980212  0.23966783529567084  0.5720018690631954  1.0000
  H   H430      1.0  0.21073017421545698  0.25693004924572094  0.6071835439619594  1.0000
  H   H431      1.0  0.2740894883590799  0.29998202796164314  0.6097409671690441  1.0000
  H   H432      1.0  0.3027448917194083  0.26664965506757965  0.624350522745183  1.0000
  H   H433      1.0  0.25944147370664494  0.27255691348894034  0.6374999190105285  1.0000
  H   H434      1.0  0.29414424573347187  0.20574360429625552  0.6138656412076217  1.0000
  H   H435      1.0  0.258592621385747  0.19410191541431013  0.5920399810223532  1.0000
  H   H436      1.0  0.2510509199118949  0.21129905216787415  0.6273719974378478  1.0000
  N   N16       1.0  0.5290726128086771  0.6845047395628612  0.750255813216786  1.0000
  C   C445      1.0  0.5582199542172658  0.6645787284070152  0.7637009988559809  1.0000
  C   C446      1.0  0.5385438022353038  0.6939154046621129  0.7207975938705142  1.0000
  C   C447      1.0  0.520697203021154  0.7161962097182835  0.767092580855659  1.0000
  C   C448      1.0  0.49887800468971083  0.6632523483176005  0.7495307077139104  1.0000
  H   H437      1.0  0.551797650762157  0.656795206167653  0.7859066005878562  1.0000
  H   H438      1.0  0.5814533336901586  0.6797940173297007  0.7647733108686928  1.0000
  H   H439      1.0  0.5652998091490795  0.6405586960149726  0.75147004616345  1.0000
  H   H440      1.0  0.5166569800434637  0.7076059657117941  0.7094311043268028  1.0000
  H   H441      1.0  0.5602288788031666  0.7112178941948806  0.7207233560235576  1.0000
  H   H442      1.0  0.5468172822264633  0.67077061987652  0.7079085181258946  1.0000
  H   H443      1.0  0.4989386405431511  0.7319293039739676  0.7574185515858302  1.0000
  H   H444      1.0  0.5430239302264628  0.7327181069770504  0.7684005112939253  1.0000
  H   H445      1.0  0.5132677158821601  0.7100510388556394  0.7894205679867784  1.0000
  H   H446      1.0  0.5049365439394717  0.6381416378511903  0.7385903323235753  1.0000
  H   H447      1.0  0.4768671473562786  0.6764950697307197  0.7380295696087952  1.0000
  H   H448      1.0  0.49017337091383983  0.6572391712353519  0.7715397770594553  1.0000
  N   N17       1.0  0.9746853983626768  0.18540794998553922  0.33999906255618756  1.0000
  C   C449      1.0  0.9978914131426793  0.1668394166523245  0.36049784969308235  1.0000
  C   C450      1.0  0.9615014007532695  0.16058612672528214  0.319244612476379  1.0000
  C   C451      1.0  0.9938037845946982  0.21145476737387217  0.3247524862516096  1.0000
  C   C452      1.0  0.9455132094586506  0.2027352233093725  0.3556397496247627  1.0000
  H   H449      1.0  0.007690585709370756  0.18467691635028197  0.3768776921889039  1.0000
  H   H450      1.0  0.020609814489351175  0.15403527303138262  0.3495619598337092  1.0000
  H   H451      1.0  0.9845390683098961  0.14649640673383096  0.3720372089238166  1.0000
  H   H452      1.0  0.9827389328356414  0.1469138327148668  0.3070501609183045  1.0000
  H   H453      1.0  0.9469790251958584  0.1406372371739574  0.3302305817352557  1.0000
  H   H454      1.0  0.9435031336147656  0.1735278807484347  0.30360691624800556  1.0000
  H   H455      1.0  0.9771963601674197  0.22610387369046456  0.30910727782799696  1.0000
  H   H456      1.0  0.016272181076906422  0.19943558116070398  0.31289994985041913  1.0000
  H   H457      1.0  0.004078702221836927  0.23049370148125084  0.33994255173091703  1.0000
  H   H458      1.0  0.9306910681474961  0.1838280987115032  0.36757003046580844  1.0000
  H   H459      1.0  0.9273202627878111  0.21682739167673606  0.34084512716793397  1.0000
  H   H460      1.0  0.9544522716084534  0.22179306336988258  0.3714542888814778  1.0000
  N   N18       1.0  0.7702157834921765  0.058292385633015524  0.8030912317644897  1.0000
  C   C453      1.0  0.7381141992933766  0.04033623709622458  0.8066276938948553  1.0000
  C   C454      1.0  0.7993833213961442  0.032611608297999695  0.7989342264340838  1.0000
  C   C455      1.0  0.7763237685407339  0.07930669981955418  0.8288382587461693  1.0000
  C   C456      1.0  0.7670080510303634  0.08099013691846846  0.7778396623956833  1.0000
  H   H461      1.0  0.7395575874607355  0.022792086318047966  0.8253969607899913  1.0000
  H   H462      1.0  0.7325834552555031  0.024711507706604238  0.7872987570653406  1.0000
  H   H463      1.0  0.7155522554805824  0.05895288607195681  0.8097661028210099  1.0000
  H   H464      1.0  0.7956954204981743  0.016230037074735026  0.7797145699402598  1.0000
  H   H465      1.0  0.8239564578251687  0.045283239109938034  0.7959188338937022  1.0000
  H   H466      1.0  0.8028989687532879  0.015222225434626369  0.8177017494756404  1.0000
  H   H467      1.0  0.8003136049946945  0.09333462842705909  0.8266452653619075  1.0000
  H   H468      1.0  0.7791474825814745  0.06308516034277378  0.8483638464657917  1.0000
  H   H469      1.0  0.7548409203036007  0.09897668431107864  0.8325847446682388  1.0000
  H   H470      1.0  0.7896772385482764  0.09672686370661854  0.7754608628121443  1.0000
  H   H471      1.0  0.7438029164358627  0.09907961406579946  0.7791796505027926  1.0000
  H   H472      1.0  0.7648417703691937  0.06578895388633033  0.7578602255327976  1.0000
  N   N19       1.0  0.7263086387834814  0.06569062066166476  0.5183380196293602  1.0000
  C   C457      1.0  0.7274194415700203  0.07606444953807356  0.5487785325138167  1.0000
  C   C458      1.0  0.6947135004115432  0.08113271098450348  0.5049876921807246  1.0000
  C   C459      1.0  0.726350394493537  0.027755066010320517  0.516297807782916  1.0000
  C   C460      1.0  0.7566782193929197  0.0777663050000923  0.503326648597578  1.0000
  H   H473      1.0  0.7508670737355798  0.06471696884416  0.5596110001159221  1.0000
  H   H474      1.0  0.704782432140543  0.06762364846894187  0.5608699978833986  1.0000
  H   H475      1.0  0.7276341539440851  0.10454119828674391  0.5512766404495498  1.0000
  H   H476      1.0  0.6927356558717682  0.07319597144658463  0.4821090926701028  1.0000
  H   H477      1.0  0.6714396066544335  0.07295156161581451  0.5162424044738719  1.0000
  H   H478      1.0  0.6939851821149544  0.10975686310636587  0.5058197258654452  1.0000
  H   H479      1.0  0.7255632319336826  0.019008240272095467  0.4935509378824081  1.0000
  H   H480      1.0  0.7036357706241881  0.017942281703986263  0.5274081643102885  1.0000
  H   H481      1.0  0.7498369760426982  0.015278584120187011  0.5262952728328947  1.0000
  H   H482      1.0  0.756909430126447  0.07002305321399849  0.4803240897567734  1.0000
  H   H483      1.0  0.7809412429292253  0.06689993145748963  0.5131181429161831  1.0000
  H   H484      1.0  0.7573868822291738  0.1063088603990434  0.5043199699313731  1.0000
  N   N20       1.0  0.9902444165939913  0.1419526495048386  0.17694796832341952  1.0000
  C   C461      1.0  0.9906201583222973  0.12797986796999145  0.20632466993598256  1.0000
  C   C462      1.0  0.01475531620101056  0.16941891565480163  0.17497223069093862  1.0000
  C   C463      1.0  0.9552980145827783  0.15636137717336973  0.16996960843151696  1.0000
  C   C464      1.0  0.00023179309812282334  0.1139719337737463  0.15651037183979402  1.0000
  H   H485      1.0  0.9821026113570294  0.1480496735089137  0.2222706447939594  1.0000
  H   H486      1.0  0.016785897528854843  0.11755594503792327  0.2124854373686848  1.0000
  H   H487      1.0  0.9730926090380778  0.10652722496998834  0.2082827764948252  1.0000
  H   H488      1.0  0.00856745022414196  0.19053386823851565  0.19064130620315733  1.0000
  H   H489      1.0  0.041671767414876104  0.15933367186042616  0.1789463585945167  1.0000
  H   H490      1.0  0.014218415281622265  0.1812347007072887  0.15337384711346702  1.0000
  H   H491      1.0  0.9538891437064125  0.1666702894759735  0.14775629789946454  1.0000
  H   H492      1.0  0.9469066726425958  0.17777390026387369  0.18473212890662918  1.0000
  H   H493      1.0  0.9361847578203409  0.13637386270545301  0.1716166534413442  1.0000
  H   H494      1.0  0.9999042166211594  0.12344569897589035  0.1341061087125076  1.0000
  H   H495      1.0  0.9822897570885875  0.09274263325707377  0.15757969607358693  1.0000
  H   H496      1.0  0.026561866676961143  0.10259623351302327  0.16094996642368273  1.0000
  N   N21       1.0  0.9030288483684218  0.7645978098857777  0.1093513707866066  1.0000
  C   C465      1.0  0.9305467268159605  0.7367649156353289  0.10874997003074645  1.0000
  C   C466      1.0  0.8763642721423901  0.7558940187606856  0.13015124742943238  1.0000
  C   C467      1.0  0.8873604237809015  0.7687060959775105  0.08063376239595273  1.0000
  C   C468      1.0  0.9179404592106967  0.7970942221883641  0.11805268886356039  1.0000
  H   H497      1.0  0.9209721822533778  0.7121204246395186  0.10067784647120086  1.0000
  H   H498      1.0  0.9416715854370926  0.7321185933314598  0.13044717043140625  1.0000
  H   H499      1.0  0.9520138062733452  0.7434117578051301  0.0945197746108332  1.0000
  H   H500      1.0  0.85548218037815  0.776670527582069  0.13157809021784475  1.0000
  H   H501      1.0  0.8642121233886212  0.7317864842912926  0.12397136904872531  1.0000
  H   H502      1.0  0.8872556693610859  0.7523057200225519  0.15203188133789128  1.0000
  H   H503      1.0  0.8645854611235577  0.7873013081812007  0.08111610623313258  1.0000
  H   H504      1.0  0.878584954813633  0.7439116336908596  0.07215153941162797  1.0000
  H   H505      1.0  0.9056001273590086  0.7787111381873361  0.06486292536050245  1.0000
  H   H506      1.0  0.9299395640915373  0.7948513190233825  0.139672357628937  1.0000
  H   H507      1.0  0.8980506997069941  0.8187624547368965  0.11872584581626452  1.0000
  H   H508      1.0  0.9381258976854446  0.804457423348046  0.10278773448828435  1.0000
  N   N22       1.0  0.07348911720337581  0.42911688600294734  0.47975650424440497  1.0000
  C   C469      1.0  0.05391853239036104  0.39979571182940093  0.4701707955553575  1.0000
  C   C470      1.0  0.08041189532231074  0.4511039399206601  0.4549234460644844  1.0000
  C   C471      1.0  0.10638999325237464  0.4160253554791763  0.4925458589932616  1.0000
  C   C472      1.0  0.05322724032667492  0.4494960077947316  0.5013251898133088  1.0000
  H   H509      1.0  0.06916630122592249  0.38316657896917217  0.45478957845817314  1.0000
  H   H510      1.0  0.029805353359684705  0.4087471910930725  0.45894356443450707  1.0000
  H   H511      1.0  0.04681776527456294  0.3833673219543032  0.48838137894605793  1.0000
  H   H512      1.0  0.09475878284910433  0.47382406634194507  0.4613130708024908  1.0000
  H   H513      1.0  0.09559822613849778  0.43655734063760343  0.4381516558448034  1.0000
  H   H514      1.0  0.05608736205362019  0.4611462836172453  0.44460291938383856  1.0000
  H   H515      1.0  0.12186403663456202  0.43757451424022226  0.4998224008584545  1.0000
  H   H516      1.0  0.122195463406364  0.4003220810023934  0.476846409287299  1.0000
  H   H517      1.0  0.10210018007776944  0.39942143201309527  0.511409773564354  1.0000
  H   H518      1.0  0.06738381967322304  0.47171688883060514  0.5092053987902625  1.0000
  H   H519      1.0  0.04710660880992301  0.43367674463343486  0.5202235259857756  1.0000
  H   H520      1.0  0.02851565970001957  0.46034191630626764  0.4921613236555253  1.0000
  N   N23       1.0  0.7649992527289857  0.09438091173200891  0.32382909991070413  1.0000
  C   C473      1.0  0.7907277945440945  0.10349272615976934  0.30232588597987525  1.0000
  C   C474      1.0  0.7333001386902847  0.11677254081861091  0.32023368891815956  1.0000
  C   C475      1.0  0.7789079546294158  0.09929750421455963  0.3529017694971307  1.0000
  C   C476      1.0  0.7570620831361325  0.05795598223602027  0.31986737133206994  1.0000
  H   H521      1.0  0.8147302815776473  0.08661176330360587  0.3040292555031528  1.0000
  H   H522      1.0  0.7981072215970654  0.13053578795267676  0.3050299198406546  1.0000
  H   H523      1.0  0.7807910821150217  0.10086971050348303  0.28013106325107084  1.0000
  H   H524      1.0  0.7132317677245872  0.11036064825300795  0.3359428500569013  1.0000
  H   H525      1.0  0.7383973571076548  0.14443578544821595  0.3230363356907559  1.0000
  H   H526      1.0  0.7221770943827603  0.11390380083334209  0.29847290425940454  1.0000
  H   H527      1.0  0.7604567964497403  0.0921217539662087  0.36975133682103684  1.0000
  H   H528      1.0  0.7852157830653584  0.12646842008417822  0.3567153777099163  1.0000
  H   H529      1.0  0.8028939642678885  0.08298241129423256  0.35635087880126903  1.0000
  H   H530      1.0  0.7379823843464393  0.05002796168606083  0.3358798640479351  1.0000
  H   H531      1.0  0.7804974097691044  0.04037942211794099  0.32234386596588605  1.0000
  H   H532      1.0  0.7462114768254066  0.05345772769986178  0.298187356521131  1.0000
  N   N24       1.0  0.414602443041629  0.21529708262649672  0.9186468944027048  1.0000
  C   C477      1.0  0.38223852958678983  0.1979690552762666  0.9144240299964689  1.0000
  C   C478      1.0  0.4186962903796611  0.24037850025326754  0.8953955940582959  1.0000
  C   C479      1.0  0.44396060493310047  0.18938949274241976  0.918368930416633  1.0000
  C   C480      1.0  0.4135209572766394  0.23350488126505575  0.946469327875583  1.0000
  H   H533      1.0  0.37817041382649585  0.17905605317476078  0.9317204791052569  1.0000
  H   H534      1.0  0.3822189432554198  0.18384694772540047  0.8936186872299704  1.0000
  H   H535      1.0  0.3596122548750964  0.2168529657809579  0.9144375018279912  1.0000
  H   H536      1.0  0.39687100727266156  0.2602128888050908  0.8949410701767426  1.0000
  H   H537      1.0  0.4427568401876959  0.2540929666876439  0.8979890730549729  1.0000
  H   H538      1.0  0.4197342195848927  0.22744781833871797  0.8740812406487899  1.0000
  H   H539      1.0  0.44589384105514385  0.17555114246429498  0.8974451722426912  1.0000
  H   H540      1.0  0.44137719097721856  0.16986593742122438  0.9354782054531744  1.0000
  H   H541      1.0  0.46868414082635557  0.20162018776268015  0.9222292095891066  1.0000
  H   H542      1.0  0.43752182673237233  0.24697977600015825  0.95034584782309  1.0000
  H   H543      1.0  0.4106918478454378  0.2153942299967196  0.9645441135445666  1.0000
  H   H544      1.0  0.39157699199883855  0.25305350049104575  0.9476043250373701  1.0000
  N   N25       1.0  0.5645579694706782  0.8850955002724943  0.40325925754292974  1.0000
  C   C481      1.0  0.5410925067906132  0.8761584593179856  0.42658788784655327  1.0000
  C   C482      1.0  0.5457822466438068  0.9079403397909057  0.38261359072010054  1.0000
  C   C483      1.0  0.5776976542322703  0.8533333874099621  0.38845330346454726  1.0000
  C   C484      1.0  0.5937143262358693  0.9028949276396532  0.41540487456594133  1.0000
  H   H545      1.0  0.5546398429363298  0.8595489411049366  0.44291859425830227  1.0000
  H   H546      1.0  0.5192895931712682  0.8616991876917269  0.4184136381799667  1.0000
  H   H547      1.0  0.5302425379161549  0.8995484553625182  0.43800898730549753  1.0000
  H   H548      1.0  0.562678653807328  0.9149987815486416  0.3646006569792595  1.0000
  H   H549      1.0  0.5235453169173819  0.8952094441744692  0.3731625010467428  1.0000
  H   H550      1.0  0.5356698709946612  0.9322765599397633  0.3930631296692094  1.0000
  H   H551      1.0  0.5949380944673156  0.859047201715378  0.3703110985908907  1.0000
  H   H552      1.0  0.5563252070161447  0.8386882220005388  0.37965113265341477  1.0000
  H   H553      1.0  0.5924798214567308  0.8357942695629567  0.40336703604044144  1.0000
  H   H554      1.0  0.6122858093885678  0.9096065879347737  0.39853186225163156  1.0000
  H   H555      1.0  0.6079446509142904  0.8865738102659927  0.43152548706762756  1.0000
  H   H556      1.0  0.5846915443110351  0.927065415379972  0.4265936028099856  1.0000
  N   N26       1.0  0.6992440056502078  0.7633924668110382  0.282680609469462  1.0000
  C   C485      1.0  0.6855132530630711  0.746686034854608  0.2569735966512942  1.0000
  C   C486      1.0  0.671204786273137  0.770883424700192  0.30348157144703103  1.0000
  C   C487      1.0  0.7142483548377286  0.7959021483306147  0.2743575817441302  1.0000
  C   C488      1.0  0.7260031075562987  0.7400608422275339  0.29593740175835775  1.0000
  H   H557      1.0  0.7060204139964198  0.7410105692144728  0.24073845380619108  1.0000
  H   H558      1.0  0.6649526943408368  0.7634388163052144  0.2465964502914237  1.0000
  H   H559      1.0  0.6743442771534711  0.7218565957329112  0.26240387337751847  1.0000
  H   H560      1.0  0.6807624877870538  0.7834469936413225  0.3231525639522811  1.0000
  H   H561      1.0  0.650227516530255  0.7881330703104  0.294232806418477  1.0000
  H   H562      1.0  0.6596330562450802  0.7468360774979521  0.31038829985213323  1.0000
  H   H563      1.0  0.7347567710283726  0.791302212903711  0.2579384538477505  1.0000
  H   H564      1.0  0.7263107077439278  0.8084513970991588  0.29299983207275493  1.0000
  H   H565      1.0  0.6944814424642026  0.8145737799893739  0.26522880864195497  1.0000
  H   H566      1.0  0.7373714500988097  0.752128473105025  0.31510235686630883  1.0000
  H   H567      1.0  0.7474325238081333  0.7334332722039493  0.2807580577437461  1.0000
  H   H568      1.0  0.7153707981932604  0.7155782695657577  0.30309007532168875  1.0000
  N   N27       1.0  0.015156191117228435  0.2268589487254539  0.5237426776087397  1.0000
  C   C489      1.0  0.03196415345042447  0.24141761902186679  0.49855949232197827  1.0000
  C   C490      1.0  0.9887509180983661  0.20359552970231645  0.514085564962583  1.0000
  C   C491      1.0  0.998810103736389  0.2552156469998737  0.5410896714842546  1.0000
  C   C492      1.0  0.0411761434254001  0.2073441469835999  0.5412511127703246  1.0000
  H   H569      1.0  0.05076249142340239  0.26032887812212857  0.5050830956914905  1.0000
  H   H570      1.0  0.012882139543056281  0.2549717654586431  0.4841071344954854  1.0000
  H   H571      1.0  0.04631147019393933  0.22105560911155775  0.48579887381109543  1.0000
  H   H572      1.0  0.9752319594571879  0.19234156618917125  0.5325252975901636  1.0000
  H   H573      1.0  0.9688824435735091  0.21740177320222506  0.5005215143075716  1.0000
  H   H574      1.0  0.00026935215340917473  0.18176904926672774  0.5010867052227257  1.0000
  H   H575      1.0  0.9859975581240519  0.24524199214266604  0.5603555708302038  1.0000
  H   H576      1.0  0.9790677573566834  0.27052459150607205  0.5285184917361052  1.0000
  H   H577      1.0  0.01809906631409608  0.27323675684377674  0.5487461996959425  1.0000
  H   H578      1.0  0.029278116640434337  0.19520948751870984  0.5600254687976473  1.0000
  H   H579      1.0  0.06087219198141414  0.22437716190701645  0.54961265670495  1.0000
  H   H580      1.0  0.054799192202370284  0.1863550217465062  0.5286403715004009  1.0000
  N   N28       1.0  0.5438622750957649  0.9246684268813564  0.6832236967324188  1.0000
  C   C493      1.0  0.5139009403049847  0.9031776274139073  0.6815455348590117  1.0000
  C   C494      1.0  0.5753993931142484  0.9023508698973152  0.6879206174218159  1.0000
  C   C495      1.0  0.5392141061971203  0.9494593916926782  0.7072094268215189  1.0000
  C   C496      1.0  0.5469700838038335  0.9436888309825838  0.6561240076479669  1.0000
  H   H581      1.0  0.4897085855565455  0.9191947403137876  0.677742404121304  1.0000
  H   H582      1.0  0.5106864468272603  0.8884507592937269  0.7016351973115663  1.0000
  H   H583      1.0  0.5167615173372176  0.8841311993855452  0.6636417663065836  1.0000
  H   H584      1.0  0.5738448834891242  0.8874038823614833  0.7080959987526199  1.0000
  H   H585      1.0  0.5797556937954697  0.8834901639888106  0.6700690489495202  1.0000
  H   H586      1.0  0.5984853409829956  0.9177821119729466  0.6893208495587959  1.0000
  H   H587      1.0  0.5612567758805216  0.9662783858172492  0.7087946366323156  1.0000
  H   H588      1.0  0.5369623281832255  0.9361640669224146  0.7281129619052921  1.0000
  H   H589      1.0  0.5157463272162036  0.9668913921708022  0.7042887440298692  1.0000
  H   H590      1.0  0.524168700830335  0.9617526117617461  0.6523936815097099  1.0000
  H   H591      1.0  0.5492344549267436  0.9258387093175744  0.6374666847674177  1.0000
  H   H592      1.0  0.569958396221003  0.959343131640914  0.6561958448306523  1.0000
  N   N29       1.0  0.6580457815552412  0.8208035835606355  0.5180335202139311  1.0000
  C   C497      1.0  0.6685324879228418  0.7849673132422142  0.526040910765406  1.0000
  C   C498      1.0  0.6279294713967937  0.8208575832297285  0.4988440410646009  1.0000
  C   C499      1.0  0.6866532042412488  0.836347702678922  0.5030460416313555  1.0000
  C   C500      1.0  0.6489544140071754  0.8409849288876974  0.5441358875383855  1.0000
  H   H593      1.0  0.6749858226870947  0.7688704198061239  0.5068351883586053  1.0000
  H   H594      1.0  0.6476515585715714  0.7725646800262161  0.5376777661519404  1.0000
  H   H595      1.0  0.6916889039560863  0.7837670721088759  0.5400101894419906  1.0000
  H   H596      1.0  0.633597792911172  0.8052548472388716  0.47918081466854534  1.0000
  H   H597      1.0  0.6057708393078363  0.8098192493099956  0.5096829549097388  1.0000
  H   H598      1.0  0.6194759302571969  0.8474365512609803  0.49206401922843723  1.0000
  H   H599      1.0  0.6800302759093154  0.8637846878459778  0.49761361612708654  1.0000
  H   H600      1.0  0.6931635038554808  0.8224138793506428  0.4826901071501433  1.0000
  H   H601      1.0  0.710440875708337  0.8352507122731497  0.5162992301327506  1.0000
  H   H602      1.0  0.6712488056591169  0.8419444894232803  0.5589238341233628  1.0000
  H   H603      1.0  0.6277281162471923  0.829567613094846  0.5561250887263768  1.0000
  H   H604      1.0  0.6400763991560761  0.8679767800581146  0.53885870892994  1.0000
  N   N30       1.0  0.4365920576573792  0.6012175250409788  0.5903425787693766  1.0000
  C   C501      1.0  0.4341979615579686  0.5779724025123675  0.5653927789895536  1.0000
  C   C502      1.0  0.4035432451233354  0.6033185214169903  0.6059104627386869  1.0000
  C   C503      1.0  0.4443777511352947  0.6359841863408482  0.5805394911062401  1.0000
  C   C504      1.0  0.46415769979337546  0.5875230567642955  0.6096105008409309  1.0000
  H   H605      1.0  0.4585529087809212  0.57582652560248  0.5529580522335787  1.0000
  H   H606      1.0  0.4133062189376539  0.5871248574157023  0.5505202815134028  1.0000
  H   H607      1.0  0.4285595709436821  0.5514674444823348  0.5721411869370586  1.0000
  H   H608      1.0  0.40417085045850554  0.6207719921869702  0.6247629440459411  1.0000
  H   H609      1.0  0.3819668854492434  0.6131371544479189  0.5920198265106573  1.0000
  H   H610      1.0  0.3970608691941578  0.5776643010629907  0.6139408426098081  1.0000
  H   H611      1.0  0.4241594517987292  0.646886417211955  0.5657682541589473  1.0000
  H   H612      1.0  0.4694925276555726  0.6356300759689572  0.5692270206624488  1.0000
  H   H613      1.0  0.44575791431175704  0.6542753363294684  0.5988664646772917  1.0000
  H   H614      1.0  0.4668566262837809  0.6045960096645193  0.6284743757208764  1.0000
  H   H615      1.0  0.4894832207722456  0.5852301363079708  0.5985821854948626  1.0000
  H   H616      1.0  0.45871339280577345  0.561565642353849  0.6178534623066606  1.0000
  N   N31       1.0  0.939268763717707  0.7829570633029098  0.32659154603797574  1.0000
  C   C505      1.0  0.9604167119039412  0.7735926251466226  0.3011344449801182  1.0000
  C   C506      1.0  0.9583095569199173  0.7723961373002501  0.35277870772636394  1.0000
  C   C507      1.0  0.9067933359923057  0.7652183684638333  0.3253465559243648  1.0000
  C   C508      1.0  0.9315379017772702  0.8206178695780969  0.3272265654413147  1.0000
  H   H617      1.0  0.9463838261264765  0.7801005792700019  0.28092266613527345  1.0000
  H   H618      1.0  0.9677019285546041  0.7454936059222292  0.3005017843898792  1.0000
  H   H619      1.0  0.9846378991982384  0.7873346174255144  0.3008777022431416  1.0000
  H   H620      1.0  0.942882262405  0.7789865006288733  0.37236103263727827  1.0000
  H   H621      1.0  0.9646860323183474  0.7440815942087302  0.35289401358153727  1.0000
  H   H622      1.0  0.9828397987926881  0.7855119703974487  0.3545287832328348  1.0000
  H   H623      1.0  0.8899497530432452  0.7722911869388855  0.3439548278931072  1.0000
  H   H624      1.0  0.9116519636039655  0.7367389485913406  0.3254572024730905  1.0000
  H   H625      1.0  0.8918593672076416  0.772057437636799  0.305626095025803  1.0000
  H   H626      1.0  0.9169879041301617  0.8287761235817346  0.346874730162432  1.0000
  H   H627      1.0  0.9156952762189029  0.8292318181443225  0.30849736800110167  1.0000
  H   H628      1.0  0.9553641792731599  0.8350157339580115  0.32688989525244727  1.0000
  N   N32       1.0  0.5463357544889772  0.13517537047447414  0.5776845826287446  1.0000
  C   C509      1.0  0.5111594638610842  0.15084336930645922  0.5818080199121977  1.0000
  C   C510      1.0  0.5600246393884138  0.12202568126000521  0.6053147688699422  1.0000
  C   C511      1.0  0.5688120902584777  0.1614058940294359  0.5666767470090192  1.0000
  C   C512      1.0  0.5454416811868722  0.10643325979698706  0.5569114144665814  1.0000
  H   H629      1.0  0.5108817599700435  0.17317445859756322  0.5968115318382059  1.0000
  H   H630      1.0  0.4935943820933306  0.13187011331107346  0.5904154150277872  1.0000
  H   H631      1.0  0.49998176674779726  0.1606223323651564  0.5612400972613021  1.0000
  H   H632      1.0  0.5607364280253718  0.14289875727057968  0.621630336744387  1.0000
  H   H633      1.0  0.544190132706051  0.10164759270121149  0.6141112141875052  1.0000
  H   H634      1.0  0.5867504872857424  0.11053838096402464  0.6029193592895387  1.0000
  H   H635      1.0  0.5954746999134826  0.15033850854140723  0.5629874851897122  1.0000
  H   H636      1.0  0.5702015817153872  0.1834375163870403  0.5818472821039966  1.0000
  H   H637      1.0  0.5590852760750291  0.17225521566968882  0.5460498700328169  1.0000
  H   H638      1.0  0.534592565519191  0.11528995939142299  0.5360034991558055  1.0000
  H   H639      1.0  0.5293483390819589  0.08577037427405854  0.5648078286308271  1.0000
  H   H640      1.0  0.5716419294575201  0.09447789707598164  0.5527721628894  1.0000
  N   N33       1.0  0.8962724620349899  0.9307920180290392  0.5972345293045945  1.0000
  C   C513      1.0  0.9168152206411397  0.8979701553629776  0.6012294719466496  1.0000
  C   C514      1.0  0.8611385495020192  0.9235693982289727  0.5879720972826524  1.0000
  C   C515      1.0  0.9125952752740324  0.9514034113689852  0.5751123145220783  1.0000
  C   C516      1.0  0.8945515798835433  0.9502291704826418  0.6245238668882866  1.0000
  H   H641      1.0  0.9436170627650744  0.9024011502156118  0.6078690552636465  1.0000
  H   H642      1.0  0.9181872492285224  0.8824961778323873  0.581052544071902  1.0000
  H   H643      1.0  0.9054564471246191  0.881860475899628  0.6179938099458975  1.0000
  H   H644      1.0  0.844564856294196  0.9477183141988827  0.5856974605578376  1.0000
  H   H645      1.0  0.861422478329531  0.9104043840088824  0.5667348680094755  1.0000
  H   H646      1.0  0.84859534532379  0.9065415002317312  0.6033746944948087  1.0000
  H   H647      1.0  0.9138396363785073  0.937643692212969  0.5541340299390964  1.0000
  H   H648      1.0  0.9392295713627082  0.9572210345954011  0.5812381473762845  1.0000
  H   H649      1.0  0.897878767469279  0.9764296126327019  0.5716401283044941  1.0000
  H   H650      1.0  0.8792718785314478  0.9751729147331244  0.6222046697854646  1.0000
  H   H651      1.0  0.9205691952395983  0.9564397336234771  0.6321099149761445  1.0000
  H   H652      1.0  0.882559202384563  0.9354261695395392  0.6418115353887164  1.0000
  N   N34       1.0  0.06352798360309975  0.4177666721566312  0.7259381412659869  1.0000
  C   C517      1.0  0.02904256422060114  0.40639374016610524  0.7330403315877583  1.0000
  C   C518      1.0  0.06034552275840488  0.4535625839081332  0.7152623373837045  1.0000
  C   C519      1.0  0.07943709250757713  0.3949239326452326  0.7036055433724742  1.0000
  C   C520      1.0  0.08524801628286638  0.4161470861625186  0.7518970981202108  1.0000
  H   H653      1.0  0.016361073911832058  0.4231139434918857  0.7498884854225834  1.0000
  H   H654      1.0  0.03047165669799745  0.3794445849133258  0.7410807635358247  1.0000
  H   H655      1.0  0.011909241789519687  0.40714347861384914  0.7139798696558394  1.0000
  H   H656      1.0  0.08587729275858957  0.46326320466724064  0.7100107573751426  1.0000
  H   H657      1.0  0.044282063186305676  0.45560543103286333  0.6955742942450076  1.0000
  H   H658      1.0  0.04813160405693928  0.47146228353197156  0.7314967220115708  1.0000
  H   H659      1.0  0.06287992175992385  0.39403044151528566  0.6842203164540621  1.0000
  H   H660      1.0  0.08362795785011934  0.3680024150781166  0.711402499924251  1.0000
  H   H661      1.0  0.10485256019678846  0.4036059039246397  0.6968180408393089  1.0000
  H   H662      1.0  0.07428796163277251  0.4335790052346081  0.7689915836763996  1.0000
  H   H663      1.0  0.11162634285894035  0.4240420329972167  0.7473024196576874  1.0000
  H   H664      1.0  0.08743950961881986  0.3895988533832991  0.7608732331523582  1.0000
  N   N35       1.0  0.2270605041017098  0.3077285437037835  0.8390896647629577  1.0000
  C   C521      1.0  0.22478906321983916  0.27377654765741977  0.8528692800978941  1.0000
  C   C522      1.0  0.20125528413709007  0.33265837876963034  0.8518094645024767  1.0000
  C   C523      1.0  0.22050932264894657  0.30439108500311934  0.8080494889288085  1.0000
  C   C524      1.0  0.2617152897890484  0.32012772257106925  0.8436987209175582  1.0000
  H   H665      1.0  0.2435323947336129  0.254175254949338  0.8433677630642694  1.0000
  H   H666      1.0  0.19878346386940887  0.26384015119235943  0.8500704935204901  1.0000
  H   H667      1.0  0.2299673131309277  0.2751442192077571  0.876273702162105  1.0000
  H   H668      1.0  0.20320953970856379  0.3588985127154937  0.8428316156434539  1.0000
  H   H669      1.0  0.17476061040718258  0.32497876535047543  0.8475183571833005  1.0000
  H   H670      1.0  0.20429650085943132  0.33443210159090775  0.8754735489742883  1.0000
  H   H671      1.0  0.22009165855138488  0.32972670358925005  0.7971156860782078  1.0000
  H   H672      1.0  0.19538398453631067  0.29306429629732106  0.8038839437339276  1.0000
  H   H673      1.0  0.24058836783885829  0.28718214442034945  0.7975168080746781  1.0000
  H   H674      1.0  0.26677262715635736  0.3246768173257371  0.866824412856198  1.0000
  H   H675      1.0  0.2651224482837277  0.344764363836446  0.832358346225913  1.0000
  H   H676      1.0  0.28196829942593793  0.3010446460407623  0.8358697743995733  1.0000
  N   N36       1.0  0.22093873811233058  0.5542625997149572  0.5862849054625526  1.0000
  C   C525      1.0  0.192595499852147  0.5675668035796547  0.6050676271782202  1.0000
  C   C526      1.0  0.20647541887286242  0.5377349598600143  0.5607933622569701  1.0000
  C   C527      1.0  0.24326354989552926  0.5287192655633396  0.6019990549686027  1.0000
  C   C528      1.0  0.24144135014136295  0.5830730879319307  0.5772472782965871  1.0000
  H   H677      1.0  0.20253071642821743  0.5804383115445532  0.624451551837621  1.0000
  H   H678      1.0  0.1765311172662897  0.5465191629305421  0.6123142681741716  1.0000
  H   H679      1.0  0.17529009793674044  0.5869021204364727  0.5937017677648674  1.0000
  H   H680      1.0  0.1909514470186016  0.5157894767692384  0.5668005758234114  1.0000
  H   H681      1.0  0.1892662585956998  0.5562820179010549  0.5486991023128565  1.0000
  H   H682      1.0  0.2270413341254064  0.5279680248427263  0.545780284126711  1.0000
  H   H683      1.0  0.22895824225316555  0.5061517688764195  0.6085779091388801  1.0000
  H   H684      1.0  0.25390355890294813  0.5401647217143652  0.6217733307779056  1.0000
  H   H685      1.0  0.2656259947466681  0.5191559757302533  0.5887289368734675  1.0000
  H   H686      1.0  0.22503691416767627  0.6043111116714759  0.567596310367665  1.0000
  H   H687      1.0  0.2608428165054238  0.5745805950477104  0.5608509654737068  1.0000
  H   H688      1.0  0.2552551655159836  0.5941902750205205  0.595657521976538  1.0000
  N   N37       1.0  0.5691315104491981  0.8789069944413618  0.9230871289528941  1.0000
  C   C529      1.0  0.598343789931793  0.8932713236663039  0.938279406781  1.0000
  C   C530      1.0  0.5415938740865506  0.8722636759974365  0.9437553692798901  1.0000
  C   C531      1.0  0.5808843517039531  0.846337296080718  0.9087950220374301  1.0000
  C   C532      1.0  0.5556685982216428  0.9037480029833659  0.9014139731326103  1.0000
  H   H689      1.0  0.6088078197602879  0.875319885320848  0.955080278030924  1.0000
  H   H690      1.0  0.5904048927648956  0.9179298160294258  0.9492559627002388  1.0000
  H   H691      1.0  0.6196353826512646  0.8986180006897249  0.9233984379281913  1.0000
  H   H692      1.0  0.5507232825642693  0.8534661444458337  0.9604299024593607  1.0000
  H   H693      1.0  0.5322002802641816  0.8962385501418005  0.9551218731310241  1.0000
  H   H694      1.0  0.5191461714586474  0.861371701495898  0.9330192011466099  1.0000
  H   H695      1.0  0.5893643472276181  0.8262705314269496  0.924667088502751  1.0000
  H   H696      1.0  0.6026091037317046  0.8500202452691563  0.8939312271482357  1.0000
  H   H697      1.0  0.559817056198818  0.8357139973550921  0.8960137649714257  1.0000
  H   H698      1.0  0.5757452871565382  0.9092193655845097  0.8853910806682688  1.0000
  H   H699      1.0  0.5465564487826923  0.9286224152438652  0.911526054376088  1.0000
  H   H700      1.0  0.5335556403040234  0.8936796154406329  0.8895696857850903  1.0000
  N   N38       1.0  0.18488661310130883  0.24768628836896892  0.3463475572743607  1.0000
  C   C533      1.0  0.17025044825499297  0.2813616564927102  0.33609994096338164  1.0000
  C   C534      1.0  0.1834110875393412  0.22202776888365722  0.3229829671812322  1.0000
  C   C535      1.0  0.16489461734577673  0.23641610354548426  0.371149141551548  1.0000
  C   C536      1.0  0.22100698664021023  0.2509805397473373  0.35507899571722107  1.0000
  H   H701      1.0  0.17120249641301216  0.3015449159228319  0.35299406109236137  1.0000
  H   H702      1.0  0.1428928141055735  0.279875018934685  0.32955992749556445  1.0000
  H   H703      1.0  0.1845346151028737  0.29024682596328544  0.317127077791009  1.0000
  H   H704      1.0  0.1564659054820918  0.21927404345741391  0.3157096152245616  1.0000
  H   H705      1.0  0.19851007954440394  0.22959764041513836  0.3040258612046632  1.0000
  H   H706      1.0  0.19410383130001538  0.19620219013584383  0.3298185901043034  1.0000
  H   H707      1.0  0.17527012468307235  0.21107610992912468  0.37937125799103905  1.0000
  H   H708      1.0  0.13750460456213232  0.23360675403092063  0.36537184655835697  1.0000
  H   H709      1.0  0.1653005878357125  0.2551945620835321  0.38922546758701787  1.0000
  H   H710      1.0  0.23338201606390577  0.22574512026628393  0.3617419316702331  1.0000
  H   H711      1.0  0.22292345780607142  0.2693188562280341  0.3732995370977756  1.0000
  H   H712      1.0  0.2365771150008567  0.2606576279688529  0.33720843291416785  1.0000
  N   N39       1.0  0.3957043740373588  0.6019141552486774  0.7995023233918069  1.0000
  C   C537      1.0  0.4064278856697761  0.5768335822286857  0.7768971754964024  1.0000
  C   C538      1.0  0.4202467919945036  0.629402583445379  0.8006659679227177  1.0000
  C   C539      1.0  0.39517940231921733  0.5842532515339605  0.8274247657269047  1.0000
  C   C540      1.0  0.36090512215049186  0.6170693793399973  0.7929658973459537  1.0000
  H   H713      1.0  0.40759824191278793  0.5893758498349794  0.7555824252643183  1.0000
  H   H714      1.0  0.3880896640376033  0.5561116930969399  0.7751340350889772  1.0000
  H   H715      1.0  0.43236343912098124  0.5643637539535216  0.7812311533079017  1.0000
  H   H716      1.0  0.41339471158567764  0.6485267585776227  0.8178829877003225  1.0000
  H   H717      1.0  0.4468118032869176  0.6186233886832553  0.8051831570981254  1.0000
  H   H718      1.0  0.4210011045809466  0.6435184546461786  0.7800497148105093  1.0000
  H   H719      1.0  0.3764670341408076  0.5638830189769619  0.8274201602252682  1.0000
  H   H720      1.0  0.3877503966922723  0.6024899838635758  0.8451200038146494  1.0000
  H   H721      1.0  0.4206962484738651  0.5715510253177766  0.8327698593333233  1.0000
  H   H722      1.0  0.34180415714068785  0.5968650121152608  0.7919733265307979  1.0000
  H   H723      1.0  0.3602056059418716  0.63028806911718  0.7718728216206058  1.0000
  H   H724      1.0  0.351968072633246  0.6361708796258528  0.8095834852011289  1.0000
  N   N40       1.0  0.5056191579400652  0.6744816211426503  0.4590836300122594  1.0000
  C   C541      1.0  0.49861639542383146  0.7035932176771222  0.43929373378655007  1.0000
  C   C542      1.0  0.5427090590618595  0.6640849039695909  0.45856669383009874  1.0000
  C   C543      1.0  0.4858267494181703  0.6450721660518897  0.45000557800105906  1.0000
  C   C544      1.0  0.49533599703146014  0.6852492672803253  0.48838685528639025  1.0000
  H   H725      1.0  0.4705733600198698  0.7105849580925342  0.43752886627277054  1.0000
  H   H726      1.0  0.5084782109356677  0.6973624724180324  0.41743511571404307  1.0000
  H   H727      1.0  0.5111634281054271  0.7269865680426876  0.4465552360330264  1.0000
  H   H728      1.0  0.5491356253021243  0.6426471560684955  0.4736916060355321  1.0000
  H   H729      1.0  0.5511401613381786  0.6553094271845773  0.43679903697364647  1.0000
  H   H730      1.0  0.5583793609392518  0.685894866585709  0.46469620763971675  1.0000
  H   H731      1.0  0.49068110554733496  0.62240629398094  0.464165050532589  1.0000
  H   H732      1.0  0.4926410091962873  0.6367121961114746  0.42778184997743934  1.0000
  H   H733      1.0  0.4576431009457402  0.65188136406664  0.45030009779282065  1.0000
  H   H734      1.0  0.5000701025206269  0.6638959041119717  0.5039089961154741  1.0000
  H   H735      1.0  0.4675204308133092  0.6936485375544378  0.48933190781088814  1.0000
  H   H736      1.0  0.5100772409618592  0.7072435877657921  0.49592518610552516  1.0000
  N   N41       1.0  0.4258161145107632  0.20338753235322068  0.41867700209928405  1.0000
  C   C545      1.0  0.4083286413906798  0.22109556327345714  0.3943233511659365  1.0000
  C   C546      1.0  0.40008290253887574  0.1872279534121915  0.43662999881661607  1.0000
  C   C547      1.0  0.4437017377079854  0.22868253486751636  0.4360447126110934  1.0000
  C   C548      1.0  0.4509793833851962  0.17656601169798275  0.4076640411304889  1.0000
  H   H737      1.0  0.42692206044806025  0.232794981475568  0.37974325938123  1.0000
  H   H738      1.0  0.38982254647298  0.24206616714451798  0.401759060567626  1.0000
  H   H739      1.0  0.393674175169541  0.20294109635598942  0.381289003334268  1.0000
  H   H740      1.0  0.41226246260994287  0.17405966392094957  0.45548850396286017  1.0000
  H   H741      1.0  0.3803858762235542  0.20674630474178296  0.4449008753379998  1.0000
  H   H742      1.0  0.3862369903151124  0.16778902752268643  0.42430201054595545  1.0000
  H   H743      1.0  0.4576806788997468  0.2161700815690866  0.4543947192167426  1.0000
  H   H744      1.0  0.4251891974980047  0.24878134087689296  0.4451348509991428  1.0000
  H   H745      1.0  0.46271901365309126  0.24205647052463655  0.4230557098043957  1.0000
  H   H746      1.0  0.46453117921890213  0.16241923030677347  0.4254359638838927  1.0000
  H   H747      1.0  0.4706793186247257  0.18793195065773638  0.3939482122151323  1.0000
  H   H748      1.0  0.43817618416235454  0.15734928710885301  0.39419523508589377  1.0000
  N   N42       1.0  0.3996617557113133  0.41646173149429877  0.47679753229167077  1.0000
  C   C549      1.0  0.4243547205033049  0.38651378572597567  0.4807041637342376  1.0000
  C   C550      1.0  0.3724847984905599  0.4073462032005963  0.4565196904651676  1.0000
  C   C551      1.0  0.4178816166451577  0.4456598162237196  0.4652987116925873  1.0000
  C   C552      1.0  0.38401172635969594  0.42631104997182023  0.5047192315755782  1.0000
  H   H749      1.0  0.4453791247640313  0.3927117490737522  0.49569299020520813  1.0000
  H   H750      1.0  0.4362421626360682  0.37786496555948196  0.46005781973452003  1.0000
  H   H751      1.0  0.4116246373184689  0.3643543793425072  0.4901489434293644  1.0000
  H   H752      1.0  0.35306539481942073  0.4292081156595984  0.4535275047665725  1.0000
  H   H753      1.0  0.38327136946128476  0.4006834193838086  0.43498041243728847  1.0000
  H   H754      1.0  0.35872473327560706  0.3848676344906809  0.46420131856254754  1.0000
  H   H755      1.0  0.4383623546120515  0.45342422537337046  0.48019663332772133  1.0000
  H   H756      1.0  0.4000763374758488  0.4687337538343421  0.46226699085256096  1.0000
  H   H757      1.0  0.4298314339189284  0.43933123986928374  0.4441317016825701  1.0000
  H   H758      1.0  0.40375766014304176  0.4341129832153365  0.5203421444746548  1.0000
  H   H759      1.0  0.37098695306025303  0.4045515060687763  0.5145248482902617  1.0000
  H   H760      1.0  0.3647542767967734  0.44847888624063753  0.5026008258224753  1.0000
  N   N43       1.0  0.8790251877010387  0.9284519102772275  0.4404195897400822  1.0000
  C   C553      1.0  0.8856337594990308  0.9598348836668611  0.4569831652258848  1.0000
  C   C554      1.0  0.8965003638176352  0.8981693669429699  0.45436985653383455  1.0000
  C   C555      1.0  0.8922821475389835  0.931766809855394  0.41097394798056186  1.0000
  C   C556      1.0  0.8416309023442275  0.9241433073973416  0.43932185631422976  1.0000
  H   H761      1.0  0.8721563227845526  0.9830172950061651  0.44738863181353583  1.0000
  H   H762      1.0  0.9135152640386961  0.9645278074219721  0.4575283913857418  1.0000
  H   H763      1.0  0.8765528366570978  0.9580271132936313  0.47948642828835186  1.0000
  H   H764      1.0  0.892370747471386  0.8740978188459104  0.4422384156958829  1.0000
  H   H765      1.0  0.924733924141777  0.900703178572172  0.4556836590323  1.0000
  H   H766      1.0  0.8867392241597472  0.8945718513523936  0.4765116701083419  1.0000
  H   H767      1.0  0.8879517075622442  0.9085395077015905  0.3977505677724594  1.0000
  H   H768      1.0  0.920385632954359  0.9354388387718562  0.4107583329450413  1.0000
  H   H769      1.0  0.8794434810919253  0.954202724689233  0.3997099974947607  1.0000
  H   H770      1.0  0.8306382590602724  0.921863449162641  0.4611628759588793  1.0000
  H   H771      1.0  0.8357932839168766  0.9005807779469474  0.4270348166454365  1.0000
  H   H772      1.0  0.827779814027655  0.946454475451951  0.42864076901508735  1.0000
  N   N44       1.0  0.44785766015509404  0.6993643853726885  0.0063306452053977225  1.0000
  C   C557      1.0  0.4365235847726476  0.734281617148775  0.016467552015369424  1.0000
  C   C558      1.0  0.47560950706005883  0.6849081422844151  0.02509027973542799  1.0000
  C   C559      1.0  0.46070007726667506  0.7013213506871296  0.9766356061334036  1.0000
  C   C560      1.0  0.41848090901929735  0.6770378007863511  0.007161041129561951  1.0000
  H   H773      1.0  0.42684465565558544  0.7337610888172909  0.03891189299357012  1.0000
  H   H774      1.0  0.41543027312924163  0.7458804952592077  0.0029010817341705852  1.0000
  H   H775      1.0  0.45798022842057284  0.7519166877153503  0.01589512969738327  1.0000
  H   H776      1.0  0.48501978221414244  0.6587032480643363  0.01792090037930616  1.0000
  H   H777      1.0  0.4980917445008327  0.7012558341738883  0.025074569067423003  1.0000
  H   H778      1.0  0.4667612312262767  0.6831211058845851  0.04769742646258868  1.0000
  H   H779      1.0  0.4686034491110083  0.6753402809730383  0.9679080097155265  1.0000
  H   H780      1.0  0.48329808913500866  0.7174610913393391  0.97520163816369  1.0000
  H   H781      1.0  0.44048146538381616  0.7126788911669667  0.9621072193831111  1.0000
  H   H782      1.0  0.4258090653156004  0.6506662716753849  0.9989881950991576  1.0000
  H   H783      1.0  0.39693384801117665  0.6874343215683214  0.9934218122020867  1.0000
  H   H784      1.0  0.40834506121070974  0.6747011717024084  0.02932152749896355  1.0000
  N   N45       1.0  0.46640987575480386  0.17884824651485087  0.7165897441225684  1.0000
  C   C561      1.0  0.45143575349890175  0.18308145363321904  0.6876535671343239  1.0000
  C   C562      1.0  0.43856041054427175  0.1807731500239056  0.7380959571874387  1.0000
  C   C563      1.0  0.48982183632827936  0.2066719916061599  0.7221201847276726  1.0000
  C   C564      1.0  0.4857198074615225  0.14501671306184916  0.7185496922530107  1.0000
  H   H785      1.0  0.47161082218611533  0.18112308571965907  0.6708106357176102  1.0000
  H   H786      1.0  0.43745947670984375  0.20870744912774275  0.6853162241854529  1.0000
  H   H787      1.0  0.43267968293060716  0.1632876360007096  0.6830446244948359  1.0000
  H   H788      1.0  0.4200809933593747  0.1604523789317216  0.7345374087361357  1.0000
  H   H789      1.0  0.4488779356429606  0.17751016444032386  0.7601833180056627  1.0000
  H   H790      1.0  0.42377102049918747  0.20614030700774233  0.7373774427688727  1.0000
  H   H791      1.0  0.5108385799084594  0.20654919723054843  0.7060170579278949  1.0000
  H   H792      1.0  0.5022375165113759  0.2037831848456484  0.7434825777150793  1.0000
  H   H793      1.0  0.4757948278946296  0.23253712845428032  0.7216234340743899  1.0000
  H   H794      1.0  0.49660501148817804  0.1407086715464685  0.7403507193082769  1.0000
  H   H795      1.0  0.5077045274132745  0.14300170111520405  0.7033215977076233  1.0000
  H   H796      1.0  0.4689943530058527  0.12345154480203036  0.7139522886193851  1.0000
  N   N46       1.0  0.9643302732527174  0.632867413178378  0.9030537152742443  1.0000
  C   C565      1.0  0.9634298873582195  0.5964551226288171  0.9118117400733524  1.0000
  C   C566      1.0  0.9439184033904192  0.6385103557147549  0.8766241415466478  1.0000
  C   C567      1.0  0.0002859958652656758  0.6411710717212737  0.89777006460611  1.0000
  C   C568      1.0  0.9496646750181893  0.6552595977985656  0.9261698785898391  1.0000
  H   H797      1.0  0.9366284431751011  0.589108610608266  0.9154647774759186  1.0000
  H   H798      1.0  0.9778080307686414  0.5915481409752769  0.9321622058180997  1.0000
  H   H799      1.0  0.9751223777987851  0.5787464275481419  0.8952170610762344  1.0000
  H   H800      1.0  0.9164744691358021  0.6331992920258055  0.8800316527602843  1.0000
  H   H801      1.0  0.9446567966921111  0.6654874326988183  0.8689417023640256  1.0000
  H   H802      1.0  0.9537969264470171  0.621442612742207  0.858878044632661  1.0000
  H   H803      1.0  0.0020975255561144213  0.6686532288115901  0.8918325025544196  1.0000
  H   H804      1.0  0.011981347282892685  0.6253008905100141  0.8800121059660566  1.0000
  H   H805      1.0  0.016585952298871165  0.6362545695666593  0.9170922489084562  1.0000
  H   H806      1.0  0.9488327252202439  0.6829716814519821  0.9202524351896526  1.0000
  H   H807      1.0  0.9649880857622887  0.6522641855088942  0.9462284390305201  1.0000
  H   H808      1.0  0.9228530901804524  0.6490148939350633  0.9313446221681793  1.0000
  N   N47       1.0  0.440516093801825  0.558985842224306  0.09128682708480779  1.0000
  C   C569      1.0  0.4544908732686607  0.5667683616990769  0.11984586564207507  1.0000
  C   C570      1.0  0.4364821020717298  0.5215523625740415  0.08871025072190619  1.0000
  C   C571      1.0  0.46435803759552335  0.5698631567193054  0.06894561325560393  1.0000
  C   C572      1.0  0.4067342552066777  0.5778289785377952  0.08756739107887292  1.0000
  H   H809      1.0  0.43686820822573763  0.5594457829647699  0.1372440767928629  1.0000
  H   H810      1.0  0.45827347596195284  0.5947452446211651  0.12236579734325007  1.0000
  H   H811      1.0  0.47975514501122823  0.552674706809699  0.12362505649238592  1.0000
  H   H812      1.0  0.41756466179042084  0.5128099753624622  0.10450096886667448  1.0000
  H   H813      1.0  0.4270899396641266  0.5146129009519184  0.06706422828291415  1.0000
  H   H814      1.0  0.46117727966926386  0.5063564575333357  0.09240279121700366  1.0000
  H   H815      1.0  0.4901000355131569  0.556080626506819  0.07101805997018687  1.0000
  H   H816      1.0  0.4679973390883626  0.5980214991258637  0.07041088797359432  1.0000
  H   H817      1.0  0.45439790134915403  0.5644088760677455  0.04712364649645878  1.0000
  H   H818      1.0  0.39547546986908155  0.5724930401834522  0.06624232417848021  1.0000
  H   H819      1.0  0.4088881600678854  0.6061803442972701  0.08918869839972066  1.0000
  H   H820      1.0  0.3879344376658765  0.5703851717591822  0.10407115155638208  1.0000
  N   N48       1.0  0.08153599916503956  0.4603510105247686  0.9811934211461092  1.0000
  C   C573      1.0  0.10202985598778205  0.4320204969856466  0.9669290131678625  1.0000
  C   C574      1.0  0.10015167962130059  0.4923080371151015  0.9795532774615084  1.0000
  C   C575      1.0  0.07603173588425942  0.45161156755232235  0.011549267935779595  1.0000
  C   C576      1.0  0.04789153974083638  0.46540606073703483  0.9666956619786261  1.0000
  H   H821      1.0  0.1071642718208244  0.4382858258260177  0.9441411290990174  1.0000
  H   H822      1.0  0.0881058847844126  0.40786136370318293  0.9667782142235207  1.0000
  H   H823      1.0  0.12719749801279892  0.4265351656281886  0.9777384485889904  1.0000
  H   H824      1.0  0.12614571895776344  0.4889662925790338  0.9893617441311698  1.0000
  H   H825      1.0  0.10327073158504332  0.5006907019648769  0.9569943435306904  1.0000
  H   H826      1.0  0.08608453636361243  0.5138797571902308  0.9910720616998931  1.0000
  H   H827      1.0  0.061363961037599245  0.4729714024601313  0.0230363424646558  1.0000
  H   H828      1.0  0.10084929215134522  0.4466837001295027  0.023072496390387887  1.0000
  H   H829      1.0  0.06113144921104921  0.42822615351000165  0.013573821992167723  1.0000
  H   H830      1.0  0.050796266959735506  0.4744781569878287  0.9443158463858605  1.0000
  H   H831      1.0  0.030602962539711075  0.4846554110978589  0.9780826301222013  1.0000
  H   H832      1.0  0.03434590331261078  0.44104143013458197  0.9655314883218563  1.0000
  N   N49       1.0  0.7245610430500321  0.08999731883013506  0.04686541701330305  1.0000
  C   C577      1.0  0.7539082639847283  0.11013392881304829  0.03849681463029072  1.0000
  C   C578      1.0  0.6998957560688257  0.11198475341030933  0.06396102812850614  1.0000
  C   C579      1.0  0.7371600773706685  0.060081578480456255  0.0641529119639525  1.0000
  C   C580      1.0  0.7073511105608964  0.07779113463901677  0.02082983328893585  1.0000
  H   H833      1.0  0.7453119702086644  0.13323337844580352  0.025842168757169725  1.0000
  H   H834      1.0  0.7727903344244728  0.09440541965963001  0.025313339211910365  1.0000
  H   H835      1.0  0.7678056539045804  0.1193455206163192  0.0576201041697021  1.0000
  H   H836      1.0  0.6895587745305654  0.13465672169900444  0.05158648331239083  1.0000
  H   H837      1.0  0.6776434992165072  0.09748263696646897  0.0709824602777073  1.0000
  H   H838      1.0  0.7121085467715988  0.1218202070961254  0.08366564089695197  1.0000
  H   H839      1.0  0.715691697941936  0.04422037206845042  0.07072879493508755  1.0000
  H   H840      1.0  0.7499393709350961  0.06841507393204616  0.08411176590850944  1.0000
  H   H841      1.0  0.7560643435827998  0.043051337082725905  0.05208140828590914  1.0000
  H   H842      1.0  0.7251479644671125  0.060955426194369  0.007509580217755195  1.0000
  H   H843      1.0  0.6974430584264318  0.09967461316142301  0.007312869481966068  1.0000
  H   H844      1.0  0.685046850589135  0.06251585570761686  0.026300188552759875  1.0000
  N   N50       1.0  0.9926113625419334  0.6415263185670594  0.15807786569366286  1.0000
  C   C581      1.0  0.010347993012526535  0.6722482997616864  0.14907704035966476  1.0000
  C   C582      1.0  0.008761460359765438  0.6273582238831357  0.1844714540792583  1.0000
  C   C583      1.0  0.9954878729656559  0.6151838691829584  0.1351404288182505  1.0000
  C   C584      1.0  0.9559666396432552  0.6512953888244228  0.16356356939938493  1.0000
  H   H845      1.0  0.9991261837484599  0.683361073150093  0.12899464931753798  1.0000
  H   H846      1.0  0.038124843495093375  0.6657808188245519  0.14487342562694372  1.0000
  H   H847      1.0  0.008485278253421935  0.6928136395969335  0.1657666713416722  1.0000
  H   H848      1.0  0.9972650929964522  0.6031524200720814  0.19120300513509092  1.0000
  H   H849      1.0  0.03672813027812771  0.6213238467505241  0.18135409885978485  1.0000
  H   H850      1.0  0.006007821963556204  0.6458866397874464  0.20262194242383974  1.0000
  H   H851      1.0  0.02276662130797269  0.6065999026663295  0.1310782092963352  1.0000
  H   H852      1.0  0.9845278138771253  0.625241382211307  0.11457129806808572  1.0000
  H   H853      1.0  0.9820114285999396  0.591731428142647  0.14086673208090825  1.0000
  H   H854      1.0  0.9420181235623714  0.6288493092342207  0.17103031818162734  1.0000
  H   H855      1.0  0.9429304426742151  0.6614099077564337  0.1438752182626479  1.0000
  H   H856      1.0  0.9528814369434194  0.6716938975251724  0.18036104854534363  1.0000
  N   N51       1.0  0.6490362785067219  0.7895002463957668  0.039326590953774054  1.0000
  C   C585      1.0  0.6213687428642112  0.7911276474047289  0.06101339853380377  1.0000
  C   C586      1.0  0.6387378428665939  0.8120973472563737  0.01505212438135847  1.0000
  C   C587      1.0  0.6549967837837413  0.7536154091596361  0.029023009396947515  1.0000
  C   C588      1.0  0.6810308153024363  0.8011209286418863  0.052200085669759276  1.0000
  H   H857      1.0  0.6277212899405548  0.7736537839177462  0.07931273108774178  1.0000
  H   H858      1.0  0.596765393880997  0.7831480748173388  0.051758085958258225  1.0000
  H   H859      1.0  0.6164778909263138  0.8176846605537705  0.0696692626034974  1.0000
  H   H860      1.0  0.6325581708876744  0.8391246864863837  0.022253868930617465  1.0000
  H   H861      1.0  0.6596728661201033  0.8126464960156615  0.9988946942049193  1.0000
  H   H862      1.0  0.6155363316731575  0.803051251893642  0.00407050270032383  1.0000
  H   H863      1.0  0.6611619402255849  0.7355476747428351  0.04694666377027294  1.0000
  H   H864      1.0  0.676641171446393  0.751047029255123  0.01351661361171714  1.0000
  H   H865      1.0  0.6319826666417259  0.7444427927774827  0.018000061740977593  1.0000
  H   H866      1.0  0.7024799168843011  0.7999445697517995  0.03635056287824759  1.0000
  H   H867      1.0  0.6894769912046941  0.7846669226952717  0.07063373779478434  1.0000
  H   H868      1.0  0.6776436087373188  0.8281941531256696  0.06000313195497813  1.0000
  N   N52       1.0  0.3063785672915696  0.34279567152748647  0.18732349094492284  1.0000
  C   C589      1.0  0.34065496015282215  0.35697155188293417  0.18705323311975117  1.0000
  C   C590      1.0  0.30136545391639175  0.3249267716462405  0.21471277992411547  1.0000
  C   C591      1.0  0.30389878116588426  0.31816948000117207  0.16333090645437726  1.0000
  C   C592      1.0  0.2796920338577477  0.37118077642217684  0.1841050247678898  1.0000
  H   H869      1.0  0.3453102100414086  0.37045466672932426  0.1665848016355971  1.0000
  H   H870      1.0  0.36159366369884893  0.336446471530764  0.18955470117826226  1.0000
  H   H871      1.0  0.3435298323000825  0.3760322985236888  0.20458285585306696  1.0000
  H   H872      1.0  0.2754966828361716  0.3143039933527709  0.21579812764423836  1.0000
  H   H873      1.0  0.32082763558083527  0.30302771780414073  0.21757069713337676  1.0000
  H   H874      1.0  0.30363513784255247  0.34261607622165435  0.23330551033633584  1.0000
  H   H875      1.0  0.2781726601147753  0.3072598589505733  0.16264254548744883  1.0000
  H   H876      1.0  0.32338887925371196  0.29620923604143234  0.16530045735259455  1.0000
  H   H877      1.0  0.3082599987698393  0.3306768368208415  0.14237600132545347  1.0000
  H   H878      1.0  0.2534282061515509  0.36134268516020973  0.18403863403872073  1.0000
  H   H879      1.0  0.282959710309231  0.3853594549314334  0.16371238789186945  1.0000
  H   H880      1.0  0.28087894945555936  0.39030017184769084  0.20185820917220348  1.0000
  N   N53       1.0  0.07281069197169643  0.43398900876539326  0.22327412299835334  1.0000
  C   C593      1.0  0.10775228028836348  0.4183795288363076  0.22849770908811023  1.0000
  C   C594      1.0  0.0633682423800761  0.4287709276207173  0.1929783102976256  1.0000
  C   C595      1.0  0.07210832491677799  0.47126691840396795  0.22975713864967384  1.0000
  C   C596      1.0  0.04803156236457351  0.41750342196272483  0.24194054589248862  1.0000
  H   H881      1.0  0.1091751003070347  0.3902141245668686  0.2239195411739877  1.0000
  H   H882      1.0  0.11557889720610048  0.4217498233426611  0.25120471283572765  1.0000
  H   H883      1.0  0.1270904598981084  0.43012268340306065  0.21468288795332066  1.0000
  H   H884      1.0  0.08129322914427228  0.44116952562440387  0.17821806514565977  1.0000
  H   H885      1.0  0.06403423140204767  0.400806116512832  0.1873899274998618  1.0000
  H   H886      1.0  0.03696706551274964  0.4399074630641825  0.18841387108564464  1.0000
  H   H887      1.0  0.046007051358902595  0.48385212783313775  0.22633141954323838  1.0000
  H   H888      1.0  0.09045574014340185  0.4846305936779298  0.21607564918695987  1.0000
  H   H889      1.0  0.07892550042826985  0.47604393566635633  0.2525328737918108  1.0000
  H   H890      1.0  0.021640682803076405  0.4298393135894768  0.23970277256105244  1.0000
  H   H891      1.0  0.055246493322441026  0.4196490718285702  0.2648958993589591  1.0000
  H   H892      1.0  0.04669881119579222  0.38964971724584396  0.23677372162536894  1.0000
  N   N54       1.0  0.9344058803669614  0.15312896776506268  0.9901402015413051  1.0000
  C   C597      1.0  0.9594745778850836  0.17946684474515218  0.9955837464410734  1.0000
  C   C598      1.0  0.9044555769985475  0.1688662645765424  0.9745400421208472  1.0000
  C   C599      1.0  0.9229346637795588  0.13941093913648706  0.01776371129850699  1.0000
  C   C600      1.0  0.9506674273503182  0.12477236999848107  0.9727243165059072  1.0000
  H   H893      1.0  0.9479633908661607  0.20102387844451064  0.008932351666532858  1.0000
  H   H894      1.0  0.9685461967660188  0.1907038924763933  0.9752484825252555  1.0000
  H   H895      1.0  0.9824385136193172  0.16831938575961347  0.007183706171236994  1.0000
  H   H896      1.0  0.8914603565523118  0.1903794145493345  0.9869889317221033  1.0000
  H   H897      1.0  0.9121093644173957  0.17922975645812644  0.953460779216107  1.0000
  H   H898      1.0  0.8849960496964264  0.14968090453262906  0.9701382584863373  1.0000
  H   H899      1.0  0.9041325413109732  0.11939942463521325  0.014533059787629933  1.0000
  H   H900      1.0  0.9103378412012685  0.16009408826780436  0.03140311680095364  1.0000
  H   H901      1.0  0.9447870619168035  0.1273171034080458  0.030190892023447623  1.0000
  H   H902      1.0  0.9321790417207875  0.10477748805614295  0.9679021778517323  1.0000
  H   H903      1.0  0.9730183145294604  0.11180019540454356  0.9839446037637122  1.0000
  H   H904      1.0  0.9599654362664082  0.13425295776346235  0.9518271090805779  1.0000
  N   N55       1.0  0.2730822518493726  0.25025303319251674  0.07216714638423918  1.0000
  C   C601      1.0  0.2858524354144889  0.2674464082827263  0.09801110721601913  1.0000
  C   C602      1.0  0.29927584884607206  0.22386863687607203  0.06215142881495564  1.0000
  C   C603      1.0  0.2661521194913426  0.2759816574160851  0.04935097711363938  1.0000
  C   C604      1.0  0.24104542856323935  0.2336769357640087  0.07924704827208276  1.0000
  H   H905      1.0  0.26670594643570605  0.2875017308773525  0.10616507679181321  1.0000
  H   H906      1.0  0.31026222853343416  0.27985492879898255  0.09369314423688475  1.0000
  H   H907      1.0  0.29120481551917404  0.248643183461991  0.11563860744401233  1.0000
  H   H908      1.0  0.3236918249232453  0.23564642430427896  0.0566666502404523  1.0000
  H   H909      1.0  0.30554356352888873  0.20427639928081168  0.07898099083207234  1.0000
  H   H910      1.0  0.29064080605180603  0.21031615286412075  0.042647020631003375  1.0000
  H   H911      1.0  0.2461467601219102  0.2960864390088043  0.05595838192360223  1.0000
  H   H912      1.0  0.2572092105393184  0.26374078428458186  0.02929383876151751  1.0000
  H   H913      1.0  0.2897006763418266  0.2892468259629688  0.04365330348711089  1.0000
  H   H914      1.0  0.23055773437371954  0.2203842019354796  0.06031626563369836  1.0000
  H   H915      1.0  0.22089331763513104  0.2529357544626467  0.08708147680653147  1.0000
  H   H916      1.0  0.24532299424221304  0.21434152479705856  0.0966172838422238  1.0000
  N   N56       1.0  0.8239362134616837  0.006795924262566366  0.20179585454079504  1.0000
  C   C605      1.0  0.855899428737108  0.9951196597791236  0.18665699870090846  1.0000
  C   C606      1.0  0.8123195633259146  0.9785936487611605  0.21981558885619815  1.0000
  C   C607      1.0  0.7969573522383153  0.016814034629326402  0.18065911945268773  1.0000
  C   C608      1.0  0.830545641741825  0.036750814529047604  0.2201114277558511  1.0000
  H   H917      1.0  0.8521224455576244  0.9721436629190193  0.17297383437915181  1.0000
  H   H918      1.0  0.8769436897923607  0.9876755328679666  0.20192461541610845  1.0000
  H   H919      1.0  0.8653574159475782  0.015711734477679817  0.17277395389237357  1.0000
  H   H920      1.0  0.8091914639561371  0.9547313076622717  0.2070273720794659  1.0000
  H   H921      1.0  0.8312944557499599  0.971721733839335  0.23696995662856138  1.0000
  H   H922      1.0  0.7873441041899338  0.9858694656102259  0.23039950645486806  1.0000
  H   H923      1.0  0.7725834601953617  0.026210863184946254  0.19135510742079276  1.0000
  H   H924      1.0  0.7911658020284265  0.9947360375436619  0.16658039672226996  1.0000
  H   H925      1.0  0.8049427949926797  0.03800631785641362  0.1666527386456188  1.0000
  H   H926      1.0  0.8515779470030684  0.030463211341439367  0.23570204402826173  1.0000
  H   H927      1.0  0.8072446536491352  0.045549560495390606  0.23251155061014023  1.0000
  H   H928      1.0  0.8383826544634346  0.05882694426034707  0.20705705609511255  1.0000
  N   N57       1.0  0.5643298335115713  0.9477457348905686  0.15198273234265663  1.0000
  C   C609      1.0  0.5872310156226543  0.9583856971076206  0.175223551879526  1.0000
  C   C610      1.0  0.5316951199468012  0.9691523140098084  0.15307769762676673  1.0000
  C   C611      1.0  0.5571689630776008  0.9110965221767382  0.15562342178329844  1.0000
  C   C612      1.0  0.58118987812904  0.9524247590827833  0.12403005217893458  1.0000
  H   H929      1.0  0.5751180066074352  0.9557967045426768  0.19662392770008782  1.0000
  H   H930      1.0  0.5933319714099018  0.9858509881472995  0.17300114976529818  1.0000
  H   H931      1.0  0.6120416932636666  0.9426667976439853  0.175207429030402  1.0000
  H   H932      1.0  0.5139131907054438  0.9621204975858788  0.13563078412679344  1.0000
  H   H933      1.0  0.5181691950323275  0.9661526527283577  0.1738106661636371  1.0000
  H   H934      1.0  0.5361924238701853  0.9970088774852265  0.15080701989142017  1.0000
  H   H935      1.0  0.5810931611837359  0.8940314264648755  0.1544966699220247  1.0000
  H   H936      1.0  0.5395773103663166  0.9022788659744864  0.13870330602060676  1.0000
  H   H937      1.0  0.5446437530071758  0.9065467469568119  0.17656546826141958  1.0000
  H   H938      1.0  0.5872598427906185  0.9797353998416796  0.12074804133962996  1.0000
  H   H939      1.0  0.5644770433276572  0.9451107091373324  0.1059491523542191  1.0000
  H   H940      1.0  0.605764441022126  0.9364609572089438  0.12228006690923839  1.0000
  N   N58       1.0  0.7321320111848098  0.7465319954881486  0.6833251575304199  1.0000
  C   C613      1.0  0.7425201630991111  0.7718029107459542  0.7048791846771287  1.0000
  C   C614      1.0  0.7621939364269743  0.7349154792230305  0.6657288338773175  1.0000
  C   C615      1.0  0.705211334404911  0.7628837202324827  0.6647124487476609  1.0000
  C   C616      1.0  0.7186349761310195  0.7166176174525134  0.6980345787463361  1.0000
  H   H941      1.0  0.7625090087418853  0.7602861630142886  0.7195769763969844  1.0000
  H   H942      1.0  0.7203846032782586  0.7813480283277268  0.7183733883071698  1.0000
  H   H943      1.0  0.7531197337798318  0.7945365496087319  0.6944548956907787  1.0000
  H   H944      1.0  0.7831476777506302  0.7226927477573217  0.6791088071496901  1.0000
  H   H945      1.0  0.75518975393904  0.7157995727398236  0.6492540275153973  1.0000
  H   H946      1.0  0.7730668987906434  0.7568639734131352  0.6542964336161399  1.0000
  H   H947      1.0  0.6960402889616937  0.7443369722911195  0.6485962967674009  1.0000
  H   H948      1.0  0.7148732608012095  0.785231537762514  0.6529611196997537  1.0000
  H   H949      1.0  0.6823223712271558  0.7723896039619634  0.6773621932464912  1.0000
  H   H950      1.0  0.7091271097134415  0.6975980027429456  0.6824676999970554  1.0000
  H   H951      1.0  0.6966508239287698  0.7246866341360482  0.7121818630463557  1.0000
  H   H952      1.0  0.7386162307564026  0.7031314041653233  0.7116365871999225  1.0000
  N   N59       1.0  0.06327633607064556  0.19553378987021294  0.8070333083970953  1.0000
  C   C617      1.0  0.05846598696317829  0.21601302797601232  0.8336447399215268  1.0000
  C   C618      1.0  0.10032656320273342  0.19107052534790359  0.800188057270883  1.0000
  C   C619      1.0  0.0449932660285941  0.21367993014720119  0.7832618779249756  1.0000
  C   C620      1.0  0.049319360048924114  0.16135944409065733  0.8110287388853994  1.0000
  H   H953      1.0  0.07443629010457387  0.20479535626399445  0.8513989342216802  1.0000
  H   H954      1.0  0.031184684166197574  0.2174364310128859  0.8408754629289534  1.0000
  H   H955      1.0  0.0659902011387507  0.24287712322049165  0.8307174151647088  1.0000
  H   H956      1.0  0.10491970914436873  0.1761292444242947  0.7800293065480256  1.0000
  H   H957      1.0  0.11180002024550556  0.2163244407751429  0.7973771217130858  1.0000
  H   H958      1.0  0.1149630517793769  0.17735106496890649  0.8175988697954474  1.0000
  H   H959      1.0  0.04786477343493734  0.1989230043063873  0.7628423957996934  1.0000
  H   H960      1.0  0.0552712306325065  0.239358863278001  0.7794389974208901  1.0000
  H   H961      1.0  0.017061174988413086  0.21800391492248125  0.7879140795119458  1.0000
  H   H962      1.0  0.052291353496171755  0.1451678376907449  0.7913940251804922  1.0000
  H   H963      1.0  0.021468834047258408  0.16363018364632614  0.8165825044475019  1.0000
  H   H964      1.0  0.06258023797605995  0.1468841253017868  0.828758713413156  1.0000
  N   N60       1.0  0.49667552211157606  0.6706610617916852  0.25742508280899595  1.0000
  C   C621      1.0  0.4884985835055725  0.6343021886447286  0.2534605778832203  1.0000
  C   C622      1.0  0.5332080592216634  0.6722004754547102  0.2654953399193803  1.0000
  C   C623      1.0  0.47478063693795425  0.6864029553544908  0.28039335471563087  1.0000
  C   C624      1.0  0.49030176409486276  0.6897458101912295  0.23044498190780208  1.0000
  H   H965      1.0  0.46119234333666376  0.6321146896052873  0.24695592885187212  1.0000
  H   H966      1.0  0.49258590724269896  0.6193420319261459  0.27358361785258944  1.0000
  H   H967      1.0  0.5048686217343571  0.6213758749629081  0.2365932379895751  1.0000
  H   H968      1.0  0.5398144389216009  0.6991744630471372  0.2698195954399751  1.0000
  H   H969      1.0  0.5393306945085657  0.6570181647641639  0.2851752938350581  1.0000
  H   H970      1.0  0.5505171557449888  0.661822656431927  0.2481234549290251  1.0000
  H   H971      1.0  0.47912166007495677  0.6726117072867326  0.30105527695421286  1.0000
  H   H972      1.0  0.4470076371174735  0.6855228785318206  0.2750643734089909  1.0000
  H   H973      1.0  0.48031089414751216  0.7138310442158396  0.2840741307011307  1.0000
  H   H974      1.0  0.4630288021128481  0.6890047284638701  0.2234933961829193  1.0000
  H   H975      1.0  0.5066654859988975  0.6786886877683345  0.212707890504204  1.0000
  H   H976      1.0  0.4963162659759214  0.7172633313593084  0.23270285808833596  1.0000
  N   N61       1.0  0.21871414359217256  0.5505678212588636  0.3507855409230477  1.0000
  C   C625      1.0  0.21142613155764153  0.5806108393107864  0.36983399241486464  1.0000
  C   C626      1.0  0.18595405202906062  0.538471404804435  0.33979357310951513  1.0000
  C   C627      1.0  0.23709641197730283  0.5226098768629314  0.3670183980805632  1.0000
  C   C628      1.0  0.24036507810863114  0.5605318332389334  0.32655881103993867  1.0000
  H   H977      1.0  0.23552521999548348  0.590503679684287  0.3786206221997606  1.0000
  H   H978      1.0  0.19539554832872602  0.5738013840902798  0.3885077981389704  1.0000
  H   H979      1.0  0.19709975045493625  0.6020711135430082  0.35846245551545264  1.0000
  H   H980      1.0  0.19031031365040138  0.5159530877895437  0.32519758206197236  1.0000
  H   H981      1.0  0.1690551751296939  0.5307874613852792  0.35761093174282266  1.0000
  H   H982      1.0  0.17121656311333125  0.5591350658376046  0.32773376249855224  1.0000
  H   H983      1.0  0.2623028185635997  0.5306931873933624  0.37509893025873026  1.0000
  H   H984      1.0  0.24228305895090688  0.49923952361811175  0.35355915681313693  1.0000
  H   H985      1.0  0.2220369283326237  0.5151901097694912  0.3860404840385344  1.0000
  H   H986      1.0  0.22735509280054675  0.5815675043953338  0.3137624758084235  1.0000
  H   H987      1.0  0.24646936311021161  0.5383757218206121  0.3118075924603381  1.0000
  H   H988      1.0  0.2653367021401071  0.5697024928313414  0.3341693872630575  1.0000
  N   N62       1.0  0.7908689372252687  0.6576800914774282  0.4508845252965348  1.0000
  C   C629      1.0  0.8278732218032275  0.6527068655422505  0.4440855417433248  1.0000
  C   C630      1.0  0.7859549232829  0.6827519052248351  0.47463364991035717  1.0000
  C   C631      1.0  0.7775973907585296  0.6244618754513422  0.459493430273651  1.0000
  C   C632      1.0  0.7720666439014345  0.6708549475354565  0.4253306003717572  1.0000
  H   H989      1.0  0.8432164843181977  0.644043384509056  0.46314281958727715  1.0000
  H   H990      1.0  0.8384221454191344  0.6771425905763075  0.4367559024896977  1.0000
  H   H991      1.0  0.8327739465408693  0.6332874893991873  0.42678005690282567  1.0000
  H   H992      1.0  0.7582792262414174  0.6876065524334083  0.48015118597983264  1.0000
  H   H993      1.0  0.7998600016869698  0.673798035603686  0.4942969946624236  1.0000
  H   H994      1.0  0.7957806286545471  0.7080454917056632  0.4689408835568686  1.0000
  H   H995      1.0  0.7497347867782164  0.6274426545610174  0.46488366661801245  1.0000
  H   H996      1.0  0.7914145326283275  0.6137579190099761  0.47864843944008284  1.0000
  H   H997      1.0  0.780716655686911  0.6049525284715679  0.4420174897332032  1.0000
  H   H998      1.0  0.7749975152898322  0.6525985992871667  0.4069560020003965  1.0000
  H   H999      1.0  0.7815928310292931  0.6958454647158795  0.41822060132623085  1.0000
  H   H1000     1.0  0.7440691860388929  0.6752510230314434  0.42969057227363017  1.0000
  N   N63       1.0  0.007755784040869962  0.6548478439887143  0.6614080802841419  1.0000
  C   C633      1.0  0.9985152287938451  0.6922827768177464  0.6608290702125426  1.0000
  C   C634      1.0  0.04073232151431294  0.6476329866905559  0.6463009883230872  1.0000
  C   C635      1.0  0.9806395086779267  0.6362191620961717  0.6469595764738391  1.0000
  C   C636      1.0  0.011175157705862526  0.6431904062755492  0.6914105158132267  1.0000
  H   H1001     1.0  0.9738312689969301  0.6987738197836875  0.6722154303063415  1.0000
  H   H1002     1.0  0.9955254707058943  0.7017752686548113  0.6384238133641281  1.0000
  H   H1003     1.0  0.018607424000494754  0.7071512175029167  0.671305762434427  1.0000
  H   H1004     1.0  0.04760168947429344  0.6194634336824415  0.6451508831559988  1.0000
  H   H1005     1.0  0.03949448723550186  0.6573441585208644  0.6239025558250945  1.0000
  H   H1006     1.0  0.06222614072447996  0.6598883568682825  0.65732092690748  1.0000
  H   H1007     1.0  0.9869094007969692  0.6078946997425497  0.6468693045766943  1.0000
  H   H1008     1.0  0.9775808341509967  0.6443610846950623  0.6242075342312007  1.0000
  H   H1009     1.0  0.9553268559901177  0.6411132090385372  0.6576911938847038  1.0000
  H   H1010     1.0  0.01877201267435824  0.6151639150170604  0.6925942031240573  1.0000
  H   H1011     1.0  0.9866611894900714  0.6477933438776006  0.703428633250504  1.0000
  H   H1012     1.0  0.03129020533293936  0.6569261203123212  0.7030167294853659  1.0000
  N   N64       1.0  0.9316123023115237  0.7932105103554563  0.8220571987699917  1.0000
  C   C637      1.0  0.9327503869589776  0.8128570632764912  0.8491971364358384  1.0000
  C   C638      1.0  0.95611983645991  0.7627144488212431  0.823225861787304  1.0000
  C   C639      1.0  0.9408031172115833  0.8154360412756202  0.7979767932629495  1.0000
  C   C640      1.0  0.8965184570827978  0.7818422120348733  0.817797481174807  1.0000
  H   H1013     1.0  0.9140285277218829  0.8357298670255707  0.8490248230841799  1.0000
  H   H1014     1.0  0.9587140625601366  0.8223312037576695  0.8531380396619619  1.0000
  H   H1015     1.0  0.9259074786348962  0.7968558997779582  0.8678230889931792  1.0000
  H   H1016     1.0  0.956053600054172  0.7477491936541625  0.8028126694448208  1.0000
  H   H1017     1.0  0.9828805622625562  0.770223590411719  0.8268479398551117  1.0000
  H   H1018     1.0  0.9494975407424824  0.7448963517394938  0.8406772233274667  1.0000
  H   H1019     1.0  0.9395456506299916  0.8015847677292451  0.7770580292941023  1.0000
  H   H1020     1.0  0.967347446070896  0.8241240136774471  0.8002800595235183  1.0000
  H   H1021     1.0  0.9231078571069247  0.8389659842531946  0.796653143248788  1.0000
  H   H1022     1.0  0.8775276409825432  0.8042369802453362  0.8166397817366013  1.0000
  H   H1023     1.0  0.8886033921916526  0.7651231545328779  0.8355895055562428  1.0000
  H   H1024     1.0  0.8943303682144725  0.7670043529550458  0.7976049204727818  1.0000
