data_image0
_chemical_formula_structural       FeS2FeS2FeSFeS3FeS2FeS2FeSFeS3FeS2FeS2FeSFeS3FeS2FeS2FeSFeS3FeS2FeS2FeSFeS3FeS2FeS2FeSFeS3FeS2FeS2FeSFeS3FeS2FeS2FeSFeS3C6H4C6H4C6H4C6H4C6H4C6H4C6H4C6H4C6H4C6H4C6H4C6H4C6H4C6H4C6H4C6H4FeS2FeS2FeSFeS3FeS2FeS2FeSFeS3FeS2FeS2FeSFeS3FeS2FeS2FeSFeS3FeS2FeS2FeSFeS3FeS2FeS2FeSFeS3FeS2FeS2FeSFeS3FeS2FeS2FeSFeS3C6H4C6H4C6H4C6H4C6H4C6H4C6H4C6H4C6H4C6H4C6H4C6H4C6H4C6H4C6H4C6H4FeS2FeS2FeSFeS3FeS2FeS2FeSFeS3FeS2FeS2FeSFeS3FeS2FeS2FeSFeS3FeS2FeS2FeSFeS3FeS2FeS2FeSFeS3FeS2FeS2FeSFeS3FeS2FeS2FeSFeS3C6H4C6H4C6H4C6H4C6H4C6H4C6H4C6H4C6H4C6H4C6H4C6H4C6H4C6H4C6H4C6H4FeS2FeS2FeSFeS3FeS2FeS2FeSFeS3FeS2FeS2FeSFeS3FeS2FeS2FeSFeS3FeS2FeS2FeSFeS3FeS2FeS2FeSFeS3FeS2FeS2FeSFeS3FeS2FeS2FeSFeS3C6H4C6H4C6H4C6H4C6H4C6H4C6H4C6H4C6H4C6H4C6H4C6H4C6H4C6H4C6H4C6H4NC4H12NC4H12NC4H12NC4H12NC4H12NC4H12NC4H12NC4H12NC4H12NC4H12NC4H12NC4H12NC4H12NC4H12NC4H12NC4H12NC4H12NC4H12NC4H12NC4H12NC4H12NC4H12NC4H12NC4H12NC4H12NC4H12NC4H12NC4H12NC4H12NC4H12NC4H12NC4H12NC4H12NC4H12NC4H12NC4H12NC4H12NC4H12NC4H12NC4H12NC4H12NC4H12NC4H12NC4H12NC4H12NC4H12NC4H12NC4H12NC4H12NC4H12NC4H12NC4H12NC4H12NC4H12NC4H12NC4H12NC4H12NC4H12NC4H12NC4H12NC4H12NC4H12NC4H12NC4H12
_chemical_formula_sum              "Fe128 S256 C640 H1024 N64"
_cell_length_a       40.618129148807235
_cell_length_b       39.39526749798354
_cell_length_c       43.804175218961596
_cell_angle_alpha    90.21876180961075
_cell_angle_beta     90.14919103806048
_cell_angle_gamma    90.12032729109879

_space_group_name_H-M_alt    "P 1"
_space_group_IT_number       1

loop_
  _space_group_symop_operation_xyz
  'x, y, z'

loop_
  _atom_site_type_symbol
  _atom_site_label
  _atom_site_symmetry_multiplicity
  _atom_site_fract_x
  _atom_site_fract_y
  _atom_site_fract_z
  _atom_site_occupancy
  Fe  Fe1       1.0  0.3942210165265174  0.47359967098164196  0.6994357433452638  1.0000
  S   S1        1.0  0.4194888760075516  0.4239120114537608  0.6907933583869725  1.0000
  S   S2        1.0  0.42084522067434715  0.5233816403125765  0.7026038020858967  1.0000
  Fe  Fe2       1.0  0.3292503034795111  0.44061992690035  0.7148061414452584  1.0000
  S   S3        1.0  0.3486565926620273  0.3881256686282167  0.7078586870745798  1.0000
  S   S4        1.0  0.2764942303947867  0.4466499565868837  0.7279721016376337  1.0000
  Fe  Fe3       1.0  0.3931809487669759  0.4068946319407843  0.7329890050656244  1.0000
  S   S5        1.0  0.4197263451693367  0.3743387279928827  0.7670749614861362  1.0000
  Fe  Fe4       1.0  0.3727248775427378  0.4098782946140619  0.6663550081795769  1.0000
  S   S6        1.0  0.3659840666527043  0.38017509564855806  0.6229691622262004  1.0000
  S   S7        1.0  0.3715965260901302  0.45777383606538613  0.7436660952426329  1.0000
  S   S8        1.0  0.3494445603702261  0.4612225857622179  0.6712806409018716  1.0000
  Fe  Fe5       1.0  0.2529686693353125  0.22594627412934798  0.7573494016142504  1.0000
  S   S9        1.0  0.200132362105235  0.21183171131507816  0.7490879607927088  1.0000
  S   S10       1.0  0.29739253179386227  0.19939877111572268  0.7387678866124173  1.0000
  Fe  Fe6       1.0  0.23587706105053047  0.2861371487400716  0.7968287238583674  1.0000
  S   S11       1.0  0.1814469144794756  0.27789036979899046  0.7928317836611016  1.0000
  S   S12       1.0  0.261587145148689  0.32773393727818956  0.8222941164859817  1.0000
  Fe  Fe7       1.0  0.19399911938592007  0.22288629033024887  0.7990650724260541  1.0000
  S   S13       1.0  0.16763560383050777  0.18718797511716265  0.8304961114464133  1.0000
  Fe  Fe8       1.0  0.19234684910301672  0.2677868087300428  0.7433420281701221  1.0000
  S   S14       1.0  0.1599668814618393  0.28828748991022396  0.7061685838367098  1.0000
  S   S15       1.0  0.24759272025347667  0.23208906966500067  0.8077592221596643  1.0000
  S   S16       1.0  0.24584601288464836  0.2809600522410791  0.7468500611963582  1.0000
  Fe  Fe9       1.0  0.4608348676777828  0.38443862780309473  0.47671203756091596  1.0000
  S   S17       1.0  0.4342029044256847  0.3357316185447628  0.46641056653360347  1.0000
  S   S18       1.0  0.4774197936087609  0.39814747514221166  0.5239836469632233  1.0000
  Fe  Fe10      1.0  0.46616098851242466  0.4040682952986679  0.40984401426961237  1.0000
  S   S19       1.0  0.4411684644745016  0.35623581604770915  0.39436110798394225  1.0000
  S   S20       1.0  0.478983839101279  0.4440412495194317  0.3752265519201747  1.0000
  Fe  Fe11      1.0  0.40615883015107995  0.3669757783054163  0.4324675392111172  1.0000
  S   S21       1.0  0.35283541000551333  0.3642384264233637  0.41910880675651907  1.0000
  Fe  Fe12      1.0  0.4720871137948469  0.330549915123055  0.4295756262016244  1.0000
  S   S22       1.0  0.4990243633579325  0.2813630795659096  0.42382259107760967  1.0000
  S   S23       1.0  0.42925996307967335  0.41635342446421825  0.4462088156166615  1.0000
  S   S24       1.0  0.5004760513689641  0.37744278940595827  0.441813929974917  1.0000
  Fe  Fe13      1.0  0.1899277137880159  0.2990322356760857  0.4700778287436073  1.0000
  S   S25       1.0  0.1742905957376387  0.3531169400710884  0.47658927155728215  1.0000
  S   S26       1.0  0.2031365137001067  0.2804887953654817  0.4229786763689333  1.0000
  Fe  Fe14      1.0  0.19209644158633163  0.2850083517752938  0.5383956648824618  1.0000
  S   S27       1.0  0.17566042595012718  0.33747652784841137  0.5504889767482897  1.0000
  S   S28       1.0  0.21091535324100869  0.2500648766800625  0.5748131836022347  1.0000
  Fe  Fe15      1.0  0.14015513942699298  0.3310190912360728  0.5115385601178142  1.0000
  S   S29       1.0  0.08880670964326719  0.35132351614546425  0.5165928022954062  1.0000
  Fe  Fe16      1.0  0.21122677978554466  0.35432408008567806  0.5147242236397093  1.0000
  S   S30       1.0  0.25131284257773895  0.39202591444528934  0.5247424226032593  1.0000
  S   S31       1.0  0.1532119415024388  0.27640596940181605  0.5026094080372594  1.0000
  S   S32       1.0  0.22998723784135708  0.30227353064593293  0.5050923898395302  1.0000
  Fe  Fe17      1.0  0.35604135834174716  0.43498307377789114  0.9171264059882971  1.0000
  S   S33       1.0  0.3237237213492772  0.47042663721880945  0.8906172216268187  1.0000
  S   S34       1.0  0.36778348783061465  0.3817186621803625  0.9027646464794233  1.0000
  Fe  Fe18      1.0  0.36986346874745424  0.4867790228256552  0.9668513179412839  1.0000
  S   S35       1.0  0.3389225956549235  0.526603024002566  0.944632104255724  1.0000
  S   S36       1.0  0.40073457708166527  0.5001908717827528  0.0075361642072537816  1.0000
  Fe  Fe19      1.0  0.3034433331729495  0.48379368930242533  0.936589483525333  1.0000
  S   S37       1.0  0.24880219530155656  0.48709543159247437  0.9416761309387607  1.0000
  Fe  Fe20      1.0  0.36234071107164423  0.5093575872077216  0.9012055741761753  1.0000
  S   S38       1.0  0.38016903043334294  0.5495308774624484  0.8689749687028688  1.0000
  S   S39       1.0  0.33247008342451206  0.4451239571314686  0.9624488575309356  1.0000
  S   S40       1.0  0.39646716567862234  0.4727732926700027  0.9241469606231896  1.0000
  Fe  Fe21      1.0  0.19542340291812185  0.1829602740309278  0.995953676713191  1.0000
  S   S41       1.0  0.2270423473317936  0.14033882710580683  0.9798738166610441  1.0000
  S   S42       1.0  0.19583408098212582  0.2298192245467614  0.9671072965435271  1.0000
  Fe  Fe22      1.0  0.16966917243428611  0.1433675276336608  0.049804094680580446  1.0000
  S   S43       1.0  0.1991445514848253  0.09689443144310905  0.0378578564573655  1.0000
  S   S44       1.0  0.1322868881575981  0.14049308857396792  0.08797679178186124  1.0000
  Fe  Fe23      1.0  0.24030533015799369  0.1336423911812704  0.0289550076646663  1.0000
  S   S45       1.0  0.2925514614756692  0.12029569031118259  0.041635469652638646  1.0000
  Fe  Fe24      1.0  0.18370531583900976  0.10753478700442981  0.989728047843756  1.0000
  S   S46       1.0  0.17490798614200032  0.06734404894048573  0.9542212459656845  1.0000
  S   S47       1.0  0.21232674566687315  0.1795944354324035  0.04468919874271804  1.0000
  S   S48       1.0  0.1504644097991214  0.1506603594686589  0.002076831711294913  1.0000
  Fe  Fe25      1.0  0.11126452072007742  0.2429348952287587  0.23126852687205213  1.0000
  S   S49       1.0  0.06591281976728625  0.2657881440518651  0.210866875600484  1.0000
  S   S50       1.0  0.1551231820418649  0.23914304415659066  0.20053404195885116  1.0000
  Fe  Fe26      1.0  0.08225731453336627  0.24094960032563972  0.29504496071691877  1.0000
  S   S51       1.0  0.03497079522922819  0.26461749723560596  0.2798299692382124  1.0000
  S   S52       1.0  0.08135683690842477  0.22977041743834958  0.3451581579731506  1.0000
  Fe  Fe27      1.0  0.038897612226568956  0.22886903216327667  0.24040182660970988  1.0000
  S   S53       1.0  0.48295995494048755  0.17520394247616186  0.10014942680405652  1.0000
  Fe  Fe28      1.0  0.06679237260488002  0.298995511707487  0.2523958240774798  1.0000
  S   S54       1.0  0.559304822562571  0.31350439883874814  0.04621675021062189  1.0000
  S   S55       1.0  0.08432847579073635  0.20237742282833443  0.25714261364290875  1.0000
  S   S56       1.0  0.11396567648763295  0.27882076014788876  0.2710668310986616  1.0000
  Fe  Fe29      1.0  0.4472121935839115  0.4187906374451508  0.14639446849369836  1.0000
  S   S57       1.0  0.4726190283794694  0.46792887704000746  0.13651722896488522  1.0000
  S   S58       1.0  0.4105784460268454  0.3956388191666076  0.11383815006821767  1.0000
  Fe  Fe30      1.0  0.48206843211888617  0.41136573901174295  0.206843733021087  1.0000
  S   S59       1.0  0.5111707611262184  0.4596493241966661  0.20209455264922885  1.0000
  S   S60       1.0  0.4878005502846737  0.3750460145855613  0.2455003076461339  1.0000
  Fe  Fe31      1.0  0.46310938015182496  0.4807669980527703  0.18530484824887214  1.0000
  S   S61       1.0  0.4432256577948354  0.5332687240408781  0.1917340618749737  1.0000
  Fe  Fe32      1.0  0.5177908614100075  0.4422334830822716  0.15382011130622414  1.0000
  S   S62       1.0  0.563296113538974  0.4474691672735829  0.12578828564966044  1.0000
  S   S63       1.0  0.43331774734200373  0.43385357416922704  0.19401719043296364  1.0000
  S   S64       1.0  0.49325793416273905  0.39187292231553206  0.15993214986828422  1.0000
  C   C1        1.0  0.5630333387915644  0.3505924160042607  0.06838009756536459  1.0000
  C   C2        1.0  0.5654819410849178  0.3487066317460632  0.10019896138715212  1.0000
  C   C3        1.0  0.5661294975919046  0.37852229481368793  0.11782481742788016  1.0000
  C   C4        1.0  0.5653023692613787  0.4102955655303738  0.10363615786228271  1.0000
  C   C5        1.0  0.563761802281392  0.41219176249352746  0.07177473052607403  1.0000
  C   C6        1.0  0.562278543637582  0.3823625998618255  0.054183753374508425  1.0000
  H   H1        1.0  0.5665670887220511  0.3243309523475773  0.11134270931691137  1.0000
  H   H2        1.0  0.5673903365019042  0.3769356416123664  0.1424479875339077  1.0000
  H   H3        1.0  0.5628366167966176  0.43669090649724107  0.060739057479315406  1.0000
  H   H4        1.0  0.052846664144371  0.4224746656407786  0.2296707282158306  1.0000
  C   C7        1.0  0.4867210699019733  0.14913323968986011  0.13227215158182812  1.0000
  C   C8        1.0  0.4735044766546239  0.1163473622668769  0.1319963669003381  1.0000
  C   C9        1.0  0.49616333809241586  0.548720072018795  0.22813225215568417  1.0000
  C   C10       1.0  0.472802881525156  0.5606967037543771  0.2073176459484108  1.0000
  C   C11       1.0  0.473498593065615  0.5947058762204627  0.19823684558624446  1.0000
  C   C12       1.0  0.5054586797538012  0.16010431200278258  0.1572633767132212  1.0000
  H   H5        1.0  0.9508651128957903  0.1442638969437012  0.21520763891310798  1.0000
  H   H6        1.0  0.4952805438224511  0.5226535727956039  0.23570723049334683  1.0000
  H   H7        1.0  0.4553027418519527  0.6041009053929527  0.18231194371548115  1.0000
  H   H8        1.0  0.5152730472084809  0.185650167698971  0.15785600651476317  1.0000
  C   C13       1.0  0.13932348196853517  0.16772689202213983  0.11934297054081466  1.0000
  C   C14       1.0  0.1175569295430728  0.16704697164015106  0.14409830052431216  1.0000
  C   C15       1.0  0.12204710102715326  0.18911950042526263  0.1690272004679503  1.0000
  C   C16       1.0  0.14889798050534425  0.21139577314695657  0.1695838095799031  1.0000
  C   C17       1.0  0.17096016185464838  0.21176431976214585  0.14509199166865805  1.0000
  C   C18       1.0  0.1660672291101663  0.19011754876205098  0.11995462140963009  1.0000
  H   H9        1.0  0.09752896826452276  0.14909474624931154  0.14412575930895688  1.0000
  H   H10       1.0  0.1051899270191781  0.18845986964736766  0.18807602321669253  1.0000
  H   H11       1.0  0.191872205664581  0.2288145087644175  0.14551306251771196  1.0000
  H   H12       1.0  0.1831430766453364  0.190699334971124  0.10122510606417756  1.0000
  C   C19       1.0  0.40511964558176305  0.4658855764024527  0.03234600825258882  1.0000
  C   C20       1.0  0.43493512604322787  0.4615714860133687  0.047801505089901886  1.0000
  C   C21       1.0  0.43738367913146686  0.43766192858508624  0.07120167530208628  1.0000
  C   C22       1.0  0.40972563646346116  0.41901837570558403  0.07996863479652574  1.0000
  C   C23       1.0  0.38043364458415047  0.42176811009759846  0.06329501342032562  1.0000
  C   C24       1.0  0.37819471127391674  0.4450829694569641  0.039242187401368644  1.0000
  H   H13       1.0  0.4560070984759994  0.4771274616935239  0.04208064542679013  1.0000
  H   H14       1.0  0.46062850371872516  0.4339749545869791  0.08270124433679987  1.0000
  H   H15       1.0  0.35903331298695446  0.4071542550078508  0.06990218435150934  1.0000
  H   H16       1.0  0.35503489733330945  0.4484959348136692  0.027446161504785183  1.0000
  C   C25       1.0  0.23746436113163813  0.5239419951269515  0.9615035530624704  1.0000
  C   C26       1.0  0.2055945558469812  0.5367367954250458  0.9581879684286208  1.0000
  C   C27       1.0  0.1972719569461619  0.5680129071384714  0.9713569874955731  1.0000
  C   C28       1.0  0.31694898678418487  0.11891976240670804  0.008554267996956133  1.0000
  C   C29       1.0  0.3413295509650349  0.09402442224041296  0.005141506883900249  1.0000
  C   C30       1.0  0.3588812358661403  0.09131692174656836  0.9776066364667341  1.0000
  H   H17       1.0  0.1875088424605471  0.5228625699618177  0.9448738917193928  1.0000
  H   H18       1.0  0.17258546719090723  0.5777385726463662  0.9686720968813198  1.0000
  H   H19       1.0  0.3456984565170203  0.07591301341588053  0.023171032301425143  1.0000
  H   H20       1.0  0.37677329855966046  0.07128407366355671  0.974572379957367  1.0000
  C   C31       1.0  0.4228939791608564  0.5442638038358308  0.8656694041414297  1.0000
  C   C32       1.0  0.5444393222779519  0.15449119727113617  0.8749446397764757  1.0000
  C   C33       1.0  0.5679290177021352  0.15485899195071462  0.8514884435202522  1.0000
  C   C34       1.0  0.6014569105033064  0.15764820175039812  0.8585803522460597  1.0000
  C   C35       1.0  0.47828176321391586  0.5678898826601866  0.8655890956969651  1.0000
  C   C36       1.0  0.4439540664721718  0.5724249294180582  0.8642203556083111  1.0000
  H   H21       1.0  0.5186156374403957  0.15128899110080912  0.8695035228269555  1.0000
  H   H22       1.0  0.5601816239704789  0.15177605887151419  0.8279807062236498  1.0000
  H   H23       1.0  0.49452307252832056  0.5896672219236211  0.8649518558047006  1.0000
  H   H24       1.0  0.4337691850351277  0.5977519488911547  0.863030311189721  1.0000
  C   C37       1.0  0.16898280867295856  0.2675006406018656  0.4011939419723352  1.0000
  C   C38       1.0  0.17197003568869315  0.26380239292836366  0.3694760964278558  1.0000
  C   C39       1.0  0.1450274599993287  0.25263894177432883  0.351919173454567  1.0000
  C   C40       1.0  0.11528685604363077  0.2445589724852885  0.3661945456947403  1.0000
  C   C41       1.0  0.11238955579595764  0.24811453935872793  0.3978610998668113  1.0000
  C   C42       1.0  0.13901018473392393  0.2600578342730858  0.4152773610554606  1.0000
  H   H25       1.0  0.19517334481958348  0.2694039247488661  0.3585044382691144  1.0000
  H   H26       1.0  0.14756655942567512  0.24945843350258173  0.32751484023913063  1.0000
  H   H27       1.0  0.08961787789068011  0.2413915135501133  0.4090274285166363  1.0000
  H   H28       1.0  0.1365417306808236  0.2626442586355768  0.4396875442746331  1.0000
  C   C43       1.0  0.4845876489318258  0.42572845158795786  0.3390630197270281  1.0000
  C   C44       1.0  0.4809760204876742  0.44546020886345344  0.3127310892850938  1.0000
  C   C45       1.0  0.4818388084842351  0.4300579657238938  0.2837841533367455  1.0000
  C   C46       1.0  0.4866201183817568  0.39498947690912306  0.28125106429775687  1.0000
  C   C47       1.0  0.49113827025797197  0.3755011191954214  0.30752791450807143  1.0000
  C   C48       1.0  0.49023970019665514  0.39089481346159904  0.33635023094874084  1.0000
  H   H29       1.0  0.4769477741921936  0.4725153567054116  0.3147254899570872  1.0000
  H   H30       1.0  0.4785346504708421  0.4452618217520349  0.26352298303016447  1.0000
  H   H31       1.0  0.49520553283302954  0.3484309748952192  0.3056784210863112  1.0000
  H   H32       1.0  0.49404586030003883  0.37577027765707294  0.3564981662520795  1.0000
  C   C49       1.0  0.3254109966792909  0.37612400555687314  0.4480945910295584  1.0000
  C   C50       1.0  0.2916034505420495  0.3745537743203324  0.4421664477360608  1.0000
  C   C51       1.0  0.26897037695925996  0.37982080023538145  0.46572354539291716  1.0000
  C   C52       1.0  0.27999016981619573  0.38807403144771124  0.495082724646923  1.0000
  C   C53       1.0  0.31384026499807527  0.3911819000198577  0.5008089671163257  1.0000
  C   C54       1.0  0.3366198734078584  0.38479370366375465  0.4773548068611125  1.0000
  H   H33       1.0  0.28279448771501653  0.36848853185850455  0.4194706598353122  1.0000
  H   H34       1.0  0.242886866512573  0.3776453514699294  0.4611178860530846  1.0000
  H   H35       1.0  0.32248832660992627  0.3974682948629853  0.5235341385293916  1.0000
  H   H36       1.0  0.3627531769020419  0.38608828406451845  0.48208286123361893  1.0000
  C   C55       1.0  0.5350086427286529  0.28690502084049363  0.40226734205123993  1.0000
  C   C56       1.0  0.5584471577045657  0.26094964952280975  0.40092417805226976  1.0000
  C   C57       1.0  0.5877131807060786  0.26563024221227033  0.38449748463230105  1.0000
  C   C58       1.0  0.5934633698488289  0.29612994590233566  0.3691108490166056  1.0000
  C   C59       1.0  0.5700457045131748  0.3221157420338203  0.3705373910404638  1.0000
  C   C60       1.0  0.5409219219735092  0.3175302557634891  0.38718484840834133  1.0000
  H   H37       1.0  0.5541215493676259  0.23730266813576076  0.4127721040235927  1.0000
  H   H38       1.0  0.6057820364362557  0.245608891946584  0.38379658406146244  1.0000
  H   H39       1.0  0.5744416123514106  0.34587179593405615  0.3589169660679552  1.0000
  H   H40       1.0  0.5229741358423085  0.3376401608874905  0.3882052152690788  1.0000
  C   C61       1.0  0.1753291661739285  0.28030015440213274  0.6695006577314169  1.0000
  C   C62       1.0  0.20706318547514013  0.26731337348081396  0.6655183164794333  1.0000
  C   C63       1.0  0.2183509563704138  0.2592958985282493  0.6361334927033231  1.0000
  C   C64       1.0  0.19776290298093588  0.26369238691128083  0.6108233719111867  1.0000
  C   C65       1.0  0.1665105477312466  0.27784196419353785  0.6146355698263  1.0000
  C   C66       1.0  0.15531973549958905  0.286181867358904  0.643987747859013  1.0000
  H   H41       1.0  0.22274871674247637  0.2631623003773655  0.6850857994583154  1.0000
  H   H42       1.0  0.24295576324129933  0.24950285348071824  0.6329420967967908  1.0000
  H   H43       1.0  0.1505630154601893  0.28136278254284325  0.5950809476019526  1.0000
  H   H44       1.0  0.1308295227665686  0.2963792957881109  0.6470244555637135  1.0000
  C   C67       1.0  0.17577811371522764  0.1991461941595591  0.8683329587422227  1.0000
  C   C68       1.0  0.18830389023972965  0.23142090353129913  0.8750846299243009  1.0000
  C   C69       1.0  0.19402716568379083  0.2410002655557393  0.9055207286041469  1.0000
  C   C70       1.0  0.18764501302920636  0.21817258180992474  0.9291837380198532  1.0000
  C   C71       1.0  0.17532497243091216  0.1858033157240039  0.9223462875208386  1.0000
  C   C72       1.0  0.16929946119150174  0.17635962479673117  0.8919827256347036  1.0000
  H   H45       1.0  0.1932267999076348  0.24921619175697687  0.8569300331573068  1.0000
  H   H46       1.0  0.20357267792562175  0.26600232445138694  0.9107283602122069  1.0000
  H   H47       1.0  0.17044631786882192  0.16797295658038275  0.9404252965902894  1.0000
  H   H48       1.0  0.15997792734677707  0.15126139611570222  0.8868902504053079  1.0000
  C   C73       1.0  0.39671123592693525  0.3864269634879167  0.5954573856670446  1.0000
  C   C74       1.0  0.42687860322653476  0.4012622321816754  0.6033224300194321  1.0000
  C   C75       1.0  0.451574658146482  0.40489667479755936  0.5812252385091076  1.0000
  C   C76       1.0  0.4459429336447011  0.39424377679884964  0.551126952189069  1.0000
  C   C77       1.0  0.41550336005576655  0.3800673549352515  0.5431225294349974  1.0000
  C   C78       1.0  0.39103366732859074  0.37585354199965193  0.5653335789963934  1.0000
  H   H49       1.0  0.4314378403773921  0.4094700760465433  0.6264742475491338  1.0000
  H   H50       1.0  0.4750407981643422  0.41600618632273095  0.5874529051731844  1.0000
  H   H51       1.0  0.41082115379440354  0.37219811550077814  0.5199024152343434  1.0000
  H   H52       1.0  0.3676552338069928  0.3645563875122745  0.5591097931389143  1.0000
  C   C79       1.0  0.4054858224056623  0.37734847121807225  0.8047930980201827  1.0000
  C   C80       1.0  0.41645881228776754  0.3538568834740383  0.8264053804701998  1.0000
  C   C81       1.0  0.4043877051330813  0.35492135814228093  0.8563552903879098  1.0000
  C   C82       1.0  0.3822557698035216  0.3802929680932574  0.8650882754544552  1.0000
  C   C83       1.0  0.3717189455037432  0.4041441369298105  0.8436228071082791  1.0000
  C   C84       1.0  0.3829500549802218  0.4023549244741372  0.8134155847044482  1.0000
  H   H53       1.0  0.4341912879081554  0.3346842949860183  0.8199616102467912  1.0000
  H   H54       1.0  0.4127381559744517  0.33653172481972476  0.8729335934214525  1.0000
  H   H55       1.0  0.3543532340200578  0.4235411482089528  0.8500242313224367  1.0000
  H   H56       1.0  0.37414580342852716  0.4203860394468679  0.7969641823293683  1.0000
  C   C85       1.0  0.2698971045862456  0.41630621468382634  0.7564013329204926  1.0000
  C   C86       1.0  0.2933263133788224  0.41206986499634307  0.7795342460387883  1.0000
  C   C87       1.0  0.28969954284600147  0.38594643847341303  0.8008666108080904  1.0000
  C   C88       1.0  0.26328931274724665  0.36324837198067517  0.7984057560427428  1.0000
  C   C89       1.0  0.23967310422153243  0.36765436666975826  0.7754542383149902  1.0000
  C   C90       1.0  0.242721321544756  0.39451159510083134  0.7547032559208426  1.0000
  H   H57       1.0  0.31440176394957503  0.42879632637499776  0.7808656217094311  1.0000
  H   H58       1.0  0.30820090430662006  0.382436707731564  0.8183418031882235  1.0000
  H   H59       1.0  0.21916408764209774  0.35019979291778275  0.7734867336087324  1.0000
  H   H60       1.0  0.22472168424633884  0.3975391443841954  0.736668398441943  1.0000
  C   C91       1.0  0.3977836517748351  0.5556086267814875  0.6854505169721417  1.0000
  C   C92       1.0  0.37777002095258677  0.5484278955171237  0.6602202355871327  1.0000
  C   C93       1.0  0.31258164714024045  0.13545521635386204  0.7189296846064567  1.0000
  C   C94       1.0  0.2903306888945596  0.15563995876907433  0.7352088038890647  1.0000
  C   C95       1.0  0.26099066951194  0.14143425518606068  0.7459376584260216  1.0000
  C   C96       1.0  0.3975170343790162  0.5881009871159182  0.6984473592413106  1.0000
  H   H61       1.0  0.37867074820613045  0.5236895226517897  0.6495216476362139  1.0000
  H   H62       1.0  0.3354162989793019  0.14629331039611776  0.7107799379889208  1.0000
  H   H63       1.0  0.24414660501361235  0.1565689673572259  0.7592445583134845  1.0000
  H   H64       1.0  0.4132846511073472  0.5938621267302456  0.7177411132471118  1.0000
  Fe  Fe33      1.0  0.30576528146992377  0.012969215232311981  0.706278301459872  1.0000
  S   S65       1.0  0.34542229103547056  0.015059218633253213  0.6706571423532135  1.0000
  S   S66       1.0  0.26220183740033615  0.04762346410092144  0.7088995166464312  1.0000
  Fe  Fe34      1.0  0.33542047192820035  0.9527808444597776  0.7389596903494938  1.0000
  S   S67       1.0  0.37805367097540316  0.9500654287034103  0.7069239517185383  1.0000
  S   S68       1.0  0.32595500566745417  0.9153188730376913  0.7766240703642988  1.0000
  Fe  Fe35      1.0  0.37911578209473545  0.0066689772726520324  0.7106267302670025  1.0000
  S   S69       1.0  0.4283898243773922  0.03218842021039037  0.7130655561472075  1.0000
  Fe  Fe36      1.0  0.340778105128517  0.958335547187426  0.6700301669304036  1.0000
  S   S70       1.0  0.34457964361387816  0.9220275297093766  0.6305159700834925  1.0000
  S   S71       1.0  0.33990641337682803  0.00900780294809711  0.7464303409210779  1.0000
  S   S72       1.0  0.29777172493810067  0.9569014394474278  0.7018669272275614  1.0000
  Fe  Fe37      1.0  0.31195024899084006  0.672356582936572  0.6867739754480399  1.0000
  S   S73       1.0  0.25868275363069365  0.6730149156358249  0.699339987220475  1.0000
  S   S74       1.0  0.3252230495251139  0.6343492226488059  0.6506576600743731  1.0000
  Fe  Fe38      1.0  0.3279889108424494  0.7319841569310239  0.7282347476111978  1.0000
  S   S75       1.0  0.27588522224722273  0.737579881775039  0.7442622035978047  1.0000
  S   S76       1.0  0.36976061815131306  0.7666935292903482  0.7408426135306644  1.0000
  Fe  Fe39      1.0  0.27683161472429824  0.6804949632398194  0.7472246953935551  1.0000
  S   S77       1.0  0.2569978406708438  0.6452385734420732  0.7833059726215489  1.0000
  Fe  Fe40      1.0  0.26282508150199935  0.7294352912666593  0.6948564350006254  1.0000
  S   S78       1.0  0.22284090831127074  0.7589169375774735  0.6708253803059878  1.0000
  S   S79       1.0  0.33016543538017745  0.6755941917637525  0.7350036554580366  1.0000
  S   S80       1.0  0.3149912906712873  0.7281561678763142  0.6786064727444134  1.0000
  Fe  Fe41      1.0  0.40900415836769705  0.9403662388978334  0.47104089317589226  1.0000
  S   S81       1.0  0.39836826623238597  0.8846807665682538  0.47507149205375626  1.0000
  S   S82       1.0  0.3841528735533806  0.9788740509704477  0.5012837739606351  1.0000
  Fe  Fe42      1.0  0.45667915504021017  0.9302267635403576  0.4183050003061158  1.0000
  S   S83       1.0  0.4504992412443443  0.8738697260019973  0.41827718825513016  1.0000
  S   S84       1.0  0.4899502880217593  0.954127025650116  0.3836194352179619  1.0000
  Fe  Fe43      1.0  0.39691839955848796  0.885509265082102  0.42405302664972344  1.0000
  S   S85       1.0  0.35848534083360817  0.85707557916371  0.39770076378478325  1.0000
  Fe  Fe44      1.0  0.4528053335712383  0.8787074967252154  0.4691917364956302  1.0000
  S   S86       1.0  0.4837800478180456  0.8458827281273713  0.4994402590090614  1.0000
  S   S87       1.0  0.4027431702400214  0.9417854569414043  0.42008393006246425  1.0000
  S   S88       1.0  0.4638460879001114  0.9344918981528466  0.46896602992849845  1.0000
  Fe  Fe45      1.0  0.1665385553829564  0.7818363231725387  0.44153593615128034  1.0000
  S   S89       1.0  0.14271923186263052  0.8329995728576289  0.44124728002098823  1.0000
  S   S90       1.0  0.152366790389561  0.7427546637070372  0.40628669852863336  1.0000
  Fe  Fe46      1.0  0.20474581029280098  0.7962992307901277  0.49999446070658793  1.0000
  S   S91       1.0  0.18363833761644496  0.8484924132955303  0.5051240707722655  1.0000
  S   S92       1.0  0.2463633831970749  0.7779837151530568  0.5296091336469142  1.0000
  Fe  Fe47      1.0  0.13573879567744337  0.8243340929119077  0.49137623718623813  1.0000
  S   S93       1.0  0.08686286579436042  0.8339686768872228  0.5140639929913667  1.0000
  Fe  Fe48      1.0  0.19251176864786365  0.8525518004719441  0.45476018966031273  1.0000
  S   S94       1.0  0.21580158851818515  0.9003665984832788  0.4372235373915961  1.0000
  S   S95       1.0  0.15602116422066156  0.7713342437005782  0.4908918130761539  1.0000
  S   S96       1.0  0.2172345594042156  0.802002976817575  0.4504761503103519  1.0000
  Fe  Fe49      1.0  0.4736051451194139  0.051130437570114484  0.8837330564900919  1.0000
  S   S97       1.0  0.457128113875643  0.10548903494166328  0.8845981280173959  1.0000
  S   S98       1.0  0.4914252368887715  0.018961741684348388  0.844468419956853  1.0000
  Fe  Fe50      1.0  0.47146019173839715  0.04435577126608403  0.9526391276283924  1.0000
  S   S99       1.0  0.45394842157397586  0.09754781480115904  0.9603152377021827  1.0000
  S   S100      1.0  0.4906469578749211  0.009204769270369395  0.9884475311927734  1.0000
  Fe  Fe51      1.0  0.4212076998491076  0.08715244644888731  0.9199687815906741  1.0000
  S   S101      1.0  0.36997569665993485  0.10801559380270431  0.917490625230728  1.0000
  Fe  Fe52      1.0  0.4908808559271062  0.11182567460539117  0.9248283427190248  1.0000
  S   S102      1.0  0.5260219564915017  0.15438349673302731  0.9350692373537561  1.0000
  S   S103      1.0  0.43488143648998995  0.03200062385645763  0.9157492926446444  1.0000
  S   S104      1.0  0.5112088870976003  0.05952085240110594  0.9204199935975347  1.0000
  Fe  Fe53      1.0  0.1475132199853629  0.6845723283240456  0.9167405647487706  1.0000
  S   S105      1.0  0.15966226772058026  0.6298373353878977  0.9246827088505072  1.0000
  S   S106      1.0  0.16578637756481412  0.7187334428852364  0.8795954800445882  1.0000
  Fe  Fe54      1.0  0.10910640411262251  0.6916889361060857  0.9753230153320126  1.0000
  S   S107      1.0  0.11702110176580571  0.6375909548622722  0.9888650334633943  1.0000
  S   S108      1.0  0.07937515783850446  0.7279865954680331  0.0035343329828332326  1.0000
  Fe  Fe55      1.0  0.16870416531661137  0.6459636762591139  0.9731245567698383  1.0000
  S   S109      1.0  0.2118381914230908  0.6277173333530447  0.00038100172827615353  1.0000
  Fe  Fe56      1.0  0.10698430509699876  0.625681927069505  0.9396133320897656  1.0000
  S   S110      1.0  0.07573632187242986  0.5800057670098523  0.9296094915735216  1.0000
  S   S111      1.0  0.16186891049541374  0.7011703957091767  0.9637952939146858  1.0000
  S   S112      1.0  0.09377486940109274  0.6791565422401586  0.9274770238693468  1.0000
  Fe  Fe57      1.0  0.12665301830575978  0.7599412315462027  0.1651591326828948  1.0000
  S   S113      1.0  0.08024906995547498  0.7291099075991031  0.16473284493713822  1.0000
  S   S114      1.0  0.15577551284917351  0.7711233291608455  0.12289795780295792  1.0000
  Fe  Fe58      1.0  0.1270657524969054  0.7675890945907159  0.23436844589786562  1.0000
  S   S115      1.0  0.08121048065560843  0.7364352444903861  0.23990312713349002  1.0000
  S   S116      1.0  0.15125749404224403  0.7990083846890536  0.2712406140835502  1.0000
  Fe  Fe59      1.0  0.10343634525286133  0.7022356519904893  0.20423930148524214  1.0000
  S   S117      1.0  0.55269916537745  0.6313738653978689  0.24366451303545628  1.0000
  Fe  Fe60      1.0  0.06240120475518141  0.7658537695762282  0.19986233773969692  1.0000
  S   S118      1.0  0.5083094312738512  0.7647874223741497  0.15051006001701223  1.0000
  S   S119      1.0  0.15132649324852254  0.7306273402210918  0.20248496337577113  1.0000
  S   S120      1.0  0.10669513803741075  0.7995572070794131  0.19664554338652857  1.0000
  Fe  Fe61      1.0  0.4464477332066365  0.9918869912862113  0.15052950277882696  1.0000
  S   S121      1.0  0.5002073805976219  0.004756576616670394  0.14820071069052854  1.0000
  S   S122      1.0  0.4123616100806241  0.007150277302271801  0.1124342123142962  1.0000
  Fe  Fe62      1.0  0.4520474584610136  0.9635849325428953  0.214845310615163  1.0000
  S   S123      1.0  0.506068479574105  0.9747793901335271  0.21777134062714715  1.0000
  S   S124      1.0  0.42570510674335915  0.9365051783343646  0.2528926046899406  1.0000
  Fe  Fe63      1.0  0.4927484045579002  0.024203930656665262  0.1957303337682855  1.0000
  S   S125      1.0  0.5117768400731888  0.07569450350837714  0.20904785943052337  1.0000
  Fe  Fe64      1.0  0.5077572911245094  0.9540129606669016  0.17001063333098212  1.0000
  S   S126      1.0  0.5496369836909251  0.9192141512709465  0.15771644539411545  1.0000
  S   S127      1.0  0.43840960740538687  0.014822544058186393  0.19681942719827672  1.0000
  S   S128      1.0  0.45442411194857435  0.9392159545843802  0.16845310733668895  1.0000
  C   C97       1.0  0.5202289195290228  0.8076458340316671  0.15114320683795843  1.0000
  C   C98       1.0  0.5517466427327388  0.8170120572800471  0.1609825956050272  1.0000
  C   C99       1.0  0.5611987190383215  0.8512407864640016  0.16113813645718025  1.0000
  C   C100      1.0  0.5387312986545028  0.8764103854279183  0.15272209010336749  1.0000
  C   C101      1.0  0.5072611084245969  0.8670941511878159  0.1426276532745291  1.0000
  C   C102      1.0  0.4981178134969036  0.8327036373065388  0.1416018500193306  1.0000
  H   H65       1.0  0.5687947338724474  0.7980629755291978  0.16898577551487481  1.0000
  H   H66       1.0  0.5855496712721558  0.858341023775005  0.16904411609928  1.0000
  H   H67       1.0  0.4899911982400741  0.8863705538793301  0.1355535952820762  1.0000
  H   H68       1.0  0.9687156718642328  0.8415286778077669  0.21806759709535745  1.0000
  C   C103      1.0  0.5213722000123243  0.6046042693494259  0.2302534049637162  1.0000
  C   C104      1.0  0.5202675272078975  0.5707719895108492  0.2398247945873886  1.0000
  C   C105      1.0  0.48006228287781044  0.09416599817980131  0.15620234783816622  1.0000
  C   C106      1.0  0.5001869008604691  0.10457134868645857  0.18053396674095606  1.0000
  C   C107      1.0  0.5121424730522006  0.1378741607377585  0.18137249839848  1.0000
  C   C108      1.0  0.4980031222164845  0.6165696784271726  0.20944956747729537  1.0000
  H   H69       1.0  0.08688006409211291  0.5748927924349894  0.2007442966691947  1.0000
  H   H70       1.0  0.46999249548914257  0.06882429700596027  0.1556910552572608  1.0000
  H   H71       1.0  0.5271201827129819  0.14637062760700315  0.20026790041258022  1.0000
  H   H72       1.0  0.49836773930384626  0.6428613855677779  0.20248534316162742  1.0000
  C   C109      1.0  0.10047521093759218  0.7426430196326848  0.036008480785846286  1.0000
  C   C110      1.0  0.08281977045893023  0.7517142933166162  0.062188685248680375  1.0000
  C   C111      1.0  0.0995960338395549  0.7614753085907882  0.08887578890604725  1.0000
  C   C112      1.0  0.13401057225738708  0.7628298465244808  0.08915621928636604  1.0000
  C   C113      1.0  0.15153262975643972  0.755498812756405  0.06251558117212008  1.0000
  C   C114      1.0  0.13484799193157213  0.7448122099635548  0.0361750266642491  1.0000
  H   H73       1.0  0.056203830773828845  0.7503658786543794  0.06210235973362144  1.0000
  H   H74       1.0  0.08589731705547148  0.7680405177994205  0.10915497701569606  1.0000
  H   H75       1.0  0.17813931274890066  0.7570566430745688  0.0625676292261006  1.0000
  H   H76       1.0  0.14873933894538402  0.7382788548140402  0.01615223798065868  1.0000
  C   C115      1.0  0.46751605948044095  0.007449079183836416  0.02200617230001134  1.0000
  C   C116      1.0  0.48046814833207085  0.9903117310695756  0.047197353513182216  1.0000
  C   C117      1.0  0.46316819802440107  0.9896137416118805  0.07476900434488691  1.0000
  C   C118      1.0  0.4328427230107849  0.006030806318554349  0.0772546708406796  1.0000
  C   C119      1.0  0.4193889434678673  0.022432389275867326  0.05175691790210691  1.0000
  C   C120      1.0  0.43690102068799047  0.023467094582822368  0.024179014932497633  1.0000
  H   H77       1.0  0.5039715852294177  0.9775670071632587  0.045444019719751205  1.0000
  H   H78       1.0  0.4731274778566243  0.9758558037739836  0.09395207303072034  1.0000
  H   H79       1.0  0.39551266865531937  0.034355263598864205  0.05325628841455865  1.0000
  H   H80       1.0  0.42663933947825  0.03637416598282561  0.004594018018282409  1.0000
  C   C121      1.0  0.35193098943495504  0.11345898049234915  0.9535242954508065  1.0000
  C   C122      1.0  0.32878289961667273  0.13928410442277572  0.9575517766309432  1.0000
  C   C123      1.0  0.31139554669190145  0.1420860614158399  0.985015226057683  1.0000
  C   C124      1.0  0.22088600790301036  0.5866459603677825  0.9876320220310449  1.0000
  C   C125      1.0  0.25229282752358767  0.5731105750071825  0.9922176363548953  1.0000
  C   C126      1.0  0.26052367821032385  0.5416734941710172  0.9792405724568513  1.0000
  H   H81       1.0  0.32442425383160683  0.1572176652732229  0.9393869939958734  1.0000
  H   H82       1.0  0.2937653929073536  0.16232341206881307  0.9880448105671588  1.0000
  H   H83       1.0  0.2704349300421434  0.5872311002363679  0.005218160117198334  1.0000
  H   H84       1.0  0.28463633844007813  0.5311284857157225  0.9831021426271639  1.0000
  C   C127      1.0  0.5544930014630721  0.15778619380695913  0.9053835103274029  1.0000
  C   C128      1.0  0.4361930684885092  0.5116320282826431  0.8667216048667342  1.0000
  C   C129      1.0  0.4702904406735147  0.5071184671610399  0.8682958601651303  1.0000
  C   C130      1.0  0.4913792562351037  0.5352095916342517  0.8684342385674857  1.0000
  C   C131      1.0  0.6111986476557912  0.16252907813906514  0.8889249853513188  1.0000
  C   C132      1.0  0.5877959850991931  0.16240555110023092  0.912310573032726  1.0000
  H   H85       1.0  0.42013845893331775  0.48972356241500525  0.8663597772584797  1.0000
  H   H86       1.0  0.48029808965818294  0.48177292621815637  0.8702511977445596  1.0000
  H   H87       1.0  0.6368360911109272  0.1653016755928287  0.8945973118213781  1.0000
  H   H88       1.0  0.595698281625436  0.16436124874967706  0.9358583415028747  1.0000
  C   C133      1.0  0.15243094637100865  0.7582248958646947  0.3687129745536488  1.0000
  C   C134      1.0  0.1398456627015017  0.7380429260606337  0.34494742374930004  1.0000
  C   C135      1.0  0.13918422300912764  0.7503581730236517  0.31488185756238735  1.0000
  C   C136      1.0  0.15130137514665673  0.7828237514223715  0.30856030158400205  1.0000
  C   C137      1.0  0.16360903048955422  0.8030792291727208  0.332387780675477  1.0000
  C   C138      1.0  0.1640833616581743  0.7908653572231498  0.36243095856881724  1.0000
  H   H89       1.0  0.13092527677191723  0.7127196478662945  0.3497174662602917  1.0000
  H   H90       1.0  0.12988978094375664  0.7345131155415817  0.2965597176587422  1.0000
  H   H91       1.0  0.17321833509707335  0.8281179136208447  0.3275675297093094  1.0000
  H   H92       1.0  0.1740318962003351  0.8064891100335474  0.3806156382720239  1.0000
  C   C139      1.0  0.472713667365358  0.949197868030333  0.34704416702186175  1.0000
  C   C140      1.0  0.4815828941016187  0.9712155513727087  0.3233916416329747  1.0000
  C   C141      1.0  0.46694068374051667  0.9678826748615387  0.2944183416376215  1.0000
  C   C142      1.0  0.44403497482190546  0.941978603077297  0.2889035931541105  1.0000
  C   C143      1.0  0.43586221268450576  0.9195049718345533  0.31232440909055487  1.0000
  C   C144      1.0  0.44981296897769174  0.9233487186598344  0.3414172545465784  1.0000
  H   H93       1.0  0.4991445754482963  0.9913806801896949  0.32769298277552306  1.0000
  H   H94       1.0  0.4730865434534846  0.9856328902927034  0.276554737514086  1.0000
  H   H95       1.0  0.4187327404831633  0.899028762944985  0.30798332500842923  1.0000
  H   H96       1.0  0.44294288380026636  0.9061316479030536  0.35943382992151607  1.0000
  C   C145      1.0  0.31870824278825866  0.8704946501591814  0.40711617956706436  1.0000
  C   C146      1.0  0.3137265396026203  0.9009833803855407  0.4229512821768945  1.0000
  C   C147      1.0  0.2816902596387207  0.9114671231538881  0.4301479973098552  1.0000
  C   C148      1.0  0.25479146272764824  0.8907357383258852  0.42272778702662817  1.0000
  C   C149      1.0  0.25975444415712134  0.8606725407870996  0.4063509717523509  1.0000
  C   C150      1.0  0.2916635799555577  0.8507534096925397  0.3982525997646211  1.0000
  H   H97       1.0  0.33450439803888543  0.9164200211555095  0.42981883359019163  1.0000
  H   H98       1.0  0.27785233891108485  0.934863667970854  0.4426486956166013  1.0000
  H   H99       1.0  0.23897055632068137  0.8448925448546039  0.40006492499740437  1.0000
  H   H100      1.0  0.2954144212955254  0.8272575011892315  0.38585090173692627  1.0000
  C   C151      1.0  0.5020811811721728  0.812559746212938  0.47912487515815516  1.0000
  C   C152      1.0  0.4882554729735474  0.8007579162578666  0.4518004677119874  1.0000
  C   C153      1.0  0.5054305891047554  0.7773688707516885  0.4336703413634558  1.0000
  C   C154      1.0  0.5364696978404874  0.7658610789270107  0.44285368687627613  1.0000
  C   C155      1.0  0.5494300092316243  0.7762656187695858  0.4709725689311384  1.0000
  C   C156      1.0  0.5321449307957341  0.799428656833051  0.4892039339389456  1.0000
  H   H101      1.0  0.46439081314967307  0.8097195080905715  0.4445636806360611  1.0000
  H   H102      1.0  0.4950468923654944  0.7689426369469352  0.4121624532955075  1.0000
  H   H103      1.0  0.572723492892928  0.7664637612517787  0.4787265880300162  1.0000
  H   H104      1.0  0.5425795819572768  0.8079990022181016  0.5106482833971392  1.0000
  C   C157      1.0  0.22935138453707996  0.7664051983469858  0.6317652591812034  1.0000
  C   C158      1.0  0.26110966388782314  0.7657181753406425  0.6196333698389983  1.0000
  C   C159      1.0  0.26604972448292846  0.7705100275605306  0.5883689369175978  1.0000
  C   C160      1.0  0.23923966179686357  0.77607006189666  0.5689643832113188  1.0000
  C   C161      1.0  0.20747849844186925  0.7780981205346559  0.581055786414263  1.0000
  C   C162      1.0  0.20257432243855397  0.7733859813294418  0.612532322317759  1.0000
  H   H105      1.0  0.2819955452818683  0.7615810921757501  0.6342001992922455  1.0000
  H   H106      1.0  0.2907183323680347  0.7693838980799969  0.5791341039649378  1.0000
  H   H107      1.0  0.1866544862494331  0.7824637009925037  0.5661144475308193  1.0000
  H   H108      1.0  0.17793032322558516  0.7743247652004278  0.6218416991627779  1.0000
  C   C163      1.0  0.23139059922518526  0.6657909761705156  0.8097610277905705  1.0000
  C   C164      1.0  0.2323711073077808  0.7010560123390354  0.8131780294846858  1.0000
  C   C165      1.0  0.21194502433794368  0.7171597073527212  0.8344998311570541  1.0000
  C   C166      1.0  0.1907587837623844  0.6979977959724593  0.8527752599048999  1.0000
  C   C167      1.0  0.18981518178007792  0.6626689511506603  0.8494731347408143  1.0000
  C   C168      1.0  0.2101053154024127  0.6465853453284552  0.8279690973981533  1.0000
  H   H109      1.0  0.24912384340356072  0.7159775880415529  0.7997099046868762  1.0000
  H   H110      1.0  0.21280637223781462  0.744477953812036  0.8369936405751964  1.0000
  H   H111      1.0  0.17279433532971092  0.6478390593064169  0.8628133807627031  1.0000
  H   H112      1.0  0.20878898735276508  0.6193566332180308  0.8250054093176691  1.0000
  C   C169      1.0  0.35672090538547535  0.9390794454692163  0.5954608406766334  1.0000
  C   C170      1.0  0.37577474460651183  0.9192243223376282  0.5757597546216219  1.0000
  C   C171      1.0  0.3849006787749712  0.9316659227102622  0.5470959472638629  1.0000
  C   C172      1.0  0.3744494219490872  0.9637750202879602  0.537761506500683  1.0000
  C   C173      1.0  0.35589486385548474  0.9839582836650452  0.5577347853753912  1.0000
  C   C174      1.0  0.34718595945139685  0.9716981213558104  0.5866929366337544  1.0000
  H   H113      1.0  0.38372572954681583  0.8942049509667322  0.5827467697700014  1.0000
  H   H114      1.0  0.4002545771528518  0.9164685079984854  0.5323867943384057  1.0000
  H   H115      1.0  0.3478949233204313  0.008899976833829593  0.5506063115610795  1.0000
  H   H116      1.0  0.3323382969336029  0.9870741379534417  0.6018297964843567  1.0000
  C   C175      1.0  0.44551872100957374  0.02984457616449432  0.7498231701130454  1.0000
  C   C176      1.0  0.43049708365762374  0.04576105083075688  0.7748609068235546  1.0000
  C   C177      1.0  0.444920169010217  0.04366939834781136  0.8040755915444818  1.0000
  C   C178      1.0  0.4738688073197393  0.0249600185533716  0.8082239889116162  1.0000
  C   C179      1.0  0.4885978422489292  0.008950382111596156  0.7831945421605176  1.0000
  C   C180      1.0  0.4747074025427047  0.011733092151087865  0.7540419501448637  1.0000
  H   H117      1.0  0.40800339301807304  0.0600008011332136  0.771605972709376  1.0000
  H   H118      1.0  0.4334278086671291  0.0561205525015811  0.8233533209146148  1.0000
  H   H119      1.0  0.5108534808185533  0.9943153517164419  0.7863073557774377  1.0000
  H   H120      1.0  0.48638317951929816  0.9994431097326955  0.7347867072688445  1.0000
  C   C181      1.0  0.338973016468736  0.8739452042752316  0.7677859344164804  1.0000
  C   C182      1.0  0.32193583602361225  0.8460060093217714  0.7796640274681068  1.0000
  C   C183      1.0  0.3311724174070772  0.8128497260726127  0.7714925515362238  1.0000
  C   C184      1.0  0.35800967931972993  0.807645631013638  0.7520585104869948  1.0000
  C   C185      1.0  0.3756553521457646  0.8355579905530183  0.7410694652053694  1.0000
  C   C186      1.0  0.36594669810264596  0.8686263412920592  0.7486481418698994  1.0000
  H   H121      1.0  0.30119764982341785  0.8499732504902507  0.7947096526197056  1.0000
  H   H122      1.0  0.3177680989830636  0.7913084337181158  0.7803985774458605  1.0000
  H   H123      1.0  0.3965921789289497  0.8315521160986458  0.726251189980038  1.0000
  H   H124      1.0  0.37975936878183003  0.8898447799060561  0.7400009655793258  1.0000
  C   C187      1.0  0.27440858260115986  0.0880908009140764  0.7211185212898842  1.0000
  C   C188      1.0  0.30474619880694764  0.10154900093430541  0.7121074679726829  1.0000
  C   C189      1.0  0.35653613944736845  0.5733151007919526  0.6487353323278596  1.0000
  C   C190      1.0  0.3549577938164588  0.605221513376734  0.6627754302045312  1.0000
  C   C191      1.0  0.3759272706422731  0.6128570092785911  0.6872286613526286  1.0000
  C   C192      1.0  0.25276763826357623  0.10787282226487038  0.738429791189807  1.0000
  H   H125      1.0  0.3216236810302856  0.08625261956744201  0.6988749650123501  1.0000
  H   H126      1.0  0.34070656441527747  0.5674741415851327  0.6295129468078932  1.0000
  H   H127      1.0  0.37557343455447345  0.6378189582192275  0.6974963981775744  1.0000
  H   H128      1.0  0.22949640895617898  0.0973112265408409  0.745785895249042  1.0000
  Fe  Fe65      1.0  0.8498391950369475  0.47747739086690255  0.6178670628964711  1.0000
  S   S129      1.0  0.9048620367514205  0.4795580321486654  0.6213262730223647  1.0000
  S   S130      1.0  0.8189211473506909  0.5176836869355294  0.5957792679802414  1.0000
  Fe  Fe66      1.0  0.8449438805171606  0.4119822897985256  0.6538466726143983  1.0000
  S   S131      1.0  0.8994770980578732  0.4083680858389774  0.6609627856652631  1.0000
  S   S132      1.0  0.8091518150887511  0.37506753756198247  0.6742863505673142  1.0000
  Fe  Fe67      1.0  0.8967776309486912  0.4643605263550106  0.6700196211169075  1.0000
  S   S133      1.0  0.9225372966463717  0.4918294971835401  0.7082031394789322  1.0000
  Fe  Fe68      1.0  0.9023367086140915  0.4236517225646079  0.6116834685754065  1.0000
  S   S134      1.0  0.9350785464499298  0.39574542666314033  0.5788726494022579  1.0000
  S   S135      1.0  0.8418133932508329  0.4667507175429027  0.667307884317641  1.0000
  S   S136      1.0  0.8477701881712578  0.42279180478043576  0.6037708837892793  1.0000
  Fe  Fe69      1.0  0.6949985591711865  0.16308383408386687  0.6171127753523534  1.0000
  S   S137      1.0  0.6463215702882646  0.18961194371084691  0.6209287168819393  1.0000
  S   S138      1.0  0.6973851366443891  0.10667019582952003  0.6252230439923699  1.0000
  Fe  Fe70      1.0  0.7313433535974613  0.2277378139186046  0.6014963953416789  1.0000
  S   S139      1.0  0.6861779648292645  0.26000644025394626  0.6045977105852478  1.0000
  S   S140      1.0  0.7792607549973021  0.2507470079925298  0.5867733724038914  1.0000
  Fe  Fe71      1.0  0.6748664979478668  0.22953845968491768  0.6463295717186662  1.0000
  S   S141      1.0  0.6528939219146259  0.2505241236733544  0.689433862013061  1.0000
  Fe  Fe72      1.0  0.661863202143448  0.21755935904999388  0.5788972003206546  1.0000
  S   S142      1.0  0.6290223657954842  0.23322473566795898  0.540073824740841  1.0000
  S   S143      1.0  0.7224632095140866  0.20095789053413615  0.6458341103253785  1.0000
  S   S144      1.0  0.7080582195950352  0.18734160062388916  0.5725275351252104  1.0000
  Fe  Fe73      1.0  0.9309732773250498  0.42457798281345877  0.41026437951026995  1.0000
  S   S145      1.0  0.9125799966240495  0.37089431882263946  0.40637144321527147  1.0000
  S   S146      1.0  0.9178168549230243  0.4600056640353906  0.4486093592274017  1.0000
  Fe  Fe74      1.0  0.9707119112093783  0.42103470482665295  0.3520338472738548  1.0000
  S   S147      1.0  0.9562144897080866  0.36703232314881046  0.3428943282481888  1.0000
  S   S148      1.0  0.007522154636972811  0.4449487832588711  0.3204660038634877  1.0000
  Fe  Fe75      1.0  0.9056107290235326  0.3832589738082973  0.3567786018215092  1.0000
  S   S149      1.0  0.8615540079614149  0.36917704987548877  0.32810650208360387  1.0000
  Fe  Fe76      1.0  0.9646727862746415  0.3594064813694331  0.3929490020322799  1.0000
  S   S150      1.0  0.9935618293271865  0.31369050963867917  0.40743834916042354  1.0000
  S   S151      1.0  0.9192803346479924  0.43821380515281294  0.36171507981497875  1.0000
  S   S152      1.0  0.9838228934739048  0.41197614601200516  0.4009533808682702  1.0000
  Fe  Fe77      1.0  0.6901073203844155  0.1982539469336447  0.31454336018906764  1.0000
  S   S153      1.0  0.7068032231244602  0.2520825417147132  0.3206801373609151  1.0000
  S   S154      1.0  0.6933774655733141  0.1737363100379707  0.268216724491661  1.0000
  Fe  Fe78      1.0  0.6745515297603983  0.18986027644473405  0.3819422898648047  1.0000
  S   S155      1.0  0.6902961835842264  0.24285055616663165  0.393617983395608  1.0000
  S   S156      1.0  0.6615060732982349  0.15316612797286924  0.41887639595470216  1.0000
  Fe  Fe79      1.0  0.6626088078989563  0.2564996040709782  0.3510245570269114  1.0000
  S   S157      1.0  0.6296395393396756  0.30194950320381003  0.34785620587201  1.0000
  Fe  Fe80      1.0  0.7327592963368086  0.23277874463275897  0.3623501247329668  1.0000
  S   S158      1.0  0.7858996260490045  0.2395576964292159  0.37586131625803193  1.0000
  S   S159      1.0  0.6435368901697966  0.20394688027403643  0.341466113315423  1.0000
  S   S160      1.0  0.7190960735885606  0.1785137386217951  0.35399676518723217  1.0000
  Fe  Fe81      1.0  0.8529770453830655  0.5361204993734441  0.8567092269018035  1.0000
  S   S161      1.0  0.856415885364063  0.5925954073902865  0.8515630647918786  1.0000
  S   S162      1.0  0.8281205837293787  0.5031924436758813  0.8217055324815782  1.0000
  Fe  Fe82      1.0  0.8912080844482038  0.5358006727526063  0.916328516906433  1.0000
  S   S163      1.0  0.8973771315464328  0.5922529766561244  0.9169980283289708  1.0000
  S   S164      1.0  0.9136261206236936  0.5014490172546878  0.9512322577640028  1.0000
  Fe  Fe83      1.0  0.8447011392768498  0.5934050897480051  0.9014836439033362  1.0000
  S   S165      1.0  0.8083525431166542  0.6309107207526502  0.9202479959481882  1.0000
  Fe  Fe84      1.0  0.9086003984908229  0.5859542312102186  0.8672841553359416  1.0000
  S   S166      1.0  0.952129165746531  0.6129591512049739  0.8474897001240701  1.0000
  S   S167      1.0  0.8373445038029447  0.5370440139536137  0.9057218186564835  1.0000
  S   S168      1.0  0.9063382419744492  0.5292036448285701  0.8676065843272116  1.0000
  Fe  Fe85      1.0  0.7347166613143918  0.22010742883781342  0.8333450249721029  1.0000
  S   S169      1.0  0.7259447187207102  0.1658891853057582  0.8198601966513724  1.0000
  S   S170      1.0  0.7551842562825309  0.25463540619521197  0.797354941973431  1.0000
  Fe  Fe86      1.0  0.7135184958902642  0.2083511855165984  0.8989870291444797  1.0000
  S   S171      1.0  0.7034942411364302  0.1530917544413955  0.8908468125355338  1.0000
  S   S172      1.0  0.7080468623318285  0.23464120066966304  0.9444790769592588  1.0000
  Fe  Fe87      1.0  0.7504046811606039  0.1537245121920538  0.864341125189965  1.0000
  S   S173      1.0  0.7837436878375207  0.10887961261631791  0.870080077234791  1.0000
  Fe  Fe88      1.0  0.679924418630862  0.1708445008516936  0.8474574378328441  1.0000
  S   S174      1.0  0.6312049885760981  0.15188821238658948  0.8300497618519851  1.0000
  S   S175      1.0  0.7627897051552913  0.20769935011429488  0.8759521268767964  1.0000
  S   S176      1.0  0.6864026364230567  0.2262802940660441  0.857422115717229  1.0000
  Fe  Fe89      1.0  0.6003701207972301  0.1987419320692935  0.07660025895481719  1.0000
  S   S177      1.0  0.5538901747696354  0.2161167081973839  0.054111234694570916  1.0000
  S   S178      1.0  0.628641525657955  0.16078576640716433  0.04871893774894942  1.0000
  Fe  Fe90      1.0  0.5855638722374211  0.23679227985247453  0.13533527001022902  1.0000
  S   S179      1.0  0.5375078087919052  0.2566797633790586  0.11748872858242163  1.0000
  S   S180      1.0  0.5961296311376394  0.2551083867564259  0.18308495390813512  1.0000
  Fe  Fe91      1.0  0.5303225980025484  0.20443190006221648  0.09880155089489967  1.0000
  S   S181      1.0  0.9938127434515612  0.20131014361138583  0.2243415121045861  1.0000
  Fe  Fe92      1.0  0.565861713595935  0.2667024718680598  0.0747147049197814  1.0000
  S   S182      1.0  0.06300282064640506  0.355472701016999  0.25235792737615603  1.0000
  S   S183      1.0  0.5759511889976568  0.18314849620644874  0.12021000780923433  1.0000
  S   S184      1.0  0.6147404766835091  0.2507258348267065  0.09355091655886062  1.0000
  Fe  Fe93      1.0  0.9229106954125238  0.5224761347828143  0.11713345920729201  1.0000
  S   S185      1.0  0.966632441669024  0.49542304445356045  0.097592594801045  1.0000
  S   S186      1.0  0.8799652753216571  0.5378672914407161  0.08775406872567734  1.0000
  Fe  Fe94      1.0  0.9547662422759057  0.5305535338521732  0.17965697605608774  1.0000
  S   S187      1.0  0.001371501541775011  0.5052295084396478  0.16498419693395397  1.0000
  S   S188      1.0  0.9466589855325808  0.5495943945243438  0.22754537691104731  1.0000
  Fe  Fe95      1.0  0.9958699464642352  0.535265785175023  0.12210377851871719  1.0000
  S   S189      1.0  0.03621509746940954  0.5648619946915463  0.09965681646863483  1.0000
  Fe  Fe96      1.0  0.9677785693251947  0.46758561053633524  0.14229978299751417  1.0000
  S   S190      1.0  0.9735615624737958  0.410721348040284  0.1455119490853772  1.0000
  S   S191      1.0  0.9522337629879467  0.5644089994900556  0.13878026757642578  1.0000
  S   S192      1.0  0.9210966814966358  0.4910757813348751  0.1597219100788299  1.0000
  C   C193      1.0  0.03770096122155686  0.3705575763739483  0.22306920455463342  1.0000
  C   C194      1.0  0.01798073876070383  0.3483469138332686  0.20597630932839517  1.0000
  C   C195      1.0  0.9986758905963249  0.36084487621840944  0.18190833300197928  1.0000
  C   C196      1.0  0.998707681103626  0.39558598871858186  0.17516510583682776  1.0000
  C   C197      1.0  0.01828243422635989  0.4176470922200274  0.19249753115979437  1.0000
  C   C198      1.0  0.037747675830089644  0.4051914707874182  0.2163768561203253  1.0000
  H   H129      1.0  0.01740746466913312  0.3216096323668172  0.2113618616466423  1.0000
  H   H130      1.0  0.983440220323718  0.3436461220662014  0.1686716109622605  1.0000
  H   H131      1.0  0.018631106034138645  0.44430629675106315  0.18761109007356896  1.0000
  H   H132      1.0  0.5604053405944521  0.3839566131399501  0.029592105143362524  1.0000
  C   C199      1.0  0.9885140005458309  0.16389002521865878  0.2452600359955129  1.0000
  C   C200      1.0  0.9664740283070508  0.13920710714070622  0.23467800163473185  1.0000
  C   C201      1.0  0.06601537056379159  0.5697111497210812  0.15567193587204262  1.0000
  C   C202      1.0  0.057732277102513274  0.5862784633935796  0.12856107452995771  1.0000
  C   C203      1.0  0.06538159216490791  0.6205964747506397  0.12506876346859383  1.0000
  C   C204      1.0  0.007879776962088192  0.15737888598925245  0.27105038396781855  1.0000
  H   H133      1.0  0.45930792213309296  0.10754873967362366  0.1126649219371911  1.0000
  H   H134      1.0  0.06086746546399513  0.5429809857848036  0.15824056833399372  1.0000
  H   H135      1.0  0.05824353230335766  0.6335714262136865  0.10438049666227212  1.0000
  H   H136      1.0  0.024348383192759115  0.17662670964525332  0.2797987453150078  1.0000
  C   C205      1.0  0.6867512282322449  0.21313561661416594  0.9734081399414136  1.0000
  C   C206      1.0  0.6841843210336044  0.22828980443301938  0.002264483695433972  1.0000
  C   C207      1.0  0.6667574509882296  0.21205931595982372  0.02565947860429385  1.0000
  C   C208      1.0  0.6522001283455765  0.18038890461274765  0.020351406895297467  1.0000
  C   C209      1.0  0.6553533825792848  0.16486547187351544  0.9917071170152979  1.0000
  C   C210      1.0  0.6723449607354626  0.1813665926647996  0.9681814527230083  1.0000
  H   H137      1.0  0.6953428102269317  0.2528564476433077  0.006464589825159406  1.0000
  H   H138      1.0  0.6645569520136303  0.2240731819354545  0.047800785328906414  1.0000
  H   H139      1.0  0.6438613471145624  0.140478727858846  0.9874638552915087  1.0000
  H   H140      1.0  0.6737377352631231  0.16966526804409185  0.9459807852117836  1.0000
  C   C211      1.0  0.9030863554467791  0.511492902934997  0.9888473134053651  1.0000
  C   C212      1.0  0.9109646247009248  0.48873413196744636  0.012148902654105287  1.0000
  C   C213      1.0  0.9033246987245441  0.49656400047819577  0.04252033614614725  1.0000
  C   C214      1.0  0.8879923818184238  0.52728200315368  0.049677646596647085  1.0000
  C   C215      1.0  0.8798171062432066  0.5499846410230872  0.02634190808687098  1.0000
  C   C216      1.0  0.8873905560356871  0.542097050929922  0.9958815530845532  1.0000
  H   H141      1.0  0.9229538684611347  0.46495579006270976  0.006717167143417635  1.0000
  H   H142      1.0  0.9090454211877815  0.47863817237895195  0.06039327306503429  1.0000
  H   H143      1.0  0.8682788320557183  0.5739400590101341  0.0319404702085786  1.0000
  H   H144      1.0  0.8814443465484493  0.5597988982774309  0.9779073293916566  1.0000
  C   C217      1.0  0.7693700355388388  0.612181914454859  0.921958112759026  1.0000
  C   C218      1.0  0.7454055575784306  0.6255496280164612  0.9414592769762378  1.0000
  C   C219      1.0  0.7157379330486223  0.6079813281824129  0.9458789936498792  1.0000
  C   C220      1.0  0.8174845042545605  0.11689410447522863  0.8940110137425806  1.0000
  C   C221      1.0  0.8322046028602178  0.08993876550583814  0.9095567508135819  1.0000
  C   C222      1.0  0.8598125924377168  0.09570583168777703  0.9280437544621575  1.0000
  H   H145      1.0  0.7502902366884107  0.6487149343825644  0.9540542152121383  1.0000
  H   H146      1.0  0.6976352964252416  0.6176465378805356  0.9617709659782706  1.0000
  H   H147      1.0  0.8222498424036924  0.0645279457440906  0.9074619721782077  1.0000
  H   H148      1.0  0.8710443167255917  0.07470909426516249  0.9399623889962603  1.0000
  C   C223      1.0  0.9864983274106337  0.6042857351804988  0.8704189038543637  1.0000
  C   C224      1.0  0.10107101283266062  0.049590495844608506  0.894745830411923  1.0000
  C   C225      1.0  0.1320218847644532  0.05066353091693965  0.9088462960776523  1.0000
  C   C226      1.0  0.13619519439438288  0.06786387369300129  0.9365626022775275  1.0000
  C   C227      1.0  0.04267768189337473  0.6167194338990626  0.8860246416118883  1.0000
  C   C228      1.0  0.015027943917332198  0.6240602327319126  0.8679383883070518  1.0000
  H   H149      1.0  0.09800267879715463  0.03644722969621039  0.8731758754537207  1.0000
  H   H150      1.0  0.15275488507682788  0.03812090725326178  0.8982382641609846  1.0000
  H   H151      1.0  0.06468602825447523  0.6319691726944822  0.8839952808707017  1.0000
  H   H152      1.0  0.01565613329612625  0.6452067762315673  0.8522569230163195  1.0000
  C   C229      1.0  0.6670381433922979  0.19596072551107674  0.24365741659187048  1.0000
  C   C230      1.0  0.6625006416496154  0.18565221598218426  0.21324174358124717  1.0000
  C   C231      1.0  0.6406334603924646  0.2034754426309086  0.19414894415105935  1.0000
  C   C232      1.0  0.6234397252613185  0.23150931974711914  0.2056223890268713  1.0000
  C   C233      1.0  0.6278457491979237  0.24130959915649147  0.23605076946273362  1.0000
  C   C234      1.0  0.6496456427406615  0.2237916464676672  0.2549543303512422  1.0000
  H   H153      1.0  0.6758637638389707  0.16400984749435385  0.20444270151430352  1.0000
  H   H154      1.0  0.6372471005165224  0.19572050042222613  0.17062382079715455  1.0000
  H   H155      1.0  0.6140239838879347  0.2622242012265635  0.24523574047266455  1.0000
  H   H156      1.0  0.6526382438117044  0.2317647296152084  0.27840505885147593  1.0000
  C   C235      1.0  0.9920962705682123  0.4769187461869693  0.29661510259793794  1.0000
  C   C236      1.0  0.9629531560245739  0.4941038170099992  0.303596377667  1.0000
  C   C237      1.0  0.9497853543702311  0.5176180521148255  0.2828782462850464  1.0000
  C   C238      1.0  0.9653473614028676  0.5233387327416481  0.2548628274929884  1.0000
  C   C239      1.0  0.9951128130661481  0.5070883577498848  0.2484747056649267  1.0000
  C   C240      1.0  0.008619586050789163  0.48418573699998146  0.2694273674905618  1.0000
  H   H157      1.0  0.9505662438321637  0.4893561040837562  0.32493220835564024  1.0000
  H   H158      1.0  0.926968139719786  0.5304821459808987  0.288142966887105  1.0000
  H   H159      1.0  0.008019771075999493  0.5123689999945694  0.22758036655101732  1.0000
  H   H160      1.0  0.031443173984984085  0.4713448932753224  0.26415385978259776  1.0000
  C   C241      1.0  0.8405600652847954  0.3332012162677404  0.3414390094468278  1.0000
  C   C242      1.0  0.8559523020701624  0.31055700033911665  0.3613796790226807  1.0000
  C   C243      1.0  0.8389133705563844  0.28184650202602407  0.371783351773572  1.0000
  C   C244      1.0  0.8063324855444829  0.2759169134929792  0.362595525884149  1.0000
  C   C245      1.0  0.7909289949762358  0.298525273481715  0.34263045675798215  1.0000
  C   C246      1.0  0.8081652819524786  0.326958656986951  0.3318212999890902  1.0000
  H   H161      1.0  0.8810199484780467  0.31510519869241904  0.36868894572099764  1.0000
  H   H162      1.0  0.8508846092857335  0.2644259456589668  0.38725909870425534  1.0000
  H   H163      1.0  0.7656919961833315  0.29437425367662645  0.3357167525938798  1.0000
  H   H164      1.0  0.7961632910347884  0.3445426111199874  0.3165021099871075  1.0000
  C   C247      1.0  0.01902100687350683  0.3230981345841935  0.43874216076914835  1.0000
  C   C248      1.0  0.011845687326161203  0.35041709298891444  0.4580186271340061  1.0000
  C   C249      1.0  0.03319312359214899  0.3586706462623392  0.4821429788356421  1.0000
  C   C250      1.0  0.062205475381084785  0.3401532636790312  0.48655553436666094  1.0000
  C   C251      1.0  0.06940795003566302  0.3128116617501414  0.4672356109929252  1.0000
  C   C252      1.0  0.04752369369774123  0.30396382656101684  0.44365563030581234  1.0000
  H   H165      1.0  0.9897386724585744  0.36510798573454045  0.454495389603333  1.0000
  H   H166      1.0  0.02744249120113995  0.3798388927519369  0.49699839526891615  1.0000
  H   H167      1.0  0.09168199327336835  0.29834460842363764  0.47057763502775335  1.0000
  H   H168      1.0  0.053095036316364475  0.28286704401908447  0.4287492884165118  1.0000
  C   C253      1.0  0.6364427748144055  0.21000308154319308  0.5065912507267024  1.0000
  C   C254      1.0  0.6502899664807874  0.17757390887581123  0.5079195740413609  1.0000
  C   C255      1.0  0.6572381148304836  0.1598187666800987  0.4808763076370569  1.0000
  C   C256      1.0  0.6509274664540321  0.17473600988912028  0.452504019026895  1.0000
  C   C257      1.0  0.6370781755536675  0.20718226379134608  0.45120941453597097  1.0000
  C   C258      1.0  0.6296174165859578  0.22469476405121486  0.47823454467086296  1.0000
  H   H169      1.0  0.655095809650308  0.16589650625172828  0.5297673700287158  1.0000
  H   H170      1.0  0.6677895311496036  0.13465082320048508  0.48191400322618855  1.0000
  H   H171      1.0  0.6317289682241038  0.21860213323101602  0.4293638256126574  1.0000
  H   H172      1.0  0.6190050972374533  0.24979070843801401  0.4771028758122627  1.0000
  C   C259      1.0  0.6815194260199724  0.257058094459204  0.7188651377957231  1.0000
  C   C260      1.0  0.6705040598102624  0.25798128404943343  0.7490873145933695  1.0000
  C   C261      1.0  0.6931778676566093  0.2575437808166656  0.7732185835354257  1.0000
  C   C262      1.0  0.7269357039304464  0.25718248927191384  0.7671853172895144  1.0000
  C   C263      1.0  0.738019796759784  0.257984345033656  0.7369492487645887  1.0000
  C   C264      1.0  0.7152957611539082  0.25802297639698746  0.7127938714696234  1.0000
  H   H173      1.0  0.6443683850429603  0.25757688805299905  0.7538554114219852  1.0000
  H   H174      1.0  0.6844609227438931  0.2573978121571235  0.7964913348422276  1.0000
  H   H175      1.0  0.764087250436086  0.2571832090557735  0.7320567085050166  1.0000
  H   H176      1.0  0.7239112057342779  0.25776368120600296  0.6895024040197564  1.0000
  C   C265      1.0  0.9339390664568855  0.4142871852881982  0.5426102747256181  1.0000
  C   C266      1.0  0.9275489530415388  0.4489439492752784  0.5395184138699723  1.0000
  C   C267      1.0  0.9249528069186516  0.4633141618391673  0.5104228611363039  1.0000
  C   C268      1.0  0.9275600629942461  0.4428750887614229  0.4843678894740138  1.0000
  C   C269      1.0  0.935027319457273  0.4084116669208403  0.48741639612822707  1.0000
  C   C270      1.0  0.9386155915033115  0.39418644320569074  0.5165589128030453  1.0000
  H   H177      1.0  0.9247932346036435  0.4647669593780775  0.5595046448044072  1.0000
  H   H178      1.0  0.9204826098708238  0.4902161601211096  0.5080950994144418  1.0000
  H   H179      1.0  0.937168320361634  0.39253075055564185  0.46738371808930745  1.0000
  H   H180      1.0  0.9437611536775803  0.36737923603019906  0.5188417936578436  1.0000
  C   C271      1.0  0.895905119592291  0.4949214965206518  0.7394390584490954  1.0000
  C   C272      1.0  0.899301157878094  0.5219686833731492  0.7599634407071059  1.0000
  C   C273      1.0  0.8787396649071572  0.5242880105171663  0.7854830679324231  1.0000
  C   C274      1.0  0.854123403314253  0.5000106381424945  0.7900736716246571  1.0000
  C   C275      1.0  0.8500473379686942  0.4734524386491779  0.769117414293216  1.0000
  C   C276      1.0  0.8711853831926564  0.4706640160710571  0.7439589858253598  1.0000
  H   H181      1.0  0.917447868118047  0.5414532662632504  0.7558568839492911  1.0000
  H   H182      1.0  0.8815597620114494  0.5452404262385692  0.8012820285151825  1.0000
  H   H183      1.0  0.8309724334500188  0.4547678048603535  0.7726673946602841  1.0000
  H   H184      1.0  0.8686652108150666  0.4495113418962261  0.7283076900341237  1.0000
  C   C277      1.0  0.8017862974701244  0.3401158938056499  0.6501749669488339  1.0000
  C   C278      1.0  0.7751891744679811  0.31851198748151605  0.6561587284378246  1.0000
  C   C279      1.0  0.7684383053590456  0.29105132273879525  0.6366997695260321  1.0000
  C   C280      1.0  0.7884270085905964  0.28479234875890647  0.6113731978116672  1.0000
  C   C281      1.0  0.8153948792843699  0.30600749850905856  0.6056162061497831  1.0000
  C   C282      1.0  0.8220415346701666  0.3337163695968307  0.6249876132745086  1.0000
  H   H185      1.0  0.7593918692003089  0.32318859928190175  0.6755116537579973  1.0000
  H   H186      1.0  0.7476346646332259  0.2747955900894499  0.6412627702596982  1.0000
  H   H187      1.0  0.8310532507521184  0.3011336357086683  0.5861586685691953  1.0000
  H   H188      1.0  0.8429750840015566  0.34991356803257995  0.6205355905349368  1.0000
  C   C283      1.0  0.8226483439423181  0.5551954790373537  0.617297694808404  1.0000
  C   C284      1.0  0.8494313096830932  0.5596559418512655  0.6370404973376533  1.0000
  C   C285      1.0  0.7238882919504129  0.0632135774707383  0.6668881481726083  1.0000
  C   C286      1.0  0.7267235925766578  0.09475894087534598  0.6525069499356723  1.0000
  C   C287      1.0  0.7530912222161893  0.11615766832347955  0.65979234554425  1.0000
  C   C288      1.0  0.7983647999984388  0.5803120181362131  0.6155495251557006  1.0000
  H   H189      1.0  0.868340595951544  0.5405055518747943  0.6385052950945851  1.0000
  H   H190      1.0  0.7033734647764194  0.04666176091873631  0.6614477666338627  1.0000
  H   H191      1.0  0.7561530980952925  0.1399471169584616  0.6480459310293409  1.0000
  H   H192      1.0  0.7776924771337907  0.5770314421211419  0.6001879716802297  1.0000
  Fe  Fe97      1.0  0.8113304555888973  0.00480124128043502  0.7229968443951781  1.0000
  S   S193      1.0  0.8572588151963592  0.9830173305408987  0.7027679553865975  1.0000
  S   S194      1.0  0.8049844683951891  0.06129076755287932  0.7205624977193861  1.0000
  Fe  Fe98      1.0  0.789884672550322  0.9372299111946547  0.7491551383952934  1.0000
  S   S195      1.0  0.833978524177721  0.9095841408230494  0.7313265286204773  1.0000
  S   S196      1.0  0.7536265732038961  0.9128850085182234  0.7805977741940896  1.0000
  Fe  Fe99      1.0  0.8620146250733869  0.9554358657172002  0.7472141942305763  1.0000
  S   S197      1.0  0.9102509899302632  0.9538999227699366  0.7723697323510496  1.0000
  Fe  Fe100     1.0  0.8248782964934682  0.939507894375104  0.6885730954797513  1.0000
  S   S198      1.0  0.8235830342527415  0.9138129289588413  0.6424870658032416  1.0000
  S   S199      1.0  0.8186639135387587  0.9807433959239102  0.7685460913265896  1.0000
  S   S200      1.0  0.778113207039615  0.9636111251700822  0.7052485038449803  1.0000
  Fe  Fe101     1.0  0.7832565786713386  0.6777078983207637  0.68778802217374  1.0000
  S   S201      1.0  0.7354993903724746  0.6723767574086832  0.662449297461444  1.0000
  S   S202      1.0  0.8296301654371993  0.6484455260315902  0.6791556254748746  1.0000
  Fe  Fe102     1.0  0.7558415004659329  0.7286111636005981  0.7331081259154744  1.0000
  S   S203      1.0  0.7061034450560132  0.7287703151494708  0.7110063724484323  1.0000
  S   S204      1.0  0.7637819652777977  0.7534390106084304  0.7787186918818421  1.0000
  Fe  Fe103     1.0  0.7122313196815254  0.6724144949856918  0.7087798224792201  1.0000
  S   S205      1.0  0.6738189977622122  0.6345696732735897  0.7228928626481695  1.0000
  Fe  Fe104     1.0  0.733812446523747  0.7292022097368802  0.6668270654704507  1.0000
  S   S206      1.0  0.7151675357769769  0.7635176122230939  0.6296121073976717  1.0000
  S   S207      1.0  0.7601398743080373  0.6721147150740476  0.7337726644191122  1.0000
  S   S208      1.0  0.7834533584469304  0.7347384946753954  0.6891336525068407  1.0000
  Fe  Fe105     1.0  0.9006940041914273  0.9459128650418394  0.4937583853640414  1.0000
  S   S209      1.0  0.9166704773291564  0.891824115139727  0.4898190202799082  1.0000
  S   S210      1.0  0.9121511207184861  0.9735552978116453  0.5374011832250883  1.0000
  Fe  Fe106     1.0  0.8740157741746027  0.9474353596426005  0.4286451792328396  1.0000
  S   S211      1.0  0.8873164840968344  0.8931052831229211  0.4196975657105062  1.0000
  S   S212      1.0  0.8544174421489398  0.9826018637710512  0.3925714658437196  1.0000
  Fe  Fe107     1.0  0.8677045333086546  0.8844402994637606  0.46689225031616693  1.0000
  S   S213      1.0  0.8371781646684521  0.8396122205800873  0.4807181111874075  1.0000
  Fe  Fe108     1.0  0.9345966737211747  0.9061911312534412  0.4433153263464442  1.0000
  S   S214      1.0  0.9839956042030121  0.8964635726616735  0.422215552477503  1.0000
  S   S215      1.0  0.8502640390061124  0.9378656419197166  0.4741111692533111  1.0000
  S   S216      1.0  0.9227983038636757  0.9611440687124199  0.44928001401447265  1.0000
  Fe  Fe109     1.0  0.6766089848576862  0.727032204814587  0.39387035328447634  1.0000
  S   S217      1.0  0.6434536631057602  0.7722054889421137  0.3928702434581496  1.0000
  S   S218      1.0  0.696510157884314  0.7024668821424909  0.35144037424023666  1.0000
  Fe  Fe110     1.0  0.6743553332568131  0.7222134731741423  0.46322286014961195  1.0000
  S   S219      1.0  0.6405106428098312  0.7669808274056469  0.46795479168986426  1.0000
  S   S220      1.0  0.69559366113398  0.6914637762249338  0.5017388693431919  1.0000
  Fe  Fe111     1.0  0.6140133139024586  0.7440440807383087  0.4276892871012208  1.0000
  S   S221      1.0  0.5598387572940741  0.740855008611474  0.4178836650508413  1.0000
  Fe  Fe112     1.0  0.6730910072608318  0.7905780710723916  0.43278031066742534  1.0000
  S   S222      1.0  0.6901613849793101  0.8447434321135446  0.43453086341075414  1.0000
  S   S223      1.0  0.6450107339751088  0.6971828330491198  0.4258403261123798  1.0000
  S   S224      1.0  0.7091227380530563  0.7475753671355504  0.4307953037670471  1.0000
  Fe  Fe113     1.0  0.9322275465106683  0.014486124092056407  0.9338322851104052  1.0000
  S   S225      1.0  0.9422582177874217  0.0626787236170685  0.9086863786287451  1.0000
  S   S226      1.0  0.8959158017424423  0.9769213391423544  0.9145657208858251  1.0000
  Fe  Fe114     1.0  0.975512063231403  0.03481039906806993  0.9876091603984962  1.0000
  S   S227      1.0  0.9890750360568361  0.0850616283192176  0.9672038251432102  1.0000
  S   S228      1.0  0.9985970899283421  0.01802268042209043  0.03189068196567213  1.0000
  Fe  Fe115     1.0  0.9357416791131811  0.08766281675021825  0.9542288529144243  1.0000
  S   S229      1.0  0.9064411137143938  0.1356754241916971  0.9551732255929845  1.0000
  Fe  Fe116     1.0  0.9944342119324193  0.05550606438564487  0.9237539863719226  1.0000
  S   S230      1.0  0.03563002345119837  0.06345170663255728  0.8905693988064458  1.0000
  S   S231      1.0  0.9213354633039639  0.03999829011909406  0.978591043484666  1.0000
  S   S232      1.0  0.9852853227839387  0.00465465782625385  0.9449572314320015  1.0000
  Fe  Fe117     1.0  0.6035630601427125  0.6344300995378739  0.8848206831258548  1.0000
  S   S233      1.0  0.6156913277936024  0.5797191363062403  0.8767076639633824  1.0000
  S   S234      1.0  0.6180224128562365  0.6761560726248733  0.8524315670142566  1.0000
  Fe  Fe118     1.0  0.5714821658084297  0.6203527281256895  0.9462298452220395  1.0000
  S   S235      1.0  0.5808239757772596  0.5644684765097352  0.942695977625648  1.0000
  S   S236      1.0  0.542981513628714  0.6400513845727027  0.9868682829230663  1.0000
  Fe  Fe119     1.0  0.6304895611796238  0.579798068626944  0.9258592087102935  1.0000
  S   S237      1.0  0.6760578923569412  0.5522471970831323  0.9399882112080848  1.0000
  Fe  Fe120     1.0  0.5646885167180515  0.5697426857227239  0.8939201305169818  1.0000
  S   S238      1.0  0.5337626083197718  0.5282154955435866  0.8727140919122117  1.0000
  S   S239      1.0  0.6227909369219278  0.6355340753310599  0.9330297053408065  1.0000
  S   S240      1.0  0.5511127853220783  0.62465598029099  0.8985451418196021  1.0000
  Fe  Fe121     1.0  0.6002498338351129  0.6803747803233817  0.14929107162548635  1.0000
  S   S241      1.0  0.5470540546852966  0.6739143970307003  0.16104144386247884  1.0000
  S   S242      1.0  0.6235007598280489  0.6517831131439231  0.1104008307007512  1.0000
  Fe  Fe122     1.0  0.6125499650457966  0.7298950114210826  0.2020100039066702  1.0000
  S   S243      1.0  0.5603205823172687  0.7271574431087118  0.2179358400732283  1.0000
  S   S244      1.0  0.6438238660352964  0.7664234968049126  0.22876552218140792  1.0000
  Fe  Fe123     1.0  0.5652690136862761  0.6713847757779575  0.20938791619623556  1.0000
  S   S245      1.0  0.10239166777243502  0.645296751813666  0.20832443055495303  1.0000
  Fe  Fe124     1.0  0.5479616245141273  0.7304127014691242  0.1682205886290796  1.0000
  S   S246      1.0  0.01080089490213032  0.785957061351562  0.20111161335758415  1.0000
  S   S247      1.0  0.6186539826050798  0.6736471230858679  0.19723632018821205  1.0000
  S   S248      1.0  0.5999983985983511  0.7371195346857281  0.1525644881291433  1.0000
  Fe  Fe125     1.0  0.9340251778140013  0.023635391878650047  0.18968099279610345  1.0000
  S   S249      1.0  0.9868185895697367  0.028582166880789517  0.20361009567127963  1.0000
  S   S250      1.0  0.9164747886169768  0.0543008993676235  0.1497818329698972  1.0000
  Fe  Fe126     1.0  0.9201060001040786  0.9688149938021564  0.2366460230978954  1.0000
  S   S251      1.0  0.9722679065918965  0.9684459284722778  0.25350954667818737  1.0000
  S   S252      1.0  0.8858106278860487  0.9317931420906225  0.25899442283528135  1.0000
  Fe  Fe127     1.0  0.9675694836254611  0.024983321358453603  0.2513063325550706  1.0000
  S   S253      1.0  0.9870537183278674  0.058957517895593226  0.28828769272905835  1.0000
  Fe  Fe128     1.0  0.9856864009470713  0.9718392568255262  0.20410951185357465  1.0000
  S   S254      1.0  0.02546571406346243  0.9427019973338195  0.18052875697495058  1.0000
  S   S255      1.0  0.9143998866521745  0.025405918748206968  0.23757145680108177  1.0000
  S   S256      1.0  0.933997547075051  0.9668740727579178  0.1871238850400827  1.0000
  C   C289      1.0  0.011219696944068103  0.8289092569355837  0.19099795607424708  1.0000
  C   C290      1.0  0.03643586626594719  0.8415551491248379  0.17256834428181228  1.0000
  C   C291      1.0  0.040053390521224363  0.8765964251556336  0.16853171276354503  1.0000
  C   C292      1.0  0.018217435832103224  0.8990150779319624  0.18266375459272088  1.0000
  C   C293      1.0  0.9917857573054457  0.8863651081805786  0.1996508678620468  1.0000
  C   C294      1.0  0.9883184348722035  0.8512552689466725  0.2038430481976814  1.0000
  H   H193      1.0  0.05341216842098784  0.8242980206976387  0.16165005655922052  1.0000
  H   H194      1.0  0.060268192555000155  0.8863003173307022  0.15505453465322983  1.0000
  H   H195      1.0  0.9746932486000853  0.9035871369907491  0.21051652561950057  1.0000
  H   H196      1.0  0.47373134300965275  0.8256037296836178  0.1338327771808084  1.0000
  C   C295      1.0  0.08786586309548228  0.622362088273598  0.1764988794207221  1.0000
  C   C296      1.0  0.08114765095183896  0.5876997128615513  0.1795678828277667  1.0000
  C   C297      1.0  0.96564266077733  0.10720336531693953  0.24836402068557212  1.0000
  C   C298      1.0  0.9859853170437374  0.10011788219009632  0.27334343593704746  1.0000
  C   C299      1.0  0.006462096333196055  0.12553446498736776  0.2852538689126881  1.0000
  C   C300      1.0  0.08078523382041114  0.6385066620681941  0.14885742042984257  1.0000
  H   H197      1.0  0.538214003527919  0.56151748013047  0.25607409656752433  1.0000
  H   H198      1.0  0.949480477417767  0.08791865766846674  0.23924008008318332  1.0000
  H   H199      1.0  0.02224115714069974  0.12016132835077964  0.30457268785435854  1.0000
  H   H200      1.0  0.0867578503417965  0.6648055334530796  0.14580489527584714  1.0000
  C   C301      1.0  0.5652928559360683  0.6419600472263264  0.02127529376523296  1.0000
  C   C302      1.0  0.549471152922479  0.6528198652466856  0.04797186704952061  1.0000
  C   C303      1.0  0.5671058975359224  0.6558544296243735  0.07548369480864138  1.0000
  C   C304      1.0  0.6005988577608727  0.647740857923492  0.07643251802602223  1.0000
  C   C305      1.0  0.6161931643934933  0.636071299929884  0.049903594647488836  1.0000
  C   C306      1.0  0.5986226703137055  0.6332774553334043  0.022340762144206883  1.0000
  H   H201      1.0  0.5235575291566501  0.6590609329458413  0.04728538495118051  1.0000
  H   H202      1.0  0.5547835899991914  0.6644874359579627  0.09586044082621638  1.0000
  H   H203      1.0  0.6420607648896204  0.6295469871507884  0.05054454320765789  1.0000
  H   H204      1.0  0.6109632728032632  0.6245869510418729  0.0019087042824759148  1.0000
  C   C307      1.0  0.9764297372867261  0.029944886358240552  0.06451277736617955  1.0000
  C   C308      1.0  0.9864881331355965  0.01778582356239844  0.09301820755669055  1.0000
  C   C309      1.0  0.967921874034986  0.02496344555824792  0.11915459040393965  1.0000
  C   C310      1.0  0.9396060180891106  0.04498116248191586  0.11703614485930904  1.0000
  C   C311      1.0  0.9301225330344497  0.05805450608158069  0.08867678152530394  1.0000
  C   C312      1.0  0.9484410152967807  0.05041727723539258  0.0623915022832946  1.0000
  H   H205      1.0  0.008235292773112413  0.0021001923928047894  0.09482889723520826  1.0000
  H   H206      1.0  0.9754423940070082  0.014712499702544957  0.14087016467856928  1.0000
  H   H207      1.0  0.9083620204416237  0.07375381674900638  0.08695605074321305  1.0000
  H   H208      1.0  0.9407940255014794  0.060321523119493126  0.0405308024872959  1.0000
  C   C313      1.0  0.8723954540889185  0.12855727031256547  0.9315168792396588  1.0000
  C   C314      1.0  0.8576879460814493  0.15557275754827393  0.9160419603898592  1.0000
  C   C315      1.0  0.8305252784786779  0.14963243557723716  0.8969370747767991  1.0000
  C   C316      1.0  0.71033376413789  0.5769827116638954  0.9309886401936479  1.0000
  C   C317      1.0  0.733658767298972  0.564493217463953  0.9104511616855581  1.0000
  C   C318      1.0  0.7629199059024314  0.5824127395418334  0.9055430034957292  1.0000
  H   H209      1.0  0.8677524744371163  0.18092174724003107  0.9183106513463039  1.0000
  H   H210      1.0  0.8202397097548333  0.17027607807001344  0.8839939693252812  1.0000
  H   H211      1.0  0.729267512458984  0.5407181997229182  0.8986277540125643  1.0000
  H   H212      1.0  0.7806917391072412  0.5728255211870896  0.8894108599390317  1.0000
  C   C319      1.0  0.07394983792911303  0.06467007911895295  0.9088698035300912  1.0000
  C   C320      1.0  0.985920626664767  0.576754158067931  0.8904901653798641  1.0000
  C   C321      1.0  0.013799750718835435  0.5689014449985857  0.9079153289005484  1.0000
  C   C322      1.0  0.0419575592629724  0.5892515375865796  0.9061730849276054  1.0000
  C   C323      1.0  0.10932458506239628  0.08406777022216638  0.9501914734278664  1.0000
  C   C324      1.0  0.07804413136208677  0.08192697200818744  0.9366317499989261  1.0000
  H   H213      1.0  0.9641247811600259  0.5612427730281367  0.8924966013863918  1.0000
  H   H214      1.0  0.01337792305756813  0.5472907073745095  0.9230671397779494  1.0000
  H   H215      1.0  0.11246897717679838  0.09766974694626329  0.9714122018485476  1.0000
  H   H216      1.0  0.05729299261602727  0.09423076296600708  0.9473037807890519  1.0000
  C   C325      1.0  0.6825217970429046  0.7206645534355602  0.31731938529208736  1.0000
  C   C326      1.0  0.6794517042125178  0.7003948995291048  0.29115792033596755  1.0000
  C   C327      1.0  0.6673361177272649  0.714280777742474  0.2639246884960029  1.0000
  C   C328      1.0  0.6590901913067294  0.7486846296713704  0.26259092714818694  1.0000
  C   C329      1.0  0.662907182166055  0.7691474081591556  0.28857955181432426  1.0000
  C   C330      1.0  0.6742307064963861  0.7550586184885124  0.3160207935424519  1.0000
  H   H217      1.0  0.6861795627534097  0.6738440530263216  0.29199402774032834  1.0000
  H   H218      1.0  0.6650958539378974  0.698530482501875  0.2437855957755832  1.0000
  H   H219      1.0  0.656742071813455  0.7958241969761772  0.2875180324324167  1.0000
  H   H220      1.0  0.6771438900399233  0.7709718593551833  0.3359216886475615  1.0000
  C   C331      1.0  0.8586115980660541  0.9678012906341681  0.3548429122358977  1.0000
  C   C332      1.0  0.8618218626873968  0.9913047802338346  0.331156839835525  1.0000
  C   C333      1.0  0.8697640248585662  0.9803268607599187  0.30158563632977253  1.0000
  C   C334      1.0  0.8735137714503117  0.9457124543353947  0.29535277133277454  1.0000
  C   C335      1.0  0.8683277089906937  0.9220460930707216  0.3186241824895823  1.0000
  C   C336      1.0  0.8611107969509679  0.9330933743316692  0.3483727117596993  1.0000
  H   H221      1.0  0.8591544781096586  0.018139452531060973  0.33585717314125  1.0000
  H   H222      1.0  0.8725966260425276  0.9986572374805219  0.2835597893866218  1.0000
  H   H223      1.0  0.8707100914322243  0.8952128704643646  0.313793457908704  1.0000
  H   H224      1.0  0.8573215131431685  0.9147406854035737  0.3661802304239217  1.0000
  C   C337      1.0  0.7957616923427189  0.8430330164961747  0.4698183450764983  1.0000
  C   C338      1.0  0.784636409640406  0.8706817999918992  0.45269115619061295  1.0000
  C   C339      1.0  0.7516960659518702  0.8719877778283451  0.442903647855938  1.0000
  C   C340      1.0  0.7299621416049742  0.8456110518473735  0.4501782813425689  1.0000
  C   C341      1.0  0.7408600965670972  0.8186552493411373  0.46822561094868664  1.0000
  C   C342      1.0  0.7737519965058378  0.8172130119795668  0.47779581394809406  1.0000
  H   H225      1.0  0.8015293334751704  0.890648142869015  0.44631374854074785  1.0000
  H   H226      1.0  0.7433458729577563  0.8929579445985893  0.4290183712216755  1.0000
  H   H227      1.0  0.7239666005143739  0.7987438556850489  0.47474121328514485  1.0000
  H   H228      1.0  0.7822327153475223  0.7957189177789368  0.49091717761823617  1.0000
  C   C343      1.0  0.012223588417600517  0.8791881544358301  0.44801573695377245  1.0000
  C   C344      1.0  0.04581873339123077  0.885616430656808  0.4441621885412875  1.0000
  C   C345      1.0  0.06876819565622982  0.8723401734737378  0.46480650164841486  1.0000
  C   C346      1.0  0.05826424930105545  0.8519097690355607  0.4888976061914287  1.0000
  C   C347      1.0  0.02462663527093345  0.8454011325687745  0.4927566793111242  1.0000
  C   C348      1.0  0.0015782892523203973  0.8591371180730129  0.472373398783552  1.0000
  H   H229      1.0  0.05410433731925801  0.9014067795095105  0.4255208614344984  1.0000
  H   H230      1.0  0.09454170608485701  0.8785404198036055  0.4624005202666435  1.0000
  H   H231      1.0  0.016464531015248696  0.8293427172840395  0.5112641752600766  1.0000
  H   H232      1.0  0.975706319982761  0.8535003039550071  0.4750469552665258  1.0000
  C   C349      1.0  0.7106304488248221  0.743833953596419  0.5938366161303119  1.0000
  C   C350      1.0  0.7273313168352019  0.7138055424660481  0.5869787224822213  1.0000
  C   C351      1.0  0.7227608380629196  0.6980465736966175  0.5585024810781923  1.0000
  C   C352      1.0  0.7020482492962251  0.7126360761152836  0.5365659705745165  1.0000
  C   C353      1.0  0.6860209572073056  0.7431541186824356  0.5431802182212706  1.0000
  C   C354      1.0  0.6901365713597261  0.7586037970302907  0.5718464810475614  1.0000
  H   H233      1.0  0.7439335943717021  0.7027422192694711  0.6034428011261089  1.0000
  H   H234      1.0  0.7354002373932661  0.674541740366149  0.5533714648784586  1.0000
  H   H235      1.0  0.6699094586453398  0.7544846868205463  0.5264846442990762  1.0000
  H   H236      1.0  0.6772369714602547  0.7819320513149306  0.5770217223067643  1.0000
  C   C355      1.0  0.6553674633819773  0.6462649854794092  0.7577000939770068  1.0000
  C   C356      1.0  0.6420117283815342  0.6213833101776253  0.7767959082162312  1.0000
  C   C357      1.0  0.6294434068140506  0.63035357580512  0.8055904002195649  1.0000
  C   C358      1.0  0.629954156195673  0.6642538104893821  0.8152816011791999  1.0000
  C   C359      1.0  0.6419887394329634  0.6892248043655144  0.7955856627724949  1.0000
  C   C360      1.0  0.654841211783493  0.6802385560571401  0.7670238589568964  1.0000
  H   H237      1.0  0.6419511239565504  0.5950750788510947  0.7696207912133474  1.0000
  H   H238      1.0  0.6194230613887238  0.6110018082752415  0.8201704903798975  1.0000
  H   H239      1.0  0.6419719201616289  0.7155824885603301  0.8026564124883858  1.0000
  H   H240      1.0  0.664269679904934  0.699754451261999  0.7523499232419623  1.0000
  C   C361      1.0  0.8500257430497913  0.9294926302391457  0.6142022982531399  1.0000
  C   C362      1.0  0.8737627599638759  0.9543120678856921  0.6206726735334549  1.0000
  C   C363      1.0  0.8932769625275019  0.9675738366206659  0.5971127125544967  1.0000
  C   C364      1.0  0.8891317539800289  0.9558614258472703  0.5671236937272566  1.0000
  C   C365      1.0  0.8660679575093626  0.9304107550813295  0.560853890330757  1.0000
  C   C366      1.0  0.8464620495219763  0.9174278290070239  0.5843042121121979  1.0000
  H   H241      1.0  0.8770733903692151  0.9633828829684925  0.6437183962106413  1.0000
  H   H242      1.0  0.9112333748461275  0.9871698689374188  0.6020846972708901  1.0000
  H   H243      1.0  0.8629463300044997  0.9209498923204216  0.5378530743250794  1.0000
  H   H244      1.0  0.8281983903144305  0.8983414296204062  0.5791055463657342  1.0000
  C   C367      1.0  0.9063568145504035  0.9599352430694301  0.8119369366062725  1.0000
  C   C368      1.0  0.9332408550681829  0.9718550755809326  0.8289950426396979  1.0000
  C   C369      1.0  0.930097550241029  0.9776095561598481  0.8605178774381698  1.0000
  C   C370      1.0  0.9004014514701026  0.9702385423464064  0.8751944772039177  1.0000
  C   C371      1.0  0.8737319038594048  0.9576841663765647  0.8582174399130315  1.0000
  C   C372      1.0  0.8765306139912822  0.9531290876517484  0.8265626559582038  1.0000
  H   H245      1.0  0.9563862126701032  0.9771562148318861  0.817768979252666  1.0000
  H   H246      1.0  0.9508069464378359  0.987241445053548  0.8735478301640422  1.0000
  H   H247      1.0  0.8506814529149147  0.952160835125441  0.8695252986924186  1.0000
  H   H248      1.0  0.8557484909468074  0.9438600868196237  0.8135787600115083  1.0000
  C   C373      1.0  0.753781146669147  0.8684798909401625  0.7783650768500354  1.0000
  C   C374      1.0  0.7451417826068861  0.849765216103906  0.8041988174270047  1.0000
  C   C375      1.0  0.7478939059818516  0.8143578669555817  0.8039806841711421  1.0000
  C   C376      1.0  0.7579417111028656  0.7974252551627323  0.7775043200131704  1.0000
  C   C377      1.0  0.76542042557994  0.8159783800646773  0.751195986732521  1.0000
  C   C378      1.0  0.7638727595133461  0.8516224113354364  0.7517924737533879  1.0000
  H   H249      1.0  0.7372315254110199  0.8627579861684529  0.8247109535800312  1.0000
  H   H250      1.0  0.7420754006620324  0.800070392248356  0.8243147301055964  1.0000
  H   H251      1.0  0.773288354764481  0.8029395134271916  0.7307039726974841  1.0000
  H   H252      1.0  0.7702003071869418  0.86601658873448  0.7316548558964536  1.0000
  C   C379      1.0  0.7740779691556071  0.0743129353184453  0.6953479841659461  1.0000
  C   C380      1.0  0.747582972323417  0.052969207734382406  0.6882683383728538  1.0000
  C   C381      1.0  0.8518682322863339  0.5889865547603822  0.655107049833672  1.0000
  C   C382      1.0  0.8271672793887185  0.6136551323221854  0.6540574887878957  1.0000
  C   C383      1.0  0.800493092828574  0.6094241231152987  0.6340961491925753  1.0000
  C   C384      1.0  0.776501596996908  0.10614846054972915  0.6814977592147167  1.0000
  H   H253      1.0  0.7451921683912025  0.028691264551029994  0.6994282862784366  1.0000
  H   H254      1.0  0.8726248691857319  0.5921641089029476  0.6704127735257506  1.0000
  H   H255      1.0  0.7816754870360944  0.6286212848138861  0.6327097927195566  1.0000
  H   H256      1.0  0.7970925651445295  0.12266101533675267  0.6868154577455068  1.0000
  N   N1        1.0  0.12342256480883058  0.33790310026998105  0.16453596440561635  1.0000
  C   C385      1.0  0.1301976647757861  0.3042172980524518  0.15093119525493237  1.0000
  C   C386      1.0  0.13039515212381242  0.33698054190686944  0.19767589305622124  1.0000
  C   C387      1.0  0.08848131763964154  0.3467973626688359  0.15951265415083937  1.0000
  C   C388      1.0  0.14466188646085917  0.3636902692637012  0.1500398393227209  1.0000
  H   H257      1.0  0.11443529827852494  0.2841488032334025  0.16119530381347236  1.0000
  H   H258      1.0  0.15620000434826306  0.2963165324992969  0.15482037336138021  1.0000
  H   H259      1.0  0.12559609025033688  0.30394385362976095  0.12588497912537422  1.0000
  H   H260      1.0  0.12531264301719638  0.3618862062199628  0.2088258593219665  1.0000
  H   H261      1.0  0.11480248936416827  0.317909515600415  0.2093732261766763  1.0000
  H   H262      1.0  0.15644926737578563  0.329936928100373  0.2023927588275738  1.0000
  H   H263      1.0  0.08229272120676012  0.34806194244100763  0.13477918868565975  1.0000
  H   H264      1.0  0.08234479766265232  0.37188999777504583  0.1698269132116681  1.0000
  H   H265      1.0  0.07177856855464348  0.3277350309345868  0.1699846223508663  1.0000
  H   H266      1.0  0.14011039157158617  0.38940006708843344  0.15981685988363092  1.0000
  H   H267      1.0  0.14004131935051256  0.36511489331175095  0.12500782153614054  1.0000
  H   H268      1.0  0.17120699733840897  0.3577157904885482  0.1534185846057987  1.0000
  N   N2        1.0  0.8233190280197275  0.4673070945592932  0.5117400840955094  1.0000
  C   C389      1.0  0.8082352080368248  0.4755384024768242  0.48193103084307715  1.0000
  C   C390      1.0  0.8456979633901814  0.49515728592644237  0.521008318555697  1.0000
  C   C391      1.0  0.8421335738074469  0.4353454153269647  0.5090018985302964  1.0000
  C   C392      1.0  0.7972625388332223  0.4632747984310332  0.5349454589392241  1.0000
  H   H269      1.0  0.7911607057763446  0.45511035888040074  0.47418183285535187  1.0000
  H   H270      1.0  0.8273919154462687  0.4786021617893689  0.4639230459675268  1.0000
  H   H271      1.0  0.7940689119179936  0.49967148945105494  0.4831257862862586  1.0000
  H   H272      1.0  0.858991296074417  0.48904209377448804  0.5425846746479502  1.0000
  H   H273      1.0  0.8643965215686269  0.5003041878348509  0.5030961346794428  1.0000
  H   H274      1.0  0.8320319768418063  0.5191983631148688  0.5252196180512789  1.0000
  H   H275      1.0  0.8554324858015065  0.42924001515429777  0.5305768433470376  1.0000
  H   H276      1.0  0.8608773919531273  0.43700806037308104  0.49058286208799434  1.0000
  H   H277      1.0  0.8258425415714498  0.41346228054705875  0.5034174398705143  1.0000
  H   H278      1.0  0.7830398581750546  0.4871762146972541  0.5381130278457981  1.0000
  H   H279      1.0  0.8079259949992251  0.45693409312716743  0.5576192353736869  1.0000
  H   H280      1.0  0.7796669195174378  0.4427193152434105  0.5286979580320211  1.0000
  N   N3        1.0  0.9947432243577039  0.6416872490565901  0.21600986648008808  1.0000
  C   C393      1.0  0.011873619494828791  0.6094177613965307  0.22253737226181985  1.0000
  C   C394      1.0  0.9590438253661184  0.635198698892397  0.21282896893950962  1.0000
  C   C395      1.0  0.007476217296338072  0.6563248769090987  0.18734493707530642  1.0000
  C   C396      1.0  0.0006402899978779075  0.6658501973425622  0.24135119851026768  1.0000
  H   H281      1.0  0.03874800543941492  0.6134598261466664  0.22596632192984975  1.0000
  H   H282      1.0  0.008687690698435224  0.590773134699544  0.2035593402501941  1.0000
  H   H283      1.0  0.002151967389840914  0.5971692145170677  0.24355256245451132  1.0000
  H   H284      1.0  0.9452307191551701  0.6588869813928547  0.20781534544425703  1.0000
  H   H285      1.0  0.9539036041456103  0.6167578279907876  0.19405569222679753  1.0000
  H   H286      1.0  0.9486115986718405  0.6240155284237415  0.23404091031852434  1.0000
  H   H287      1.0  0.005434108831654738  0.6379539306999802  0.16801868551736107  1.0000
  H   H288      1.0  0.033838575923279546  0.663501630023411  0.18970701775909266  1.0000
  H   H289      1.0  0.9939409574320288  0.6797823294209606  0.18090122156008784  1.0000
  H   H290      1.0  0.027489153187393534  0.6708313230014333  0.24447594378321116  1.0000
  H   H291      1.0  0.9910427997394625  0.6557574008658055  0.2633040267822002  1.0000
  H   H292      1.0  0.9885632585963777  0.6907253626950866  0.23695601519174997  1.0000
  N   N4        1.0  0.27597550579429586  0.5947000196759211  0.8879212674484694  1.0000
  C   C397      1.0  0.2985739320835704  0.6062084977292539  0.912373841370505  1.0000
  C   C398      1.0  0.2787393036832574  0.5574977822789847  0.8842988532862914  1.0000
  C   C399      1.0  0.28491997883308395  0.6113880530779604  0.8589074229567356  1.0000
  C   C400      1.0  0.24177674136853608  0.6036089958384784  0.8961867690255405  1.0000
  H   H293      1.0  0.2973040468922741  0.6342167985596362  0.9156071992017785  1.0000
  H   H294      1.0  0.32459805225145283  0.5995158723579843  0.9070129267423072  1.0000
  H   H295      1.0  0.29230326552005986  0.5942338133287675  0.9346332516314612  1.0000
  H   H296      1.0  0.261728700850502  0.5477359308817377  0.8663424465848305  1.0000
  H   H297      1.0  0.30423549944605444  0.5499190669134378  0.8779074776637376  1.0000
  H   H298      1.0  0.27244745770022877  0.5441569616735382  0.9058594443852758  1.0000
  H   H299      1.0  0.28227508316873645  0.6394924277504314  0.8604366460328248  1.0000
  H   H300      1.0  0.2688499722758721  0.6027075372152874  0.8397874692870647  1.0000
  H   H301      1.0  0.3108678388136258  0.6058301502052434  0.8523934899478222  1.0000
  H   H302      1.0  0.22392413960987886  0.5948414523075538  0.8785170220142264  1.0000
  H   H303      1.0  0.23863879580677494  0.6315667053574866  0.8987312957721615  1.0000
  H   H304      1.0  0.23443221940450612  0.5917593940910216  0.9181967028273603  1.0000
  N   N5        1.0  0.5819594969639161  0.1309456630700832  0.26644098852882825  1.0000
  C   C401      1.0  0.5524277273963323  0.11268481046896399  0.2773265714523633  1.0000
  C   C402      1.0  0.593245762384424  0.11570423957435585  0.23739512738456217  1.0000
  C   C403      1.0  0.6084808403671139  0.12843580066452898  0.2895105479457286  1.0000
  C   C404      1.0  0.5737336580387709  0.16704359009306277  0.26151763255489446  1.0000
  H   H305      1.0  0.543813457674082  0.12283949782539963  0.2996574092061829  1.0000
  H   H306      1.0  0.5573042520829332  0.08506724014262423  0.28012336649735875  1.0000
  H   H307      1.0  0.5316352346444975  0.11500517808358801  0.2608361959241148  1.0000
  H   H308      1.0  0.6153602161745598  0.12908440256037332  0.2284006497445779  1.0000
  H   H309      1.0  0.5997080204311193  0.08845929774417295  0.2402511567255905  1.0000
  H   H310      1.0  0.5737714975515588  0.11682411063815298  0.21951090789647035  1.0000
  H   H311      1.0  0.6154043616439259  0.10155634696655567  0.29381524809973975  1.0000
  H   H312      1.0  0.6009868053813027  0.1398429370221495  0.31172982366791374  1.0000
  H   H313      1.0  0.6310996186034196  0.14200043214661168  0.28196631593517757  1.0000
  H   H314      1.0  0.5951836941140364  0.18124242075666674  0.2524300969153969  1.0000
  H   H315      1.0  0.5660967608009951  0.17969065570035245  0.2831334859339839  1.0000
  H   H316      1.0  0.553355481438531  0.16996912113146553  0.2447263736442054  1.0000
  N   N6        1.0  0.9620941335027082  0.9907722662984337  0.3598606881441984  1.0000
  C   C405      1.0  0.9443071630729899  0.9580465828098548  0.3614097776778072  1.0000
  C   C406      1.0  0.9717142797936953  0.0016306241773458297  0.3909544292658409  1.0000
  C   C407      1.0  0.9404451840662995  0.016726139709035026  0.34615988032006184  1.0000
  C   C408      1.0  0.9918938033063149  0.9867297605757445  0.3409521440998817  1.0000
  H   H317      1.0  0.9351349946360233  0.9499429979817078  0.3385137975705248  1.0000
  H   H318      1.0  0.9226121204416541  0.9598033947704222  0.37676388207934836  1.0000
  H   H319      1.0  0.9602487318444692  0.9374335659188235  0.37044035870805964  1.0000
  H   H320      1.0  0.9496443634481786  0.0072858499095955764  0.4050741978883443  1.0000
  H   H321      1.0  0.9860418084193043  0.9814948501227749  0.40285219158688407  1.0000
  H   H322      1.0  0.9869963398282119  0.025096014519776277  0.390431663683366  1.0000
  H   H323      1.0  0.9174604291093614  0.019991805123940054  0.35966458837063725  1.0000
  H   H324      1.0  0.9331687026888661  0.009688681039807134  0.32241615436074517  1.0000
  H   H325      1.0  0.9528963101522934  0.04186849009271354  0.3449441168968028  1.0000
  H   H326      1.0  0.005474196873648252  0.011190401798676586  0.3386407632386592  1.0000
  H   H327      1.0  0.9854103522111126  0.9782494749053051  0.3174856282667407  1.0000
  H   H328      1.0  0.008991711276900016  0.9676992492635658  0.35091500475893544  1.0000
  N   N7        1.0  0.5897274257687232  0.258845873864819  0.9589826118082373  1.0000
  C   C409      1.0  0.5595354215079132  0.23813535228370106  0.9555107324453082  1.0000
  C   C410      1.0  0.5818000066689458  0.29504518064408497  0.9542367324724313  1.0000
  C   C411      1.0  0.6145150861297942  0.24784758730263381  0.9363553305814839  1.0000
  C   C412      1.0  0.6030917219503956  0.25430682857496795  0.9900687753379132  1.0000
  H   H329      1.0  0.5644150263755384  0.21088943742088084  0.9603464652646744  1.0000
  H   H330      1.0  0.549387732701789  0.2394995533099546  0.9319064040793424  1.0000
  H   H331      1.0  0.5399515264320305  0.24648201993876948  0.9715798120596654  1.0000
  H   H332      1.0  0.6041682017130008  0.3112692352062638  0.9565442994505667  1.0000
  H   H333      1.0  0.5711756798416926  0.29938622728213826  0.9311362348037878  1.0000
  H   H334      1.0  0.5636886518178648  0.3042928650653632  0.9714464888674775  1.0000
  H   H335      1.0  0.6376309634617736  0.2630127572061468  0.9382781807250414  1.0000
  H   H336      1.0  0.6051722981436535  0.2503217153178302  0.912557594098781  1.0000
  H   H337      1.0  0.6214504355805506  0.22083942885966346  0.9397068150889529  1.0000
  H   H338      1.0  0.6262263781264821  0.26904257268282833  0.9935130074716776  1.0000
  H   H339      1.0  0.608458469556032  0.22716207539577535  0.9947149332785501  1.0000
  H   H340      1.0  0.5853592459889575  0.2629423830318494  0.007693781981603865  1.0000
  N   N8        1.0  0.799154285030352  0.19639301064124312  0.2834995758824591  1.0000
  C   C413      1.0  0.7867879293215145  0.17097331967467033  0.30540684735875984  1.0000
  C   C414      1.0  0.7999275940872308  0.18126513175650263  0.252574822323717  1.0000
  C   C415      1.0  0.8325978177705156  0.2073046163718491  0.2926999598948405  1.0000
  C   C416      1.0  0.777067244830535  0.2261147474645016  0.28347364332336844  1.0000
  H   H341      1.0  0.7862416163210075  0.1814704785835886  0.3290719877482075  1.0000
  H   H342      1.0  0.8025329995726953  0.14790799856529577  0.30580029428741146  1.0000
  H   H343      1.0  0.7612927588412071  0.16266559847810852  0.2994475887324476  1.0000
  H   H344      1.0  0.8089206392697125  0.19979882209791924  0.23537523681909248  1.0000
  H   H345      1.0  0.8162989676511446  0.15865393055461427  0.251705894591388  1.0000
  H   H346      1.0  0.7748395019073561  0.1728572637916139  0.24525266557951841  1.0000
  H   H347      1.0  0.832438748531512  0.21897811680789592  0.3159744991669597  1.0000
  H   H348      1.0  0.8426571924197706  0.22663186583794742  0.2767467164556482  1.0000
  H   H349      1.0  0.8499622997735756  0.18550137075063475  0.29316470531690714  1.0000
  H   H350      1.0  0.7516203424017835  0.2188907398242868  0.27639322621418816  1.0000
  H   H351      1.0  0.7857596543287689  0.2461336805817336  0.2675494006380817  1.0000
  H   H352      1.0  0.7756218904715675  0.23777488911869166  0.3066115574023642  1.0000
  N   N9        1.0  0.09979090225498854  0.03918301381319367  0.03799248721285653  1.0000
  C   C417      1.0  0.07592612580114322  0.06513968524008273  0.027852893762129405  1.0000
  C   C418      1.0  0.11564640433304829  0.050450913142869425  0.06671172042902773  1.0000
  C   C419      1.0  0.12521766883871965  0.0344923968692874  0.014299615965127188  1.0000
  C   C420      1.0  0.0824518400189056  0.0066929136252738  0.04307515071466783  1.0000
  H   H353      1.0  0.05579322325676217  0.06855861372155703  0.04478686425466227  1.0000
  H   H354      1.0  0.06400523492547583  0.05777423729414166  0.005841880839884794  1.0000
  H   H355      1.0  0.0880389217982902  0.09026142357192524  0.024601260187434804  1.0000
  H   H356      1.0  0.13331627409202285  0.03121119857218746  0.07542042432054963  1.0000
  H   H357      1.0  0.1297433928005205  0.07439173618422745  0.06334754359720285  1.0000
  H   H358      1.0  0.09718035863344987  0.055424017585423924  0.08490042059417413  1.0000
  H   H359      1.0  0.1388057067445767  0.05854040098797353  0.010027662800631498  1.0000
  H   H360      1.0  0.11425533945386368  0.026194596928959646  0.9921521732123473  1.0000
  H   H361      1.0  0.14379427622010943  0.015210463125048479  0.02108364247094685  1.0000
  H   H362      1.0  0.06339281029605992  0.009250445746126656  0.06116057623231641  1.0000
  H   H363      1.0  0.09974437300192429  0.9863239863866429  0.0501817657752861  1.0000
  H   H364      1.0  0.06953503186842336  0.997972408400617  0.021964168118135508  1.0000
  N   N10       1.0  0.791001834839197  0.8137564427944525  0.5792146505965382  1.0000
  C   C421      1.0  0.7587275694097261  0.813139892278264  0.5635292832531693  1.0000
  C   C422      1.0  0.7898099435455296  0.8381947954568577  0.604912366218687  1.0000
  C   C423      1.0  0.8167894590098692  0.8240548005782677  0.5573555706205382  1.0000
  C   C424      1.0  0.7986140283990198  0.7795585921201439  0.5910871736047131  1.0000
  H   H365      1.0  0.7576087024197068  0.7929449757373471  0.5456811895129818  1.0000
  H   H366      1.0  0.7533626103118896  0.8377507194927006  0.5521726437177937  1.0000
  H   H367      1.0  0.73844569897178  0.8082881424598107  0.5799403365210704  1.0000
  H   H368      1.0  0.8140179793199506  0.8403159570481149  0.6167822142648008  1.0000
  H   H369      1.0  0.7829484241059164  0.8640604790190247  0.5970760047101291  1.0000
  H   H370      1.0  0.7712945975040804  0.8304193418881287  0.6223117924015045  1.0000
  H   H371      1.0  0.8189288415075018  0.8054931674015142  0.5382234144919406  1.0000
  H   H372      1.0  0.8413575597948142  0.8259906606798142  0.5685158491137621  1.0000
  H   H373      1.0  0.8113062504741448  0.8491492804442468  0.5469098020182339  1.0000
  H   H374      1.0  0.8230642032829237  0.7789954286370094  0.6025902004650044  1.0000
  H   H375      1.0  0.7987709134341725  0.7601844174999443  0.5725021207619463  1.0000
  H   H376      1.0  0.7800539257954294  0.7712433645546366  0.608130503783006  1.0000
  N   N11       1.0  0.38087375947630847  0.5236391708875962  0.11839695339607491  1.0000
  C   C425      1.0  0.41425099619876043  0.5320547011752268  0.10733522094177435  1.0000
  C   C426      1.0  0.35821463769655654  0.5204724231859766  0.09207206358604533  1.0000
  C   C427      1.0  0.36921687015960325  0.5508679359919175  0.13899520280322933  1.0000
  C   C428      1.0  0.3818575418538276  0.49114148116601347  0.1351548785852567  1.0000
  H   H377      1.0  0.43193723355398517  0.5349560723361124  0.12663927901286445  1.0000
  H   H378      1.0  0.4144110642290354  0.5561883941149495  0.09424463759027875  1.0000
  H   H379      1.0  0.4239373306062756  0.511781877343591  0.09207602682029073  1.0000
  H   H380      1.0  0.36636242280807985  0.500150701126315  0.07615518881903159  1.0000
  H   H381      1.0  0.33278065171121024  0.5140188879185698  0.09946325861853382  1.0000
  H   H382      1.0  0.3570768554773827  0.5443903584956499  0.0786654997213871  1.0000
  H   H383      1.0  0.36828634184290787  0.5757881888373773  0.12715327350324862  1.0000
  H   H384      1.0  0.38583697965221997  0.5539248331929189  0.15910527913791284  1.0000
  H   H385      1.0  0.3441738337051892  0.5452583065938393  0.14791660009412474  1.0000
  H   H386      1.0  0.3570760265489069  0.48363861664796987  0.14352572660313  1.0000
  H   H387      1.0  0.3984864523058252  0.49272624979510626  0.1553452898109566  1.0000
  H   H388      1.0  0.39103540537861675  0.47012588407982087  0.12046643854097765  1.0000
  N   N12       1.0  0.2573570474762062  0.12229787060554385  0.8852408345800573  1.0000
  C   C429      1.0  0.24724616646066083  0.12832828293792287  0.8532617620214915  1.0000
  C   C430      1.0  0.28879534750181785  0.10345094203011558  0.8858058258474463  1.0000
  C   C431      1.0  0.23177581194979116  0.10217286873287482  0.9009788782577546  1.0000
  C   C432      1.0  0.2616929496168123  0.1552438611498478  0.9010207859273479  1.0000
  H   H389      1.0  0.22344627154672533  0.14228756995612737  0.8520785369855012  1.0000
  H   H390      1.0  0.2439858177052731  0.10406708676338239  0.8404974889180199  1.0000
  H   H391      1.0  0.26587871758172227  0.1437419027485024  0.8408369841003306  1.0000
  H   H392      1.0  0.2968196739883694  0.09806249752819451  0.9096443860109961  1.0000
  H   H393      1.0  0.2867190863908  0.07866132481272149  0.873716706639167  1.0000
  H   H394      1.0  0.3090638589332629  0.11809152691162013  0.8748827407809964  1.0000
  H   H395      1.0  0.2080150801797204  0.11604855860211569  0.9022977766734775  1.0000
  H   H396      1.0  0.23914970011468084  0.09610829894430585  0.9248548424343581  1.0000
  H   H397      1.0  0.22698342908901498  0.07759768922207089  0.8891772068749134  1.0000
  H   H398      1.0  0.26775586367334964  0.15166163582631695  0.9255443844432741  1.0000
  H   H399      1.0  0.23894634507506762  0.1708232014670772  0.8999919305922451  1.0000
  H   H400      1.0  0.2818925057902593  0.1704269346613871  0.8906719377723346  1.0000
  N   N13       1.0  0.577237261681992  0.5563425987713873  0.1519050072587962  1.0000
  C   C433      1.0  0.5459163222971758  0.5394697848306551  0.15997799054741116  1.0000
  C   C434      1.0  0.5746902302908296  0.5706347209623863  0.1208275857829508  1.0000
  C   C435      1.0  0.6042583032350719  0.531284186704024  0.15278867785741682  1.0000
  C   C436      1.0  0.5841408866515465  0.5839586467605022  0.17397806519978565  1.0000
  H   H401      1.0  0.546897270894942  0.5287977588788855  0.18345409127806275  1.0000
  H   H402      1.0  0.5402440323968023  0.5180803484936171  0.14408601339421662  1.0000
  H   H403      1.0  0.5248849610041753  0.5575231578030667  0.1592425851633044  1.0000
  H   H404      1.0  0.5553711609307295  0.5905864330445271  0.11953315048406823  1.0000
  H   H405      1.0  0.5982959603744589  0.5826312358081553  0.11368547928478197  1.0000
  H   H406      1.0  0.5686472881824968  0.5506277717643  0.10367201695597067  1.0000
  H   H407      1.0  0.6283611719049573  0.5432790744103265  0.1472864117040635  1.0000
  H   H408      1.0  0.6000791151804264  0.5103741094790766  0.13599539891531087  1.0000
  H   H409      1.0  0.6064381578204454  0.5194027467983808  0.17571782403644087  1.0000
  H   H410      1.0  0.5637256210918546  0.6026901345425802  0.17460045993625392  1.0000
  H   H411      1.0  0.607042160142333  0.5980430665084383  0.16797162574853652  1.0000
  H   H412      1.0  0.5870252037560842  0.574127175301072  0.19764083097839258  1.0000
  N   N14       1.0  0.9832144553452543  0.21810190263035883  0.3659806377233631  1.0000
  C   C437      1.0  0.9481124351816155  0.2133623555451334  0.37373838488153205  1.0000
  C   C438      1.0  0.986989920613198  0.24929905539021965  0.3476721011101996  1.0000
  C   C439      1.0  0.9949706030949658  0.1886540546209829  0.3480684277460828  1.0000
  C   C440      1.0  0.0027790875318158825  0.22117762174800687  0.3943916098966176  1.0000
  H   H413      1.0  0.9442801137502007  0.18996873693910424  0.38744648464024256  1.0000
  H   H414      1.0  0.9326082212095036  0.2113353808419769  0.3528198185431606  1.0000
  H   H415      1.0  0.9386728591309438  0.23521254576592382  0.38740784210588064  1.0000
  H   H416      1.0  0.013411659711052293  0.2552610679863687  0.3437639308661283  1.0000
  H   H417      1.0  0.9748318258088979  0.24685747175518843  0.3249755606615041  1.0000
  H   H418      1.0  0.9759917603404697  0.27164418501371845  0.3593482413819613  1.0000
  H   H419      1.0  0.021280245764339956  0.19178143798653738  0.3414868569710664  1.0000
  H   H420      1.0  0.9805806100749608  0.1853771254175063  0.32659324161473213  1.0000
  H   H421      1.0  0.9930179926162427  0.1646411870990866  0.3612102556159575  1.0000
  H   H422      1.0  0.029262015841065026  0.22593173789660195  0.3894320696637523  1.0000
  H   H423      1.0  0.0012899678843731888  0.1977554470946127  0.4083908443457011  1.0000
  H   H424      1.0  0.9941083102305208  0.24267327307863898  0.40880153208047504  1.0000
  N   N15       1.0  0.2984106230266262  0.871272703446867  0.5180570850749138  1.0000
  C   C441      1.0  0.3083791453036681  0.9061204957903434  0.5096520552306616  1.0000
  C   C442      1.0  0.325158564416781  0.8548493000088975  0.5354786595807771  1.0000
  C   C443      1.0  0.2915489693999499  0.8513023001686292  0.49010349640811507  1.0000
  C   C444      1.0  0.26843080134975  0.8728381957635408  0.5370591971266662  1.0000
  H   H425      1.0  0.3307998685331562  0.9061603943634416  0.49510413130276554  1.0000
  H   H426      1.0  0.3139581991584709  0.9218239957016563  0.5302105133368418  1.0000
  H   H427      1.0  0.28858824160869717  0.9192125177348021  0.4966516307443404  1.0000
  H   H428      1.0  0.31848509665101254  0.8283088342310297  0.5416971899967926  1.0000
  H   H429      1.0  0.3483445785772959  0.8538295916354628  0.5219907281578877  1.0000
  H   H430      1.0  0.3305360607902748  0.8688358378195888  0.5570398257767413  1.0000
  H   H431      1.0  0.2855921475491966  0.8244092300868221  0.49546263343500024  1.0000
  H   H432      1.0  0.3130316171818812  0.8511385151028344  0.47435067725822266  1.0000
  H   H433      1.0  0.2700944919082025  0.8616488600204228  0.4774280976274212  1.0000
  H   H434      1.0  0.2477343579426591  0.8850050075762278  0.5244943898994241  1.0000
  H   H435      1.0  0.27278046337854234  0.8876970067739984  0.558357262466088  1.0000
  H   H436      1.0  0.26008545743873585  0.8470254782811026  0.5437885038130289  1.0000
  N   N16       1.0  0.7655360372037502  0.8014558613439812  0.3635122945369614  1.0000
  C   C445      1.0  0.7843506960607011  0.8203361387120391  0.34021624002847145  1.0000
  C   C446      1.0  0.7331553785406789  0.8177834841489633  0.36791943288224516  1.0000
  C   C447      1.0  0.7839374119577958  0.8017620984232803  0.3926877559953029  1.0000
  C   C448      1.0  0.7606468246938458  0.7659941770955624  0.35324472332112344  1.0000
  H   H437      1.0  0.7881316278382128  0.8473248425846849  0.34714317024660296  1.0000
  H   H438      1.0  0.7712876340076454  0.8203258516113989  0.3178193964737436  1.0000
  H   H439      1.0  0.8090950671362002  0.8089619459121389  0.33652698620236565  1.0000
  H   H440      1.0  0.7179628560851727  0.8036773971103844  0.38473847727825944  1.0000
  H   H441      1.0  0.7357904204531931  0.8442160589444178  0.3767530728653666  1.0000
  H   H442      1.0  0.7188827158865637  0.8188299026171733  0.34622568531879966  1.0000
  H   H443      1.0  0.7699489499033477  0.788759027264236  0.4111024381857406  1.0000
  H   H444      1.0  0.7888446347852383  0.8281400695055336  0.40067149942464414  1.0000
  H   H445      1.0  0.8081275279207691  0.7887872800216807  0.39055209964407595  1.0000
  H   H446      1.0  0.7470614618452489  0.7508655363659401  0.37056784003635873  1.0000
  H   H447      1.0  0.7844864850468918  0.7529291369607719  0.3491404054195802  1.0000
  H   H448      1.0  0.7460957772194231  0.764617347373741  0.3316783117397875  1.0000
  N   N17       1.0  0.5619117003530552  0.7619317646097545  0.06375168079915228  1.0000
  C   C449      1.0  0.5916725361752462  0.7406587046647931  0.06037447550591479  1.0000
  C   C450      1.0  0.5695297743980225  0.7917989248344351  0.08309824470598721  1.0000
  C   C451      1.0  0.5354622632364451  0.7418259779465758  0.07816112864991963  1.0000
  C   C452      1.0  0.5508329149841245  0.7734257102755759  0.03333436418774993  1.0000
  H   H449      1.0  0.5869639542067939  0.7183703991560118  0.04523317506143476  1.0000
  H   H450      1.0  0.6001822613224461  0.7305457083784639  0.08276450291912107  1.0000
  H   H451      1.0  0.6124737403109959  0.7552222817908989  0.0503514336436095  1.0000
  H   H452      1.0  0.5475075123519987  0.808251483911912  0.08633596698617298  1.0000
  H   H453      1.0  0.5777862714438524  0.7840670985212745  0.10624952639866027  1.0000
  H   H454      1.0  0.5893780891255094  0.807702933128278  0.07305933483930158  1.0000
  H   H455      1.0  0.5131227882438096  0.7574910506866113  0.08244903899647046  1.0000
  H   H456      1.0  0.543451359113035  0.7315473724858453  0.10062564237557187  1.0000
  H   H457      1.0  0.5279791087588263  0.7199645064746398  0.06360896739358313  1.0000
  H   H458      1.0  0.544945199228982  0.7514735060146654  0.018116533862218898  1.0000
  H   H459      1.0  0.5701554791262485  0.7887982013730355  0.021822078409716283  1.0000
  H   H460      1.0  0.5282915169809325  0.7893695476671618  0.03506416533986845  1.0000
  N   N18       1.0  0.7885842257621193  0.5590977072007641  0.7304009656559018  1.0000
  C   C453      1.0  0.7726616968810992  0.5427403243402307  0.7568562555957534  1.0000
  C   C454      1.0  0.803243290867149  0.5327904432884988  0.7105348702535101  1.0000
  C   C455      1.0  0.8147733214950237  0.5823315390663841  0.7412851176597834  1.0000
  C   C456      1.0  0.7637535914297464  0.5784452082064978  0.7129294036464993  1.0000
  H   H461      1.0  0.7523434277567651  0.5255396752794531  0.7495360155759868  1.0000
  H   H462      1.0  0.7621512345364461  0.5618874922996749  0.7728096614485687  1.0000
  H   H463      1.0  0.7905762939643368  0.5272855135789635  0.7700970288954143  1.0000
  H   H464      1.0  0.8144045482536219  0.5441425566966988  0.6898062523561753  1.0000
  H   H465      1.0  0.8231166415474941  0.5187099846634232  0.722542707894345  1.0000
  H   H466      1.0  0.7845703476192349  0.513986590603977  0.7026538136695906  1.0000
  H   H467      1.0  0.8045436480292323  0.6035858351528945  0.7550682993899918  1.0000
  H   H468      1.0  0.8284538301294541  0.5937699206591253  0.7218719042913531  1.0000
  H   H469      1.0  0.8331545505087489  0.5687947037767841  0.7556388682195596  1.0000
  H   H470      1.0  0.7753079639737369  0.5927068304078266  0.6938503259039988  1.0000
  H   H471      1.0  0.7508030997416794  0.5972397636490817  0.7276098632793339  1.0000
  H   H472      1.0  0.7446659568388697  0.5614486813453399  0.7028490743877225  1.0000
  N   N19       1.0  0.7790686213922867  0.16207606958537624  0.9840097656882202  1.0000
  C   C457      1.0  0.7787263633534289  0.19712341306077774  0.9962033803152018  1.0000
  C   C458      1.0  0.8124443119813339  0.1476267736017809  0.987458271124391  1.0000
  C   C459      1.0  0.7699466036189374  0.1625616331454256  0.9513457133042076  1.0000
  C   C460      1.0  0.7551033285887306  0.14107780894449706  0.0009247707140940253  1.0000
  H   H473      1.0  0.7963705110812405  0.2137171572620551  0.9837643879609548  1.0000
  H   H474      1.0  0.7854068685409905  0.19781641173414588  0.020845229914250973  1.0000
  H   H475      1.0  0.7539579901985045  0.2088618132780855  0.9937632368506631  1.0000
  H   H476      1.0  0.8139927734311675  0.12163012093716041  0.9774620114763445  1.0000
  H   H477      1.0  0.8312546921475089  0.16345665178894153  0.9756994640136207  1.0000
  H   H478      1.0  0.8199041218669001  0.14593996903983686  0.011858463047216272  1.0000
  H   H479      1.0  0.7867759678532737  0.1791909483460037  0.938087275063902  1.0000
  H   H480      1.0  0.7445899126336513  0.17241541940939653  0.9479921397303124  1.0000
  H   H481      1.0  0.770854391785269  0.13671796279238513  0.9409814061912032  1.0000
  H   H482      1.0  0.754462314921386  0.1145800955586882  0.9919978405042459  1.0000
  H   H483      1.0  0.7297161762987856  0.15154526098330745  0.9989876407367705  1.0000
  H   H484      1.0  0.7612640764054828  0.13994789348375103  0.025672628277444876  1.0000
  N   N20       1.0  0.12593083540386577  0.7986787325873914  0.9304046442713346  1.0000
  C   C461      1.0  0.11409064220958678  0.8321786509799526  0.9200980576313136  1.0000
  C   C462      1.0  0.12137733285691299  0.7956432710420822  0.963762885310152  1.0000
  C   C463      1.0  0.16124369532249347  0.7950121527543709  0.9229307586583104  1.0000
  C   C464      1.0  0.10698625074720852  0.7716540481818156  0.9147907816184762  1.0000
  H   H485      1.0  0.12785142143030398  0.8531959977498835  0.9314642212732654  1.0000
  H   H486      1.0  0.0874806154670343  0.8356075690493443  0.9253246782600554  1.0000
  H   H487      1.0  0.11719206401921872  0.8351518045600775  0.8949868945477337  1.0000
  H   H488      1.0  0.13518066511928312  0.8156015154171017  0.9765054903365223  1.0000
  H   H489      1.0  0.09493536343784208  0.7974922141441052  0.9702732724661858  1.0000
  H   H490      1.0  0.13013149148268247  0.7706300655215962  0.9721376718428121  1.0000
  H   H491      1.0  0.17096505588790878  0.770015170082432  0.9305951745166487  1.0000
  H   H492      1.0  0.17641901522973996  0.8151454766008301  0.9339797228943617  1.0000
  H   H493      1.0  0.16546501096702024  0.7961425369316198  0.8978204332986455  1.0000
  H   H494      1.0  0.11576881272524851  0.7462336235433945  0.9218745771510793  1.0000
  H   H495      1.0  0.1098964481540629  0.7728368507511655  0.8895309314268316  1.0000
  H   H496      1.0  0.08026228570717243  0.7729948019791224  0.9202315382068095  1.0000
  N   N21       1.0  0.9931723039785469  0.5704467987361647  0.006953086040569767  1.0000
  C   C465      1.0  0.027475711998430574  0.5646561481210111  0.997084635782323  1.0000
  C   C466      1.0  0.9717356126377229  0.5741770946767498  0.9798315722247014  1.0000
  C   C467      1.0  0.9916898644587215  0.6016880557289771  0.02570085331692007  1.0000
  C   C468      1.0  0.9818550762555371  0.5412999532559329  0.025316208957070874  1.0000
  H   H497      1.0  0.03707122011282049  0.5865988030546163  0.9838371689835376  1.0000
  H   H498      1.0  0.029486991636048954  0.5418283927120986  0.9821399324976161  1.0000
  H   H499      1.0  0.044208746895570084  0.5609550191961915  0.016981676885222896  1.0000
  H   H500      1.0  0.9711363025942201  0.5504751080202016  0.9658627543300702  1.0000
  H   H501      1.0  0.9459017352155985  0.5798098669898338  0.9864385316603067  1.0000
  H   H502      1.0  0.9803740183497304  0.5950579967053029  0.9647436028149208  1.0000
  H   H503      1.0  0.9999737895270941  0.6242624472526852  0.012547540507278354  1.0000
  H   H504      1.0  0.007736942964027493  0.5996514280483606  0.046289695914890405  1.0000
  H   H505      1.0  0.9661973680585798  0.6066389565414595  0.03385538299835744  1.0000
  H   H506      1.0  0.9816937231784936  0.5173661941282947  0.011700622950537864  1.0000
  H   H507      1.0  0.9564195517525661  0.545337125252442  0.03394300030318864  1.0000
  H   H508      1.0  0.9980041216707759  0.5372754735941221  0.045568348564125616  1.0000
  N   N22       1.0  0.08203276527518066  0.8742994805183935  0.2642417798926578  1.0000
  C   C469      1.0  0.10043516068540785  0.877273521917653  0.2932977568865929  1.0000
  C   C470      1.0  0.06579056369165115  0.840709423463179  0.2625914873218199  1.0000
  C   C471      1.0  0.10504123050201643  0.8779181355799922  0.23835029562191482  1.0000
  C   C472      1.0  0.056868288153082425  0.901296234938109  0.2626636726864637  1.0000
  H   H509      1.0  0.1131303047195499  0.9022422229198719  0.29525888630998576  1.0000
  H   H510      1.0  0.1197056539986351  0.8573015931431132  0.29512885645488285  1.0000
  H   H511      1.0  0.08389998479250955  0.8744057727944108  0.31332407435849696  1.0000
  H   H512      1.0  0.05224082654694295  0.8373305086713438  0.24070001342101974  1.0000
  H   H513      1.0  0.08402637103049158  0.8197215400475165  0.26406679328005755  1.0000
  H   H514      1.0  0.04778406737667651  0.837182509019204  0.28138363733166  1.0000
  H   H515      1.0  0.09201383783932146  0.8752836525707339  0.21604679663727103  1.0000
  H   H516      1.0  0.12464276998874001  0.858173472658231  0.2390400857248011  1.0000
  H   H517      1.0  0.11745049649516262  0.9031082076715515  0.23855433150551777  1.0000
  H   H518      1.0  0.04277853037520618  0.8998337410092208  0.2409320185996907  1.0000
  H   H519      1.0  0.06820080962114772  0.9270261814268793  0.26367487268454476  1.0000
  H   H520      1.0  0.038790178651475715  0.8992101773797697  0.2815983967616267  1.0000
  N   N23       1.0  0.27132252988849703  0.8507886819042532  0.6894343552201031  1.0000
  C   C473      1.0  0.28151211496971096  0.816585001933686  0.6992691685997173  1.0000
  C   C474      1.0  0.29961020416703593  0.8681783923502657  0.6752159983307796  1.0000
  C   C475      1.0  0.2600221587213864  0.8704833647276731  0.7162051869571516  1.0000
  C   C476      1.0  0.24418422084344443  0.847838837321092  0.6670290699612317  1.0000
  H   H521      1.0  0.30288770447475477  0.8177657417678525  0.7150604313541109  1.0000
  H   H522      1.0  0.2888812985030014  0.8005825224893601  0.6794960098619327  1.0000
  H   H523      1.0  0.26118792318362755  0.8031530260733035  0.7112207192868524  1.0000
  H   H524      1.0  0.2924888750504919  0.8935384373391096  0.6663959634375888  1.0000
  H   H525      1.0  0.32018632130137864  0.8719845081512455  0.6917749035198609  1.0000
  H   H526      1.0  0.3096031462920674  0.8534297252662704  0.6556002973041354  1.0000
  H   H527      1.0  0.23916709129051109  0.8576094799492292  0.7278854782253104  1.0000
  H   H528      1.0  0.25169020179820306  0.8963109386861474  0.7095765472067529  1.0000
  H   H529      1.0  0.2800835997292505  0.8737796930063142  0.7332980699255187  1.0000
  H   H530      1.0  0.23540581961376378  0.8732071785168605  0.659530832860517  1.0000
  H   H531      1.0  0.22278626921046127  0.8338701814038458  0.6767764085978148  1.0000
  H   H532      1.0  0.2521006231120535  0.8336659658963296  0.6463015419018482  1.0000
  N   N24       1.0  0.37750658766008943  0.4416929398831919  0.35391316942971496  1.0000
  C   C477      1.0  0.3928507314427208  0.4084572852239985  0.34751330254188145  1.0000
  C   C478      1.0  0.39192608528041945  0.467593357100819  0.33356697522885126  1.0000
  C   C479      1.0  0.3837416036687759  0.45142580389939957  0.38602839880533196  1.0000
  C   C480      1.0  0.34162877186416096  0.4391910032008572  0.34867592022105703  1.0000
  H   H533      1.0  0.389224300823763  0.40049590450884964  0.3233450887568185  1.0000
  H   H534      1.0  0.38248749127611875  0.3882021124118956  0.3623320026371105  1.0000
  H   H535      1.0  0.41982012202426783  0.40931520813901967  0.351697436935312  1.0000
  H   H536      1.0  0.3806750692242104  0.4929673384816664  0.3374162018221113  1.0000
  H   H537      1.0  0.41891510624572037  0.47030232767693103  0.3376953752794966  1.0000
  H   H538      1.0  0.3885841162892268  0.4607131390909139  0.3090859823769514  1.0000
  H   H539      1.0  0.37232658919899747  0.47625936844617095  0.3917917176216231  1.0000
  H   H540      1.0  0.41060412000242213  0.45380375802217604  0.3907186470195154  1.0000
  H   H541      1.0  0.37363651759337374  0.43223223218881474  0.4021002532678859  1.0000
  H   H542      1.0  0.32917327287731807  0.463799847972709  0.35333825199437274  1.0000
  H   H543      1.0  0.3303273114941598  0.41981937560787863  0.36397928534142615  1.0000
  H   H544      1.0  0.33599415085715867  0.4316791107084002  0.32470988472628887  1.0000
  N   N25       1.0  0.7802784959587269  0.3562540334492001  0.7623063087601682  1.0000
  C   C481      1.0  0.8028312101709004  0.32891501342447654  0.752506644528292  1.0000
  C   C482      1.0  0.7700433069334421  0.35037511079637773  0.7942191962451138  1.0000
  C   C483      1.0  0.7508830771134634  0.3563476115407921  0.742319384627929  1.0000
  C   C484      1.0  0.7973603832233531  0.38933796132419624  0.7601936022857535  1.0000
  H   H545      1.0  0.8096375402041198  0.33152760485573063  0.7279870810043413  1.0000
  H   H546      1.0  0.7913648527962122  0.30348933553548924  0.7554112871637605  1.0000
  H   H547      1.0  0.8260008917184471  0.32905961999534544  0.7660828104642726  1.0000
  H   H548      1.0  0.7539315403800333  0.3711346258601818  0.8027419079094636  1.0000
  H   H549      1.0  0.7559643662470283  0.3262313020090954  0.7963759020709772  1.0000
  H   H550      1.0  0.791679981575859  0.348592279225365  0.8097699679004005  1.0000
  H   H551      1.0  0.7328442870484919  0.3759738657631126  0.7495256708965298  1.0000
  H   H552      1.0  0.7380656432702221  0.33131699220103344  0.7425576983232463  1.0000
  H   H553      1.0  0.7576251635226198  0.3617637900296502  0.7182052265559692  1.0000
  H   H554      1.0  0.7809572210753927  0.4106450914118026  0.7669517489207615  1.0000
  H   H555      1.0  0.8058455716159361  0.39435916990613296  0.7364763763508598  1.0000
  H   H556      1.0  0.819497474708748  0.39021927733553297  0.775214510673514  1.0000
  N   N26       1.0  0.7280905236763987  0.671920694562036  0.849116682419217  1.0000
  C   C485      1.0  0.7085776481804373  0.6459489617617729  0.8653869489305508  1.0000
  C   C486      1.0  0.7305035573762376  0.6626564473244542  0.816476367161444  1.0000
  C   C487      1.0  0.7615117690933337  0.6738592009073711  0.8624495376080572  1.0000
  C   C488      1.0  0.7118232124056445  0.7053047289395777  0.8520698290056236  1.0000
  H   H557      1.0  0.7202611335173148  0.6204873530964693  0.8639357440616714  1.0000
  H   H558      1.0  0.683312290387237  0.6435696230560303  0.8556921386391785  1.0000
  H   H559      1.0  0.7057967417754785  0.6524023351591013  0.8899989038795675  1.0000
  H   H560      1.0  0.7434000764417514  0.6380360674217852  0.8132965157796123  1.0000
  H   H561      1.0  0.7057189766660612  0.6600925149941672  0.8059168150161071  1.0000
  H   H562      1.0  0.744128119995618  0.6823576040476567  0.8033389238394102  1.0000
  H   H563      1.0  0.7746224269265363  0.6491393306027051  0.8605303275208505  1.0000
  H   H564      1.0  0.7607247274100775  0.6804623622176865  0.8871836775405515  1.0000
  H   H565      1.0  0.7768182443253847  0.6933436852404076  0.8507697746471307  1.0000
  H   H566      1.0  0.7101983469636592  0.7134650285415006  0.8763558100477248  1.0000
  H   H567      1.0  0.6862244585706583  0.7044666976066192  0.8430145328017997  1.0000
  H   H568      1.0  0.7252850051525699  0.7253285184698686  0.8391748111699213  1.0000
  N   N27       1.0  0.9250871862687525  0.4103091921553149  0.24573297633489602  1.0000
  C   C489      1.0  0.9080702970361595  0.3813031159594378  0.2600524229083302  1.0000
  C   C490      1.0  0.9605108063801044  0.40881077752101713  0.2532435414611238  1.0000
  C   C491      1.0  0.9111527956897041  0.4423990644455557  0.25749656211036515  1.0000
  C   C492      1.0  0.9207809554381403  0.40877231310358153  0.21224630732357602  1.0000
  H   H569      1.0  0.9118797671361871  0.38138918270763356  0.2852184498147306  1.0000
  H   H570      1.0  0.9174041429881307  0.35665100482728224  0.25119472428065537  1.0000
  H   H571      1.0  0.8810091666958221  0.3821715151433146  0.2560317612277953  1.0000
  H   H572      1.0  0.9647647769836895  0.4101445700525424  0.2783125409365431  1.0000
  H   H573      1.0  0.9718339193453652  0.3848673717307237  0.24492884610290386  1.0000
  H   H574      1.0  0.9742044469776245  0.4302691961566169  0.2427740492661182  1.0000
  H   H575      1.0  0.8842795059305145  0.44416425067852344  0.2528201033221135  1.0000
  H   H576      1.0  0.9231204374947937  0.4647812866977329  0.24670207011904524  1.0000
  H   H577      1.0  0.9146329810085396  0.44471888659937064  0.28266201425436965  1.0000
  H   H578      1.0  0.9338979550951928  0.43008557207375286  0.2008457442087004  1.0000
  H   H579      1.0  0.8943812345115959  0.4103283866255841  0.20561224724864038  1.0000
  H   H580      1.0  0.9309636974201337  0.3848700661687029  0.20250855107006777  1.0000
  N   N28       1.0  0.6334700217245696  0.6782000232991288  0.6286969200389309  1.0000
  C   C493      1.0  0.6524903210204265  0.6700767845267461  0.6008782934450696  1.0000
  C   C494      1.0  0.646221502359717  0.7099284483379417  0.6424694244777835  1.0000
  C   C495      1.0  0.6368225892569577  0.650193656124105  0.6508622656417481  1.0000
  C   C496      1.0  0.5983988350221936  0.6826511698796734  0.6206078200284257  1.0000
  H   H581      1.0  0.6433479790880527  0.6465113971957323  0.5895837589064795  1.0000
  H   H582      1.0  0.6790212963793197  0.6661775044683125  0.606230321116851  1.0000
  H   H583      1.0  0.6510182121362458  0.6909132926467801  0.5837981827645592  1.0000
  H   H584      1.0  0.6726244482701709  0.7074931896049603  0.6487259692064581  1.0000
  H   H585      1.0  0.6443341981038629  0.7316894440759595  0.6263959553162467  1.0000
  H   H586      1.0  0.6326855850340718  0.7168093482836119  0.6636682621502872  1.0000
  H   H587      1.0  0.6235367975482273  0.6557557946695688  0.6725428191881331  1.0000
  H   H588      1.0  0.6630693838534237  0.6458216686530067  0.6570754627488365  1.0000
  H   H589      1.0  0.6269711944807257  0.6258895911440585  0.6415537942608212  1.0000
  H   H590      1.0  0.5833562439803078  0.6888236428177059  0.6411103996069063  1.0000
  H   H591      1.0  0.5879429001787242  0.6591843571295625  0.6101198835846331  1.0000
  H   H592      1.0  0.595093195685085  0.70363074809775  0.6038947311265024  1.0000
  N   N29       1.0  0.5840349554252794  0.34412214717117545  0.2524728529061647  1.0000
  C   C497      1.0  0.6080450990114812  0.34256696926781005  0.22719219796650048  1.0000
  C   C498      1.0  0.5997187087396376  0.3328363057262572  0.28118148844096935  1.0000
  C   C499      1.0  0.5557156102231935  0.3218083499969303  0.24530115610129483  1.0000
  C   C500      1.0  0.5725170840719999  0.37944768385771427  0.25627696183135124  1.0000
  H   H593      1.0  0.6169521801569502  0.3162253389005343  0.22328640117906515  1.0000
  H   H594      1.0  0.629942908236541  0.35876735184195896  0.23191862511798603  1.0000
  H   H595      1.0  0.5968230426092119  0.3511289292578024  0.20530837653254763  1.0000
  H   H596      1.0  0.5820871180364788  0.33348470582693535  0.30062272384234484  1.0000
  H   H597      1.0  0.6089515703519416  0.30637837812030716  0.2795316261468781  1.0000
  H   H598      1.0  0.6210261151365593  0.3491726373464942  0.2876431560589035  1.0000
  H   H599      1.0  0.5371119532857611  0.3222620527410153  0.2639370493270142  1.0000
  H   H600      1.0  0.5635112818436072  0.2950134500313644  0.24182700702801663  1.0000
  H   H601      1.0  0.5429390210061082  0.3299571841579371  0.22403295983861907  1.0000
  H   H602      1.0  0.5549461224709827  0.3816242808403511  0.27564202679933586  1.0000
  H   H603      1.0  0.5594683195529867  0.3885697203221857  0.23547978463228708  1.0000
  H   H604      1.0  0.5933013883381646  0.3971148466877417  0.2610689318118975  1.0000
  N   N30       1.0  0.7428129607038365  0.2436453902176727  0.4957055035630031  1.0000
  C   C501      1.0  0.7183816739746224  0.2576534617236777  0.5172714700850857  1.0000
  C   C502      1.0  0.7282094455246457  0.241783454075461  0.46479554482360286  1.0000
  C   C503      1.0  0.7524353473300748  0.2092167558159643  0.5055411519574411  1.0000
  C   C504      1.0  0.7721920687984198  0.2658442807187747  0.4952916431995577  1.0000
  H   H605      1.0  0.7287360183797623  0.259991109112933  0.5407452113142409  1.0000
  H   H606      1.0  0.6962951794628104  0.24108489237349698  0.5187569573359305  1.0000
  H   H607      1.0  0.7098586835504798  0.2832677884886792  0.5102368194784621  1.0000
  H   H608      1.0  0.7460200575897337  0.23157085848543804  0.44777422476383083  1.0000
  H   H609      1.0  0.7061484440304449  0.22490799012112334  0.46435361118672264  1.0000
  H   H610      1.0  0.7202506618489593  0.2672213984785545  0.4566851786688671  1.0000
  H   H611      1.0  0.7708677575708691  0.19789483522796558  0.48978174898284454  1.0000
  H   H612      1.0  0.730765665788875  0.19181382092995147  0.5060398172502644  1.0000
  H   H613      1.0  0.7634636079076614  0.20968989566967328  0.528879947515579  1.0000
  H   H614      1.0  0.7911247911380346  0.25612795576951797  0.47915106850915273  1.0000
  H   H615      1.0  0.7837882710327446  0.26756882427633405  0.5183803458826531  1.0000
  H   H616      1.0  0.7657623050175738  0.2920827416212774  0.4881385618972884  1.0000
  N   N31       1.0  0.7828742830266198  0.5321249358769758  0.9980286153583375  1.0000
  C   C505      1.0  0.7486373112500789  0.5265254140543695  0.9875412184593291  1.0000
  C   C506      1.0  0.7960412050778202  0.5632275111120809  0.9837433667395014  1.0000
  C   C507      1.0  0.8033339978986699  0.5027090095823683  0.989128584580633  1.0000
  C   C508      1.0  0.7834762444464987  0.5360765260425332  0.03161106621364573  1.0000
  H   H617      1.0  0.7374534857599241  0.5037298610808381  0.998289821559765  1.0000
  H   H618      1.0  0.7474364954412646  0.5227196507116166  0.9623556615224754  1.0000
  H   H619      1.0  0.7325665628005394  0.5486237342009777  0.9929683859628854  1.0000
  H   H620      1.0  0.7968768691500938  0.5607280190496904  0.9584960682154311  1.0000
  H   H621      1.0  0.7806167667453359  0.5857986279346268  0.9890844375872567  1.0000
  H   H622      1.0  0.8214763533475328  0.5689056182651643  0.9916087814291814  1.0000
  H   H623      1.0  0.7936373153191187  0.4786699995684378  0.9989041751562261  1.0000
  H   H624      1.0  0.8291399852162775  0.5056083304461921  0.9973051686903797  1.0000
  H   H625      1.0  0.804270717127622  0.4995820907785294  0.963856249732385  1.0000
  H   H626      1.0  0.7736754200699778  0.513092346438693  0.043186364867619176  1.0000
  H   H627      1.0  0.7684162415559007  0.558167528694362  0.03907933056804391  1.0000
  H   H628      1.0  0.8090293150153118  0.5402022906913344  0.040286490957468064  1.0000
  N   N32       1.0  0.2202901773892012  0.15769327528300964  0.6533819348527542  1.0000
  C   C509      1.0  0.2305348444226789  0.16147786344059112  0.6212052879784682  1.0000
  C   C510      1.0  0.2434332649667863  0.17642237734678784  0.6733570327554299  1.0000
  C   C511      1.0  0.22053422112158128  0.12136133152321021  0.6617963857987552  1.0000
  C   C512      1.0  0.18672554344387748  0.17150699452306786  0.6573059361971586  1.0000
  H   H629      1.0  0.2137096396867999  0.14753575745294087  0.6054477799004142  1.0000
  H   H630      1.0  0.2559087855360582  0.1516754246237173  0.6175365938762465  1.0000
  H   H631      1.0  0.23031023275395168  0.18860301757733242  0.6140309401991207  1.0000
  H   H632      1.0  0.23559348408383052  0.1753645320132718  0.6975885034424832  1.0000
  H   H633      1.0  0.2687924039373868  0.16585181053440876  0.6720304803743316  1.0000
  H   H634      1.0  0.2449876064490235  0.203641369522702  0.6672490231637055  1.0000
  H   H635      1.0  0.2125345743505873  0.11760507586817578  0.6858469422946012  1.0000
  H   H636      1.0  0.24566758352423923  0.11023701717025627  0.6598781164351879  1.0000
  H   H637      1.0  0.20381629895335052  0.10612614121227232  0.6469582496900456  1.0000
  H   H638      1.0  0.17846165645866696  0.16971229943534463  0.681477438675051  1.0000
  H   H639      1.0  0.16851831061648848  0.15770103425558954  0.6428386304511136  1.0000
  H   H640      1.0  0.18554199274701366  0.1987684688109615  0.6508150360796789  1.0000
  N   N33       1.0  0.3024516411117584  0.5530155975121893  0.7407783218823925  1.0000
  C   C513      1.0  0.26665863295130643  0.559642510862158  0.7398144487516699  1.0000
  C   C514      1.0  0.3125871109556952  0.5359411031719101  0.7122350378167436  1.0000
  C   C515      1.0  0.3102207088483299  0.5309985991731219  0.7670749653104576  1.0000
  C   C516      1.0  0.3203777475726232  0.5855215198303882  0.743864898910559  1.0000
  H   H641      1.0  0.2581830278333002  0.5727487212203647  0.7609527803468616  1.0000
  H   H642      1.0  0.2523754734072914  0.5355898961354254  0.7374145958639673  1.0000
  H   H643      1.0  0.2600717414046093  0.576332734653678  0.7202690387968999  1.0000
  H   H644      1.0  0.3079543198973661  0.5522297017362814  0.6919709063582549  1.0000
  H   H645      1.0  0.33929968727968  0.5297484488833276  0.7125703259453766  1.0000
  H   H646      1.0  0.298925194944522  0.5117598332258244  0.7086295069120865  1.0000
  H   H647      1.0  0.3370883368813119  0.5256052759035449  0.768443946298676  1.0000
  H   H648      1.0  0.29723010931797766  0.5061102901803136  0.7652667496185664  1.0000
  H   H649      1.0  0.3028431777703197  0.5430938255782302  0.7889970064986696  1.0000
  H   H650      1.0  0.31538547444581194  0.602410595245852  0.724061089103716  1.0000
  H   H651      1.0  0.3474758413405312  0.5815178773801744  0.7449526368307771  1.0000
  H   H652      1.0  0.31294942429759925  0.5995589576778212  0.7648533778880477  1.0000
  N   N34       1.0  0.4431680304188029  0.0015010754059234799  0.6223497833031703  1.0000
  C   C517      1.0  0.4478537958211579  0.9897094283416445  0.5905736509173578  1.0000
  C   C518      1.0  0.41781664376965555  0.0283609678356036  0.623026177635958  1.0000
  C   C519      1.0  0.47451414403797615  0.015254309052227688  0.6344251352859961  1.0000
  C   C520      1.0  0.43242229438661184  0.9727101208202248  0.6414682177396547  1.0000
  H   H653      1.0  0.4246530464208351  0.9790741645198153  0.5809632979452596  1.0000
  H   H654      1.0  0.46679920824177595  0.9693978768090993  0.5891070034110475  1.0000
  H   H655      1.0  0.45562994158940184  0.010794805041832278  0.5753326399020321  1.0000
  H   H656      1.0  0.39375383455073026  0.018806714503784905  0.6142806144494594  1.0000
  H   H657      1.0  0.4138026501395327  0.03794654494796945  0.6467002632425513  1.0000
  H   H658      1.0  0.42501017302550026  0.05044280742530072  0.6087329114487033  1.0000
  H   H659      1.0  0.47163577723578276  0.024499991347866512  0.658380266043285  1.0000
  H   H660      1.0  0.4833797186556247  0.037046778984565654  0.6205642986383862  1.0000
  H   H661      1.0  0.4941673258610339  0.9956153318240809  0.6344910423351997  1.0000
  H   H662      1.0  0.4505113375171981  0.9515519515860802  0.6409287273653922  1.0000
  H   H663      1.0  0.40834838760639103  0.962289442529041  0.6336327000947221  1.0000
  H   H664      1.0  0.42944715548306267  0.980589753857831  0.6657187595273187  1.0000
  N   N35       1.0  0.7901083769508558  0.021417355379983904  0.6003669069154653  1.0000
  C   C521      1.0  0.755876444698312  0.02672155127576237  0.5898606895694226  1.0000
  C   C522      1.0  0.8045588103330235  0.054290506583088316  0.6098238775954818  1.0000
  C   C523      1.0  0.809804693079066  0.006768064203089619  0.575242170576887  1.0000
  C   C524      1.0  0.7902392185821625  0.9979447108058496  0.6266215290656434  1.0000
  H   H665      1.0  0.744135954352992  0.002408848677770248  0.5826894284840312  1.0000
  H   H666      1.0  0.7547987088515951  0.04445680415949593  0.5701497476971293  1.0000
  H   H667      1.0  0.7403514536917584  0.037974513511453756  0.6081971059473081  1.0000
  H   H668      1.0  0.8303764905328958  0.05127132377869037  0.6179792003546754  1.0000
  H   H669      1.0  0.8046476897396283  0.07283550947274044  0.5907163809179452  1.0000
  H   H670      1.0  0.7903768104935237  0.06585398943749587  0.6288520104755938  1.0000
  H   H671      1.0  0.8004103497136239  0.9813073162840593  0.5682687837456507  1.0000
  H   H672      1.0  0.8359689115301455  0.003517686991596714  0.5821263457768413  1.0000
  H   H673      1.0  0.809546819734804  0.023327022513209617  0.5547081694593149  1.0000
  H   H674      1.0  0.7802431464144007  0.9725156369721213  0.6203086447823911  1.0000
  H   H675      1.0  0.7751362918156358  0.007907549110643732  0.6457815365274496  1.0000
  H   H676      1.0  0.8155868209666234  0.9939725021254744  0.6356130533389809  1.0000
  N   N36       1.0  0.05614123485738998  0.7690782650353011  0.4190508053222494  1.0000
  C   C525      1.0  0.058160580609981194  0.7374949884664547  0.4008034022766603  1.0000
  C   C526      1.0  0.07242714706059994  0.7970060986625954  0.4024118471149234  1.0000
  C   C527      1.0  0.07275483794846682  0.764008889540105  0.44875436139881447  1.0000
  C   C528      1.0  0.02124378029349905  0.777871904401015  0.4242630698365917  1.0000
  H   H677      1.0  0.04628604631785027  0.7158149046304686  0.4127371700649785  1.0000
  H   H678      1.0  0.08423612878268272  0.7302038964781188  0.3965013056909955  1.0000
  H   H679      1.0  0.04608565167969858  0.7403897998817959  0.3781404712927369  1.0000
  H   H680      1.0  0.07136027692463642  0.821225066666846  0.4155412746036902  1.0000
  H   H681      1.0  0.09885839239872607  0.7913028701201468  0.3982733223839701  1.0000
  H   H682      1.0  0.06074622269713159  0.8013976480385612  0.37979120689634793  1.0000
  H   H683      1.0  0.0723255507596694  0.7874783870741544  0.4629220956684723  1.0000
  H   H684      1.0  0.0990318985638492  0.7569292201775182  0.44567875434893334  1.0000
  H   H685      1.0  0.06092880718763616  0.7434427127242521  0.4621879084002224  1.0000
  H   H686      1.0  0.019012622393171252  0.8016548184470831  0.4378717893960264  1.0000
  H   H687      1.0  0.008174221678656668  0.757490813189831  0.4369617146589617  1.0000
  H   H688      1.0  0.007916148381138077  0.7819728029127934  0.40235545678465917  1.0000
  N   N37       1.0  0.26617053233532784  0.3693807093888643  0.6195536720870427  1.0000
  C   C529      1.0  0.2849987014862353  0.3962938296500513  0.6038286720337829  1.0000
  C   C530      1.0  0.2459999499472568  0.3846637098755235  0.6440551849667889  1.0000
  C   C531      1.0  0.2891173716433566  0.34447020697182273  0.6329802601498604  1.0000
  C   C532      1.0  0.24450384673194384  0.35205900283842584  0.5972634370626774  1.0000
  H   H689      1.0  0.2684309457166527  0.4148293493811809  0.5924067302612545  1.0000
  H   H690      1.0  0.3012097215221138  0.3855072715603527  0.585735989878245  1.0000
  H   H691      1.0  0.30112808875154135  0.4105535631359034  0.6199895551180467  1.0000
  H   H692      1.0  0.22844973836284072  0.40365226944850735  0.634707375025331  1.0000
  H   H693      1.0  0.23136034690759075  0.36502694799582863  0.6562836969990811  1.0000
  H   H694      1.0  0.2616706173307312  0.3979135266569128  0.6613492535073117  1.0000
  H   H695      1.0  0.3053185799527265  0.3565853631743157  0.6504501202991569  1.0000
  H   H696      1.0  0.3055901988233043  0.33340048049674814  0.6152562221150311  1.0000
  H   H697      1.0  0.2756703588081837  0.32325579331107585  0.6441394933370503  1.0000
  H   H698      1.0  0.22968610955955351  0.3316114452460572  0.6081028325791694  1.0000
  H   H699      1.0  0.2589586654539232  0.34035488771583533  0.5783810913860591  1.0000
  H   H700      1.0  0.22714605842589555  0.37031031930898006  0.5865357614761761  1.0000
  N   N38       1.0  0.9443774585850414  0.9209947456943622  0.09704183142393275  1.0000
  C   C533      1.0  0.9169910579461338  0.9440370149273324  0.1050413821340288  1.0000
  C   C534      1.0  0.9708430912126089  0.9241533214699508  0.1201120470530217  1.0000
  C   C535      1.0  0.9573779205553783  0.9300962109815207  0.06664104795130021  1.0000
  C   C536      1.0  0.9322751943069917  0.8855757033855546  0.09644897943862096  1.0000
  H   H701      1.0  0.9064752956467559  0.9378686396949925  0.1278130288775905  1.0000
  H   H702      1.0  0.8966473466604106  0.9425075938911472  0.08801922306238574  1.0000
  H   H703      1.0  0.9252546131842313  0.9709832150573171  0.10592687436403292  1.0000
  H   H704      1.0  0.99226057338105  0.9076445441165576  0.11464228864173864  1.0000
  H   H705      1.0  0.98016449238091  0.9506516377263505  0.12196067556100876  1.0000
  H   H706      1.0  0.962068281551519  0.9167240097721493  0.14318837442705967  1.0000
  H   H707      1.0  0.9380546310118272  0.9280554264208152  0.04864537176190287  1.0000
  H   H708      1.0  0.978200922507903  0.9133853853335083  0.059889822262121584  1.0000
  H   H709      1.0  0.9666202153098656  0.9566903804352924  0.06624548303823485  1.0000
  H   H710      1.0  0.9523856865979379  0.8674827875942941  0.09069058962246257  1.0000
  H   H711      1.0  0.9122762651511898  0.8821182317447026  0.07927915635563032  1.0000
  H   H712      1.0  0.9222909950894869  0.8779434182240936  0.11909688813101282  1.0000
  N   N39       1.0  0.3689560719934833  0.10494809386778292  0.1080873014030086  1.0000
  C   C537      1.0  0.39282243069199313  0.10971328227385957  0.08303305326010335  1.0000
  C   C538      1.0  0.3868926805847431  0.09830813643620706  0.13687178783416054  1.0000
  C   C539      1.0  0.34720508186259547  0.07582662873528312  0.10092984714525133  1.0000
  C   C540      1.0  0.3488620868481105  0.13596816289255087  0.11146962864253895  1.0000
  H   H713      1.0  0.4088776943219932  0.08704165501312144  0.08037257359118088  1.0000
  H   H714      1.0  0.40914266565842033  0.13199049380887828  0.08735264356841554  1.0000
  H   H715      1.0  0.38004845909951257  0.11393907202833553  0.06082661383039767  1.0000
  H   H716      1.0  0.36967170044002395  0.09388720311810239  0.15616098090301378  1.0000
  H   H717      1.0  0.40270045555209866  0.07531389038884084  0.1349044498600649  1.0000
  H   H718      1.0  0.4032392947436452  0.11993504808212974  0.1432319129159516  1.0000
  H   H719      1.0  0.36144894029588076  0.05196452750089775  0.0981684580726434  1.0000
  H   H720      1.0  0.33334959614968956  0.07986931111731366  0.07932458691671695  1.0000
  H   H721      1.0  0.3288216943083163  0.07148998857931477  0.11927737898939283  1.0000
  H   H722      1.0  0.33010856328887167  0.13306189394787515  0.12975392329896795  1.0000
  H   H723      1.0  0.33537201486593565  0.1418622977277082  0.08995420585296676  1.0000
  H   H724      1.0  0.3644060836309624  0.15840643316855996  0.11720097977738009  1.0000
  N   N40       1.0  3.838600409999948e-05  0.9237842186930597  0.5539101100989827  1.0000
  C   C541      1.0  0.9734283741215086  0.8981641974958342  0.5551415708996913  1.0000
  C   C542      1.0  0.9939204624824546  0.9503561221833534  0.5771338925625367  1.0000
  C   C543      1.0  0.0006985151046468019  0.9393429033871988  0.5232409016433114  1.0000
  C   C544      1.0  0.03203904112224154  0.9073168860725243  0.5601580765278165  1.0000
  H   H725      1.0  0.9488819605284263  0.9099498682609188  0.5511354095860068  1.0000
  H   H726      1.0  0.9724646431290145  0.8855087499731222  0.5777898416767827  1.0000
  H   H727      1.0  0.9768287405065428  0.8780937411920926  0.5374775257588273  1.0000
  H   H728      1.0  0.013549664435629438  0.970095866431702  0.5769760577366214  1.0000
  H   H729      1.0  0.970073580451193  0.9634692485100352  0.5729476620014219  1.0000
  H   H730      1.0  0.9927857234806076  0.9394650692029045  0.6005206900659286  1.0000
  H   H731      1.0  0.020124781502123268  0.9591850686403154  0.5215681333527484  1.0000
  H   H732      1.0  0.9767172414286528  0.9514973068592177  0.5175790652306336  1.0000
  H   H733      1.0  0.0056843820490519725  0.9201256300689676  0.5051843970443234  1.0000
  H   H734      1.0  0.052760928464747225  0.925792584897358  0.5589909492567818  1.0000
  H   H735      1.0  0.03737387713113627  0.8868884000634428  0.5432918627634641  1.0000
  H   H736      1.0  0.0325309670395606  0.8954513792765094  0.5831739103200773  1.0000
  N   N41       1.0  0.8564858594382929  0.8485568897397097  0.8105222767597925  1.0000
  C   C545      1.0  0.866304683848419  0.8270499579113778  0.8365680225045302  1.0000
  C   C546      1.0  0.8852918019625106  0.8681660130111902  0.7998433045756492  1.0000
  C   C547      1.0  0.8302614659011953  0.8721465335365248  0.8203223178798946  1.0000
  C   C548      1.0  0.8440368084528196  0.8267881399215623  0.785446957962735  1.0000
  H   H737      1.0  0.8860323408668317  0.8088810144659558  0.8299750116710434  1.0000
  H   H738      1.0  0.8450915084040661  0.8118879974716628  0.8451507285723087  1.0000
  H   H739      1.0  0.8757464215577986  0.8426944891219018  0.8559525735876441  1.0000
  H   H740      1.0  0.8786406030874196  0.8853692673963466  0.7807158052412574  1.0000
  H   H741      1.0  0.89578018654821  0.8843477107482499  0.8183729518879347  1.0000
  H   H742      1.0  0.9053038950762216  0.8512698154039442  0.7915648305241852  1.0000
  H   H743      1.0  0.821956626021852  0.888644225934609  0.8011933036709676  1.0000
  H   H744      1.0  0.8387319108713562  0.8890498314131138  0.8391909320493296  1.0000
  H   H745      1.0  0.8081943501156779  0.8581890969768492  0.8285694360388812  1.0000
  H   H746      1.0  0.8633281909446543  0.809197671360512  0.7768531347679489  1.0000
  H   H747      1.0  0.8353058626103509  0.8421856303433944  0.7657783252427484  1.0000
  H   H748      1.0  0.822905069723995  0.8109163807096434  0.7930414104687619  1.0000
  N   N42       1.0  0.5103936120321488  0.8657719007811394  0.2476497583335807  1.0000
  C   C549      1.0  0.48787008804903026  0.847368516392298  0.2682547552625467  1.0000
  C   C550      1.0  0.5234830623321393  0.8962331684626242  0.26335712519105486  1.0000
  C   C551      1.0  0.4921430283094836  0.8762280385412952  0.2200478612312426  1.0000
  C   C552      1.0  0.5380038005178963  0.8434297088886024  0.2388041161915932  1.0000
  H   H749      1.0  0.4667950732085084  0.8637291295921623  0.27522419982675933  1.0000
  H   H750      1.0  0.5006835486863989  0.8391182813987629  0.2894345100344545  1.0000
  H   H751      1.0  0.4774471870721029  0.8243788304263693  0.25690536913746187  1.0000
  H   H752      1.0  0.5408435833091517  0.9105030734233439  0.2484520253461384  1.0000
  H   H753      1.0  0.5033691527595034  0.9140098653820554  0.2695977477254904  1.0000
  H   H754      1.0  0.536832923250988  0.8895208454007221  0.28468542608043357  1.0000
  H   H755      1.0  0.4839992600452374  0.8539742303685164  0.20620603006043675  1.0000
  H   H756      1.0  0.5075155728920725  0.8926390487143838  0.20525248753553463  1.0000
  H   H757      1.0  0.46983020136733844  0.8911203031880517  0.22589156275737923  1.0000
  H   H758      1.0  0.5557050861618886  0.8569845344341591  0.2237539612756174  1.0000
  H   H759      1.0  0.529193759116436  0.8206286199856181  0.22601715965769437  1.0000
  H   H760      1.0  0.5520224977627608  0.8344447510476243  0.2590602783031607  1.0000
  N   N43       1.0  0.8614086168376859  0.06398250218635626  0.817239032354942  1.0000
  C   C553      1.0  0.8764514446616893  0.09369316159090936  0.8325923787870935  1.0000
  C   C554      1.0  0.8477957645872715  0.040691649994446966  0.8404000654187841  1.0000
  C   C555      1.0  0.8867539733847397  0.04609929813135837  0.7991845721878235  1.0000
  C   C556      1.0  0.834611956946741  0.07547728474716675  0.7968588388489659  1.0000
  H   H761      1.0  0.8577447731096218  0.10844084519062695  0.8454592984681295  1.0000
  H   H762      1.0  0.8878690366393425  0.11127384829061583  0.81585397190034  1.0000
  H   H763      1.0  0.8958002406376255  0.08588938198093944  0.8492084447739389  1.0000
  H   H764      1.0  0.8668575262478819  0.03296177676951295  0.8573253640994356  1.0000
  H   H765      1.0  0.8273094503349843  0.052737586992290815  0.8532127017433678  1.0000
  H   H766      1.0  0.8377238516574966  0.017190541896278114  0.8297380862633755  1.0000
  H   H767      1.0  0.9073281652054747  0.03722432450338098  0.8139569843332675  1.0000
  H   H768      1.0  0.8973506693774422  0.06273103483713616  0.7812395782852309  1.0000
  H   H769      1.0  0.8763996470004899  0.02337240047417022  0.7874199268870057  1.0000
  H   H770      1.0  0.8221167760897832  0.05368188357285675  0.7855092671258559  1.0000
  H   H771      1.0  0.843926117040872  0.09237244623201923  0.7784811905468678  1.0000
  H   H772      1.0  0.8153833165337949  0.08969308923650798  0.8097113003317057  1.0000
  N   N44       1.0  0.6772701274086036  0.14901949291488148  0.730864749480529  1.0000
  C   C557      1.0  0.6851383078714872  0.1167111847812305  0.7462513851982419  1.0000
  C   C558      1.0  0.7081121309672975  0.16769108769312996  0.7247160094682096  1.0000
  C   C559      1.0  0.6557376094461522  0.16978901561428547  0.7506485639128166  1.0000
  C   C560      1.0  0.660129047413207  0.14201139949550992  0.7016902398282372  1.0000
  H   H773      1.0  0.7014956625796314  0.10055857946957843  0.7318787465657383  1.0000
  H   H774      1.0  0.6624548602532689  0.1018852595591198  0.751206643511438  1.0000
  H   H775      1.0  0.6980161417923613  0.12130742171181197  0.7683537366811714  1.0000
  H   H776      1.0  0.7031384237529223  0.19113508583705838  0.7115956379136403  1.0000
  H   H777      1.0  0.7208890730664379  0.17534664615010018  0.7462001208823671  1.0000
  H   H778      1.0  0.7255533530686747  0.152222639867508  0.7109625894876219  1.0000
  H   H779      1.0  0.6476876826115306  0.19331085524673558  0.7388123475501885  1.0000
  H   H780      1.0  0.6684847525816761  0.17762716024690464  0.7720909587333527  1.0000
  H   H781      1.0  0.6331002231232623  0.1557523513230548  0.7573582861709236  1.0000
  H   H782      1.0  0.6366059573051347  0.12814568047723263  0.7053384527155141  1.0000
  H   H783      1.0  0.6755747447832521  0.1264437738508251  0.6861197384246845  1.0000
  H   H784      1.0  0.654153831557306  0.16599645652240538  0.6894233773307784  1.0000
  N   N45       1.0  0.47829866112358377  0.4886765939439659  0.7749262532921005  1.0000
  C   C561      1.0  0.49923758586538486  0.47574150649511215  0.7999339542880448  1.0000
  C   C562      1.0  0.4512849758192644  0.5093512298897498  0.7877512590290581  1.0000
  C   C563      1.0  0.46423803186632867  0.45974288796607865  0.7576936542738162  1.0000
  C   C564      1.0  0.49836698642486293  0.5098672248456589  0.7542807215911075  1.0000
  H   H785      1.0  0.5105664239692017  0.49689500546028437  0.8132913372471507  1.0000
  H   H786      1.0  0.5196876402663964  0.4597960984892573  0.7910524968352368  1.0000
  H   H787      1.0  0.4847644341381404  0.4598810786427135  0.8160731406608303  1.0000
  H   H788      1.0  0.4352129276630038  0.4940143917458149  0.8029634365680027  1.0000
  H   H789      1.0  0.4609582648279481  0.5311214444106575  0.8014022877536385  1.0000
  H   H790      1.0  0.43537767241422265  0.519946840600896  0.7693620726235959  1.0000
  H   H791      1.0  0.44864412398895687  0.46868391042009067  0.7384685114185288  1.0000
  H   H792      1.0  0.44859358044292136  0.44342183636204185  0.772499129700074  1.0000
  H   H793      1.0  0.48377001163154304  0.44330181255388945  0.7478043746577204  1.0000
  H   H794      1.0  0.5092936402076788  0.5319676204963885  0.7666213968557861  1.0000
  H   H795      1.0  0.48326410506156414  0.5200781769793444  0.735131220811021  1.0000
  H   H796      1.0  0.5188704423878566  0.4950698098595729  0.7440063607683954  1.0000
  N   N46       1.0  0.5825000682401541  0.6783873203253725  0.32836641708562836  1.0000
  C   C565      1.0  0.5899569210906657  0.6938298699556594  0.298448528627337  1.0000
  C   C566      1.0  0.613004649691221  0.6761327705930498  0.3466918597694902  1.0000
  C   C567      1.0  0.568749941533579  0.6439964220383485  0.3235791645568632  1.0000
  C   C568      1.0  0.5582865918402197  0.6995933379636556  0.34479635318295226  1.0000
  H   H797      1.0  0.6009668912679191  0.7195923030573208  0.3010808725456476  1.0000
  H   H798      1.0  0.5674083074959926  0.6961035746082003  0.2841094800650304  1.0000
  H   H799      1.0  0.6077430726232697  0.6781078326079168  0.2852547405882361  1.0000
  H   H800      1.0  0.6084636590310042  0.6640080970587011  0.36920681280219414  1.0000
  H   H801      1.0  0.6323210894063598  0.6611101086977655  0.3347589481139444  1.0000
  H   H802      1.0  0.6235231638042199  0.7017487474380103  0.3513499334683971  1.0000
  H   H803      1.0  0.5631797646547275  0.6313387286811465  0.34564687008692535  1.0000
  H   H804      1.0  0.5861874171586209  0.6275184728825373  0.3107256476445397  1.0000
  H   H805      1.0  0.5455225310845008  0.6448336676331644  0.3100169720533212  1.0000
  H   H806      1.0  0.5348723333548173  0.7019089819386092  0.3317477408491006  1.0000
  H   H807      1.0  0.5679613938431683  0.7256835414693987  0.34899548513158757  1.0000
  H   H808      1.0  0.5522488850296166  0.6887386808825715  0.36757674401328977  1.0000
  N   N47       1.0  0.26493931553747513  0.6629310689567406  0.5783481065426566  1.0000
  C   C569      1.0  0.2624980540032981  0.6781350899912312  0.6091773446774342  1.0000
  C   C570      1.0  0.23552989425614512  0.6417447962877689  0.5723715792601317  1.0000
  C   C571      1.0  0.29483176928133215  0.641661979012268  0.5765599643570329  1.0000
  C   C572      1.0  0.26683195277305216  0.6901647761775225  0.5552965446025614  1.0000
  H   H809      1.0  0.2845569959029551  0.6938550045278057  0.6147139387688785  1.0000
  H   H810      1.0  0.2608048806170799  0.6582656325204195  0.6271156808534432  1.0000
  H   H811      1.0  0.24043138920988547  0.6946972111613184  0.6113424832450686  1.0000
  H   H812      1.0  0.23653759033950214  0.629855823965818  0.5492921768791589  1.0000
  H   H813      1.0  0.23333307258601607  0.6209606986754255  0.5894172687394644  1.0000
  H   H814      1.0  0.2125623387356692  0.6571033373647629  0.57357916018921  1.0000
  H   H815      1.0  0.2981557855769717  0.6306182958606278  0.5533645288026526  1.0000
  H   H816      1.0  0.2937769933764211  0.6202335651771076  0.5930483792111457  1.0000
  H   H817      1.0  0.3173972887367155  0.6565688097700647  0.582265237058811  1.0000
  H   H818      1.0  0.28842422357003816  0.7070461841820186  0.5593665078379938  1.0000
  H   H819      1.0  0.2444196348549194  0.7063828082722508  0.5556833171475435  1.0000
  H   H820      1.0  0.26908074698431794  0.6797367250722903  0.5317507986996326  1.0000
  N   N48       1.0  0.3048605894144268  0.26921615960588857  0.4398413087342963  1.0000
  C   C573      1.0  0.2806108682110121  0.2438213744798891  0.45037445774075363  1.0000
  C   C574      1.0  0.28893792874649166  0.2920358327258682  0.417577818266233  1.0000
  C   C575      1.0  0.3328657512923507  0.25180801301716316  0.4251012740475564  1.0000
  C   C576      1.0  0.31700458649541874  0.2892599070288283  0.46620263057810085  1.0000
  H   H821      1.0  0.2706847133611164  0.22850773580670827  0.43099836255481866  1.0000
  H   H822      1.0  0.25906002533141903  0.25627628374464534  0.46127026315923125  1.0000
  H   H823      1.0  0.29151450752711866  0.22613978532429688  0.4673313564952839  1.0000
  H   H824      1.0  0.2777953473786582  0.277656729680253  0.3982094565184593  1.0000
  H   H825      1.0  0.2686901064512931  0.3067979466561549  0.4283779106957159  1.0000
  H   H826      1.0  0.3067803557813957  0.3105438978246654  0.4079736788537291  1.0000
  H   H827      1.0  0.32462223282346814  0.23654667091132098  0.40504485113373256  1.0000
  H   H828      1.0  0.34555585344963097  0.23444217182506566  0.44127394111269624  1.0000
  H   H829      1.0  0.3515266236382167  0.27044366302336204  0.4168596851218058  1.0000
  H   H830      1.0  0.3367334487188897  0.3072730044567943  0.45928529879137425  1.0000
  H   H831      1.0  0.32743429738530455  0.27272888915160004  0.4843152120364996  1.0000
  H   H832      1.0  0.29700848977529354  0.30467834049845166  0.4766590195752206  1.0000
  N   N49       1.0  0.3517939911675956  0.28820796703342855  0.7703336999115472  1.0000
  C   C577      1.0  0.3319952298531659  0.2654478709333566  0.7897692029169892  1.0000
  C   C578      1.0  0.38696760635279  0.2848415219049063  0.7784166264690628  1.0000
  C   C579      1.0  0.34115337283567104  0.3236309166630925  0.7753044882755712  1.0000
  C   C580      1.0  0.3469580927206104  0.27894218309025215  0.7378903257972557  1.0000
  H   H833      1.0  0.3351424538376873  0.27164777042568805  0.8144231456929653  1.0000
  H   H834      1.0  0.33876831854299344  0.23833276471386564  0.7862187905822249  1.0000
  H   H835      1.0  0.3053700022950906  0.2678868000393935  0.7844783242400535  1.0000
  H   H836      1.0  0.4025944159281084  0.30211301022822984  0.7644736897776044  1.0000
  H   H837      1.0  0.39135770685620735  0.29141460539032227  0.8028109489895784  1.0000
  H   H838      1.0  0.39587252750241525  0.2584662996101902  0.774646199169122  1.0000
  H   H839      1.0  0.35596573263900405  0.3416859626448818  0.7615426865620654  1.0000
  H   H840      1.0  0.34382125349647913  0.3313360416070175  0.7996793563019061  1.0000
  H   H841      1.0  0.31488329779700297  0.3271554936819711  0.7688079462768876  1.0000
  H   H842      1.0  0.36153423251863703  0.2957512428853715  0.7226063139166219  1.0000
  H   H843      1.0  0.3206194618580094  0.28103715074080954  0.731091116365275  1.0000
  H   H844      1.0  0.3544933707248669  0.25221565383071615  0.7333694481047173  1.0000
  N   N50       1.0  0.477848652245932  0.5554673808423203  0.9644275058586136  1.0000
  C   C581      1.0  0.4886451795100677  0.5796192487134865  0.9407913154434547  1.0000
  C   C582      1.0  0.46252918323207404  0.5256577575245706  0.9495007893418104  1.0000
  C   C583      1.0  0.4537398300904122  0.5722828169438948  0.9846124445653668  1.0000
  C   C584      1.0  0.506520804373661  0.5443836873078545  0.982651511467921  1.0000
  H   H845      1.0  0.4998617524223372  0.6027533915996054  0.9509912150343085  1.0000
  H   H846      1.0  0.46764758583628313  0.5880653131455775  0.9263766766742151  1.0000
  H   H847      1.0  0.5073546763730131  0.5679984288399579  0.9255397617289436  1.0000
  H   H848      1.0  0.4544211549958105  0.5065289248291944  0.9665196196662346  1.0000
  H   H849      1.0  0.44062567248392676  0.5330695752277288  0.9357420665301739  1.0000
  H   H850      1.0  0.48006398607527273  0.5127984653518546  0.9337545324678953  1.0000
  H   H851      1.0  0.44565401316474373  0.5550748440795342  0.0032169950016511795  1.0000
  H   H852      1.0  0.431321771714017  0.5799819412259568  0.971728284478718  1.0000
  H   H853      1.0  0.4644910426285309  0.5954468713618737  0.9954304636284442  1.0000
  H   H854      1.0  0.4989472097260746  0.5272144082469417  0.001501727952417875  1.0000
  H   H855      1.0  0.5197905161760062  0.5664778294818239  0.9929073532901197  1.0000
  H   H856      1.0  0.5244197506826106  0.5301548062047162  0.9683154869256622  1.0000
  N   N51       1.0  0.40757436613799153  0.9443888562539562  0.828104122396693  1.0000
  C   C585      1.0  0.40488415679003587  0.9716253843331374  0.8512864464549824  1.0000
  C   C586      1.0  0.3983532183287223  0.9578797277558544  0.7978406853727317  1.0000
  C   C587      1.0  0.3851816961202148  0.9161662400551954  0.8360986010997942  1.0000
  C   C588      1.0  0.4418452339567657  0.9318923620278095  0.8271193147330891  1.0000
  H   H857      1.0  0.379387364848256  0.9818490532099222  0.8525071380952436  1.0000
  H   H858      1.0  0.42154074038807193  0.993265942533363  0.8459991116103464  1.0000
  H   H859      1.0  0.4117131329459341  0.9623949285425961  0.8744363698517631  1.0000
  H   H860      1.0  0.3990158823575175  0.9377372995104011  0.779960274687578  1.0000
  H   H861      1.0  0.37294852602430534  0.9684219597720138  0.7980070036695933  1.0000
  H   H862      1.0  0.41528168887110156  0.9784680482232045  0.790567002674287  1.0000
  H   H863      1.0  0.38636186153191593  0.8952799447574092  0.8188978320141052  1.0000
  H   H864      1.0  0.3590690834278723  0.9247564575972498  0.8368145890877381  1.0000
  H   H865      1.0  0.39133210407854513  0.9052350969872582  0.8587794925866212  1.0000
  H   H866      1.0  0.44477363109392776  0.9114480991155745  0.8097185650119372  1.0000
  H   H867      1.0  0.4496679071507375  0.9215455234338021  0.8495998092937891  1.0000
  H   H868      1.0  0.45935115986349667  0.9526690066313084  0.8212667860571276  1.0000
  N   N52       1.0  0.9970318358076671  0.5361346349714129  0.7923333272289964  1.0000
  C   C589      1.0  0.9661356682504094  0.5340146682067416  0.8099485381461292  1.0000
  C   C590      1.0  0.015160242749768127  0.5672091446354447  0.8013109475398034  1.0000
  C   C591      1.0  0.9893199400421456  0.5372776710801425  0.7593437286162757  1.0000
  C   C592      1.0  0.017450564092270415  0.5060065306765488  0.7988827294259174  1.0000
  H   H869      1.0  0.9710642432670002  0.5341440908404972  0.8349587915626911  1.0000
  H   H870      1.0  0.9520121883368363  0.5105221496264035  0.8043951508675989  1.0000
  H   H871      1.0  0.949764609618906  0.5560228181737685  0.8051766503193479  1.0000
  H   H872      1.0  0.03806098361809873  0.5704601807790215  0.7877673040694514  1.0000
  H   H873      1.0  0.9997826444691875  0.5903460523810187  0.7980794920526164  1.0000
  H   H874      1.0  0.022322436782207022  0.566570668594429  0.8258650098792334  1.0000
  H   H875      1.0  0.9743604561762077  0.56003543550761  0.7535595540742188  1.0000
  H   H876      1.0  0.9749719128509763  0.5145195933327497  0.7519121589597282  1.0000
  H   H877      1.0  0.012042305517078855  0.5382305369585749  0.7452579261038127  1.0000
  H   H878      1.0  0.04117358159785711  0.5068958682394349  0.7862526215573814  1.0000
  H   H879      1.0  0.004489848710165889  0.4821562617480662  0.7921660943669624  1.0000
  H   H880      1.0  0.023330371455938304  0.5042371806621994  0.8236946706780096  1.0000
  N   N53       1.0  0.07745433130247514  0.3533726194388501  0.3515196298565272  1.0000
  C   C593      1.0  0.10775971049789586  0.34391620361461267  0.33499264426263714  1.0000
  C   C594      1.0  0.06831785856560635  0.38863774302627735  0.3438870817418694  1.0000
  C   C595      1.0  0.0831401707778681  0.3505885853045744  0.3847668348682628  1.0000
  C   C596      1.0  0.05045962254561088  0.3302799564885972  0.3423567747291924  1.0000
  H   H881      1.0  0.1149083481864072  0.3172038714337966  0.3398681188006205  1.0000
  H   H882      1.0  0.12881455187225332  0.3604616269362401  0.34169559512192804  1.0000
  H   H883      1.0  0.10433798479148997  0.3462579293878862  0.3098454909241115  1.0000
  H   H884      1.0  0.04572268207744745  0.396678511420828  0.35629643250548476  1.0000
  H   H885      1.0  0.08816995705096718  0.4069181641502131  0.3500231714774686  1.0000
  H   H886      1.0  0.06308456315026278  0.3915387594188747  0.31901209050557966  1.0000
  H   H887      1.0  0.10353165193540534  0.3674505565555413  0.39254436939723597  1.0000
  H   H888      1.0  0.08965484870166217  0.32414826982859757  0.39138303984008443  1.0000
  H   H889      1.0  0.060764744526159216  0.3578828821419497  0.3978712816239964  1.0000
  H   H890      1.0  0.04567043732422005  0.3316937907261632  0.31734943160766194  1.0000
  H   H891      1.0  0.027146865514475316  0.3370182780029682  0.3541459465539151  1.0000
  H   H892      1.0  0.05631306707071904  0.30346004385630304  0.3481529479392746  1.0000
  N   N54       1.0  0.5294451026689059  0.09755968295343487  0.04365396563511359  1.0000
  C   C597      1.0  0.5455545668058442  0.10324973764858707  0.07356065428122331  1.0000
  C   C598      1.0  0.5455674743670289  0.06894929833192842  0.02774985353556825  1.0000
  C   C599      1.0  0.5323823642974208  0.1285715332558951  0.024933932778884005  1.0000
  C   C600      1.0  0.4942602496462838  0.08949838514677855  0.048344569255915244  1.0000
  H   H893      1.0  0.5339120238547402  0.1246199008290358  0.08617272799551703  1.0000
  H   H894      1.0  0.5721306076825692  0.10969368599991092  0.07088669401967655  1.0000
  H   H895      1.0  0.5437996934682667  0.0803764280392083  0.08833832914648253  1.0000
  H   H896      1.0  0.5346441266806089  0.06469495807997205  0.004694396870197126  1.0000
  H   H897      1.0  0.572370704821225  0.07371511236069783  0.02467793562199661  1.0000
  H   H898      1.0  0.5426165949221238  0.04478657079027215  0.04061439872704331  1.0000
  H   H899      1.0  0.5198039635557254  0.15043597902397515  0.03603027293303441  1.0000
  H   H900      1.0  0.5210499990326165  0.12502571853972366  0.0019301870844703473  1.0000
  H   H901      1.0  0.5586507166687583  0.13582828583167925  0.0214831777754263  1.0000
  H   H902      1.0  0.48117199019595425  0.11095622529570474  0.05955863592783862  1.0000
  H   H903      1.0  0.4910994223550886  0.06666099466934083  0.06299793947719512  1.0000
  H   H904      1.0  0.48162779174082365  0.08410604176522662  0.026258140941205932  1.0000
  N   N55       1.0  0.2664457841007034  0.36509567665098097  0.9105017301279514  1.0000
  C   C601      1.0  0.28356001387437224  0.3789777085239221  0.8835703054207918  1.0000
  C   C602      1.0  0.29104904642356366  0.35269493394871054  0.9327216386700258  1.0000
  C   C603      1.0  0.24492632375317985  0.33667029885340555  0.9008722698293383  1.0000
  C   C604      1.0  0.24637416272647167  0.3920846461471632  0.9247551409449943  1.0000
  H   H905      1.0  0.2995523237617304  0.3595259056288046  0.8725952628199317  1.0000
  H   H906      1.0  0.2997064270253653  0.40065410661001954  0.8898920203987563  1.0000
  H   H907      1.0  0.2658160582577168  0.3880006768604951  0.865994344398716  1.0000
  H   H908      1.0  0.27908355543100855  0.3413960343729573  0.9531263982867886  1.0000
  H   H909      1.0  0.30727190000873394  0.3330397113718768  0.9223341625275893  1.0000
  H   H910      1.0  0.3074679512332805  0.37360593112483914  0.9406967302112083  1.0000
  H   H911      1.0  0.2594333551384616  0.3159025936880825  0.8900544942836611  1.0000
  H   H912      1.0  0.2264593385389153  0.3450013660947688  0.8836194836553658  1.0000
  H   H913      1.0  0.23137275977288146  0.32562391426167203  0.9205388223886631  1.0000
  H   H914      1.0  0.23288217193139815  0.3825716503942267  0.9450794551657784  1.0000
  H   H915      1.0  0.22787693251497712  0.40239945439700026  0.9084545490088201  1.0000
  H   H916      1.0  0.2619562044493265  0.41383093960894135  0.9324085475536441  1.0000
  N   N56       1.0  0.547885203959495  0.310766058553019  0.5063408370846516  1.0000
  C   C605      1.0  0.5648494352419665  0.3066952026199496  0.4767260538916908  1.0000
  C   C606      1.0  0.5505515937576002  0.34643555048631686  0.5167069058446694  1.0000
  C   C607      1.0  0.5632484753440359  0.2882479649733546  0.529179697401514  1.0000
  C   C608      1.0  0.5127975895056464  0.3016404686619984  0.5027257137333185  1.0000
  H   H917      1.0  0.5540595624060093  0.3235360066853329  0.45897654564764967  1.0000
  H   H918      1.0  0.5626115835101034  0.28019079110666617  0.46796081561246433  1.0000
  H   H919      1.0  0.5915276091044039  0.31277598138708484  0.47859976606953  1.0000
  H   H920      1.0  0.5373913860921722  0.35055804219002923  0.5387030548612126  1.0000
  H   H921      1.0  0.5766573636398951  0.35420571193822414  0.5200018043607296  1.0000
  H   H922      1.0  0.5393065605234002  0.364153999955051  0.49991948263171343  1.0000
  H   H923      1.0  0.5508254816339285  0.2902109444908838  0.5517232075937966  1.0000
  H   H924      1.0  0.5896957859443671  0.29464011879022123  0.5327554147104201  1.0000
  H   H925      1.0  0.5622045390425915  0.2611442472171356  0.5218334085780567  1.0000
  H   H926      1.0  0.5097685526025892  0.27492349764412605  0.49476216384290156  1.0000
  H   H927      1.0  0.5007213154503507  0.3180243052042545  0.48546578960664244  1.0000
  H   H928      1.0  0.4990061970381858  0.30482845207530507  0.5244763142148164  1.0000
  N   N57       1.0  0.590835412955241  0.04329673254337685  0.8554263891001067  1.0000
  C   C609      1.0  0.6251482051245322  0.05554731189696649  0.8584287732481856  1.0000
  C   C610      1.0  0.5685104719850471  0.0727599578280187  0.8545582885122134  1.0000
  C   C611      1.0  0.5823678819028558  0.021683700177742793  0.8817912521844182  1.0000
  C   C612      1.0  0.5871430768350328  0.023487179935475666  0.8268893089789865  1.0000
  H   H929      1.0  0.6429546601273962  0.03412985941048241  0.8590040538536196  1.0000
  H   H930      1.0  0.6285903681344084  0.07078555221593374  0.8796908426905871  1.0000
  H   H931      1.0  0.632037421765115  0.07241006790917592  0.8390654825686293  1.0000
  H   H932      1.0  0.5740152437573275  0.08931875727907079  0.8347001013215994  1.0000
  H   H933      1.0  0.5423222672031642  0.06493226168685085  0.8524991606795089  1.0000
  H   H934      1.0  0.5707175754657979  0.08832554513887869  0.8757230330107695  1.0000
  H   H935      1.0  0.5565353631301473  0.012164747333949233  0.8800717957832815  1.0000
  H   H936      1.0  0.5844423250223973  0.036001408696623605  0.9036880172264996  1.0000
  H   H937      1.0  0.5988053296451415  0.9991955221190161  0.8832920494375744  1.0000
  H   H938      1.0  0.5931388626340662  0.03913826215912586  0.8065328451114216  1.0000
  H   H939      1.0  0.5613528541782108  0.014238402649220161  0.8239740255591652  1.0000
  H   H940      1.0  0.6035811090552208  0.0009220945311341211  0.8267170127948357  1.0000
  N   N58       1.0  0.33203926540564915  0.9254879463029835  0.32561310594001563  1.0000
  C   C613      1.0  0.3405497200813175  0.9437952972943037  0.29729494025816605  1.0000
  C   C614      1.0  0.33677121645744457  0.8886379622640407  0.3208480492481012  1.0000
  C   C615      1.0  0.29729120831406347  0.9320157322788839  0.33368592669958475  1.0000
  C   C616      1.0  0.35356227179086047  0.9374855321920945  0.3506960720100011  1.0000
  H   H941      1.0  0.33760649550351896  0.971714375995088  0.3000651284302082  1.0000
  H   H942      1.0  0.3248631527508847  0.9355218252154857  0.27776445639060504  1.0000
  H   H943      1.0  0.36662869564219175  0.9391721640826253  0.29065382264183626  1.0000
  H   H944      1.0  0.3630167584305303  0.882405933710139  0.31642876723124075  1.0000
  H   H945      1.0  0.32916887007847495  0.8738681836283393  0.34124449601106005  1.0000
  H   H946      1.0  0.32200362315853104  0.879037486125263  0.30119696298411186  1.0000
  H   H947      1.0  0.29272718176291823  0.9595599955308133  0.337444244717971  1.0000
  H   H948      1.0  0.290332108360882  0.9185925502059373  0.35512649671414154  1.0000
  H   H949      1.0  0.2802608297152023  0.9230427771132238  0.31540530672921313  1.0000
  H   H950      1.0  0.35068418850808325  0.9651769327918647  0.35495622752714506  1.0000
  H   H951      1.0  0.37994008722472594  0.9327855570214998  0.34567942474966257  1.0000
  H   H952      1.0  0.34801592734825665  0.9241629018075105  0.37234227420451477  1.0000
  N   N59       1.0  0.03005695117528151  0.36364205229045393  0.5918176279706523  1.0000
  C   C617      1.0  0.013436117915659684  0.33865418101548267  0.5717222782338499  1.0000
  C   C618      1.0  0.06363474399159563  0.3516959930941496  0.5991919713197954  1.0000
  C   C619      1.0  0.011231893330272413  0.3675733335914414  0.6204566476143538  1.0000
  C   C620      1.0  0.031914843578730645  0.3966436240857074  0.575924158688273  1.0000
  H   H953      1.0  0.9880839522191589  0.3470978108979775  0.5656270048883318  1.0000
  H   H954      1.0  0.011358352452698117  0.3134123625319347  0.5828061484400524  1.0000
  H   H955      1.0  0.027106753119953808  0.33515251046713834  0.5499111277679822  1.0000
  H   H956      1.0  0.07695113938609999  0.37010813570374873  0.6140912913177545  1.0000
  H   H957      1.0  0.06310694799283834  0.3267846867679174  0.6110659190183669  1.0000
  H   H958      1.0  0.07866066964892426  0.3483209785475715  0.5782530639559792  1.0000
  H   H959      1.0  0.022982676971918803  0.3864202008512072  0.6360312445548958  1.0000
  H   H960      1.0  0.009115680320333608  0.34308915929794587  0.6328729059249478  1.0000
  H   H961      1.0  0.9857834318735544  0.37656832968568016  0.6159677891211441  1.0000
  H   H962      1.0  0.046081432718021675  0.3944963790351835  0.5542472396006772  1.0000
  H   H963      1.0  0.04410001041320455  0.41633784432011867  0.5902801162603393  1.0000
  H   H964      1.0  0.006913280313977754  0.40616063460818785  0.5698476619099964  1.0000
  N   N60       1.0  0.4576139257105793  0.3106178105729463  0.07715307644562408  1.0000
  C   C621      1.0  0.42161761618539767  0.30607616168903395  0.07998349729285881  1.0000
  C   C622      1.0  0.46465758370783944  0.3390547582065989  0.056201099117890285  1.0000
  C   C623      1.0  0.4723141746662412  0.2790552659838494  0.06499393771583684  1.0000
  C   C624      1.0  0.47186180663571575  0.31834953791411946  0.1074838702971258  1.0000
  H   H965      1.0  0.41551495577233855  0.28503654221007974  0.09590226552026139  1.0000
  H   H966      1.0  0.4100433380729392  0.30023532544411446  0.05751422126133377  1.0000
  H   H967      1.0  0.40965814537072026  0.329445713856673  0.08897555150197123  1.0000
  H   H968      1.0  0.49165498935674984  0.343078405616351  0.0535077678585274  1.0000
  H   H969      1.0  0.454113712767608  0.33442643593010407  0.033097691163792575  1.0000
  H   H970      1.0  0.454182899862597  0.3632863272369382  0.06495828817499016  1.0000
  H   H971      1.0  0.4993900522770706  0.28170641830257526  0.06232035307061468  1.0000
  H   H972      1.0  0.462031697395517  0.27240890679650576  0.042175768135772625  1.0000
  H   H973      1.0  0.4678630161182451  0.257105731528106  0.0804518054245419  1.0000
  H   H974      1.0  0.460536446949782  0.341493429504243  0.11760317192078044  1.0000
  H   H975      1.0  0.49884858525971654  0.3230883907530476  0.10600739850087779  1.0000
  H   H976      1.0  0.4679467171025431  0.2971504830647948  0.12380787937540752  1.0000
  N   N61       1.0  0.5705667419606034  0.8806718822323583  0.4326255026231589  1.0000
  C   C625      1.0  0.5566655734575818  0.9145609680466587  0.42612019924634525  1.0000
  C   C626      1.0  0.5700928343666807  0.8746191511181572  0.46590161942540653  1.0000
  C   C627      1.0  0.6048745272171047  0.8789133767738277  0.42150819513707455  1.0000
  C   C628      1.0  0.5505343350015033  0.8544552697280056  0.41703479889713463  1.0000
  H   H977      1.0  0.5710501192606168  0.9351061779067279  0.43748235474596026  1.0000
  H   H978      1.0  0.5307474693100138  0.916607292895415  0.4342134626609873  1.0000
  H   H979      1.0  0.556279058340123  0.9199853815584097  0.40118172553161296  1.0000
  H   H980      1.0  0.5802438656181552  0.849163863768363  0.47157878970746675  1.0000
  H   H981      1.0  0.5849645083768749  0.893890765980916  0.47846245338123106  1.0000
  H   H982      1.0  0.5445505985754425  0.8756635542404391  0.47508762597820886  1.0000
  H   H983      1.0  0.6159735070738773  0.8535490742540196  0.42601596791556756  1.0000
  H   H984      1.0  0.620891560512589  0.8980706610153902  0.4330159488367917  1.0000
  H   H985      1.0  0.6062756774368689  0.8834612336661695  0.39649820174858136  1.0000
  H   H986      1.0  0.5605307543004735  0.8285585777898581  0.4210885396165215  1.0000
  H   H987      1.0  0.5497243683674521  0.8585501534088995  0.3919417173402051  1.0000
  H   H988      1.0  0.5246752596652442  0.8546507196269886  0.4253964419188651  1.0000
  N   N62       1.0  0.16018468884115844  0.651671862709191  0.08406586560490187  1.0000
  C   C629      1.0  0.16321233417798053  0.6470315320282024  0.11744462565142075  1.0000
  C   C630      1.0  0.1622580474020868  0.6183178933564157  0.06860605051908339  1.0000
  C   C631      1.0  0.18703908684076048  0.6739217856608946  0.07323823342711813  1.0000
  C   C632      1.0  0.12813717694424534  0.6674851584770048  0.0769431196405733  1.0000
  H   H989      1.0  0.18750725317332756  0.6360790564035015  0.12372509642214434  1.0000
  H   H990      1.0  0.14388538658487462  0.6296049962247215  0.1262785407260994  1.0000
  H   H991      1.0  0.16065034308457887  0.6716317929642942  0.12991574880010615  1.0000
  H   H992      1.0  0.1865675862800399  0.6060756293176346  0.07250011534681605  1.0000
  H   H993      1.0  0.14275535625162425  0.6006244565935581  0.07672744017454658  1.0000
  H   H994      1.0  0.15917637901663578  0.6208909270730023  0.04348451644027573  1.0000
  H   H995      1.0  0.18490327800253017  0.6788270827573756  0.04826534990415854  1.0000
  H   H996      1.0  0.211604981713944  0.6622529592724304  0.07712483232970653  1.0000
  H   H997      1.0  0.18675087164034954  0.6988885046884399  0.08526998540850522  1.0000
  H   H998      1.0  0.1246968332878312  0.6915975661661231  0.0898338853841152  1.0000
  H   H999      1.0  0.10739656598696402  0.6504479942247368  0.08283292757551276  1.0000
  H   H1000     1.0  0.12579958299886768  0.6733707504286008  0.05220169353504689  1.0000
  N   N63       1.0  0.011313530486351642  0.13814038533131018  0.14644365552333136  1.0000
  C   C633      1.0  0.988891760764876  0.1675455750958329  0.14873700998166595  1.0000
  C   C634      1.0  0.03320769341699048  0.13733426737801466  0.17345551086618086  1.0000
  C   C635      1.0  0.03132209813600917  0.1411906391750287  0.11842031824805853  1.0000
  C   C636      1.0  0.9917069446014857  0.10651458204960292  0.1451306090404364  1.0000
  H   H1001     1.0  0.0027802015682329984  0.19184517277249616  0.15097147513672557  1.0000
  H   H1002     1.0  0.9728126679004209  0.16563080166938393  0.16915596313407266  1.0000
  H   H1003     1.0  0.9725105515901413  0.16940561612386715  0.12841533538536673  1.0000
  H   H1004     1.0  0.05143706278651128  0.11635992193761957  0.17191579772870091  1.0000
  H   H1005     1.0  0.04696801093576841  0.16162855460783934  0.17628880756170923  1.0000
  H   H1006     1.0  0.01901504422561162  0.13340592890825947  0.19480134781457373  1.0000
  H   H1007     1.0  0.04903457650016452  0.11979359256383698  0.11616165216406353  1.0000
  H   H1008     1.0  0.04594119840401434  0.16515974884032816  0.1184130436175251  1.0000
  H   H1009     1.0  0.015576524046833518  0.14120340953243782  0.09757524521606872  1.0000
  H   H1010     1.0  0.9747235888165015  0.10633034482308015  0.1251454118957618  1.0000
  H   H1011     1.0  0.9761760678461221  0.10338004448946898  0.165898087115725  1.0000
  H   H1012     1.0  0.007687472671286778  0.08368694545215738  0.14338567046200262  1.0000
  N   N64       1.0  0.06974979997365915  0.16390401741202054  0.8669415066746183  1.0000
  C   C637      1.0  0.08614232806604605  0.1922795491505105  0.8831607067688311  1.0000
  C   C638      1.0  0.04031554537075421  0.1531718846273411  0.8842233614588128  1.0000
  C   C639      1.0  0.09274835763967593  0.13502442149785598  0.8641875185198301  1.0000
  C   C640      1.0  0.05984373362800799  0.17511646199645448  0.8360980704836628  1.0000
  H   H1013     1.0  0.10753936722624657  0.20200400795744766  0.8699835409861654  1.0000
  H   H1014     1.0  0.09545458598058043  0.18431299859336026  0.9059797908835436  1.0000
  H   H1015     1.0  0.0691265028829453  0.21402026699058285  0.8867073921258632  1.0000
  H   H1016     1.0  0.04711123236782533  0.14332443039598708  0.9071827322291438  1.0000
  H   H1017     1.0  0.022731431196234553  0.17447134145351728  0.8875387928706361  1.0000
  H   H1018     1.0  0.026833977903048645  0.13239758024237314  0.8721939513446441  1.0000
  H   H1019     1.0  0.08060728371866199  0.112518411321195  0.8535094026997868  1.0000
  H   H1020     1.0  0.10208058471400472  0.12692786170880743  0.8869209922916634  1.0000
  H   H1021     1.0  0.11449226272800228  0.14167264428726378  0.8499754665469967  1.0000
  H   H1022     1.0  0.04242195842884655  0.19684697386137517  0.8372207940930876  1.0000
  H   H1023     1.0  0.0476098766036106  0.15419682307838856  0.8231659669330883  1.0000
  H   H1024     1.0  0.08163614108806039  0.18343283854652492  0.8225569035374724  1.0000
