data_image0
_chemical_formula_structural       HFeS2FeCHCS2FeSCSH2FeS2FeS2FeS2FeSHCS2HCFeS2FeS2FeSFeS3H2C3H2C2NHCHNH4CH2C6H4C6H5C2HCH2C6H6NC6H4CNHSH3Fe2H7CH2FeC2FeC4H5NC4H12CFeHCH5CH4CH2NC4H16CHCSHNHC3HCH3SC2H3CHCHCHCH3CH2CNHSH3SH4CH3CS2H2Fe2S2FeHFeS2HFeS2CFeCFeS2HCHFeS2FeS2FeSCHSHNSCFeS2FeS2FeSFeS3CHSC2SHCHC6H4C6H2CHC2FeHCSHCHSH3CHCH2C6H6C6HCH2CH4C2HNC3H9CH2NH2C2HCHCH3NHNHCH6C3H3CFeH4CH3CHCHNC2H2C2H2CH3C2H10CHCHSH2NCH3S3C2NCH2Fe2S3HFeHS2HSFeSH2FeS2FeS2FeS2FeSFeS3H2FeS2FeS2FeSFeS3HCHCFeH3SH2CSHCNC3H2C6H4C6H4NC3H2C7H4C2FeC6H5CH2C2H2CHSHCH2NC4H12NC4H12NHC2H2CNFeCH4CH3C2HC2H2CH4SNH3SHCH4C2H2C3HCHCHCHCH3C2H2CHC3HCH7CH5CSHCH2CH3SHC3H4FeS2C2H2SHFeS2HFeCFeS2FeCHFeS2FeS2FeSFeHSHC3FeS2FeS2FeSFeS3CH3CH3C5H6C6H2CSH4C2H3CH4CH2FeC6H6C6H2CH5FeHCHCNHCH2CH4C2H4CSCH4NCH5CSH3CHCHFeC2NCHCH2NCNSC2H4CH2CH4NC4H15C2HSH2CH2SHSH2NC5H3CHC2H2CHCH5SCH4CH4C2H4C2HS2CHSHCHSCHCH2CHC2FeSHFeS2FeSFeS3FeS2FeS2FeNFeS3HCSFeSHFeSHFeSFeSFeS2CHFeHS2CH3C3H2CH3C6H4CHC2NCH3C6H4C6H4C3HSCH11CH2NCH6CFeSHSCHCHC2H2NH2CHCH5CH3CHC2H2S2CH2CHCH2C2NH7CHC2H4CHCH3C4H2CNC3FeH5CSH4SHCNHCH4NC4H2CHCH2SH3SHCH5SH2C2H2C2FeSHFeS2FeCFeS3FeS2FeS2FeSFeS4H4FeS2CFeHCS2FeS2Fe3HS2H2CH6CH4C2HC2H11NHC6H4CHCHNH2CHC6H4C6HC2HC6H5CH2SNH2NHFeH2CH3CH2NCHCHCH2CFeHCHCH4C3H3NSH2C3HCH3C2H7C2H2S2HC2H2SCH2CH6C3H4NC3SH6C2SH2CH2CH2CH5CH6C2HCHSHC4SHCH4CH3SC3FeSHFeS2FeSFeS3FeS2FeS2FeCFeS3H2CFeSC2SHFeSNSFeS2Fe3HS2C2SCNCHCH4C7H4CHCHC2SH2C6H4C6H4C3HC2H5CH3SH2CH3CHC2SHCH7CHNHSFeH3CHC3HSH4C3NC4H12CH3SH2CH3C2HSH2SHCH3CNH3NHC3H2SH6CHCHNCH2NCH4CH12CHCHFeHCSH2CFeSCFeS2FeHFeS3FeS2FeS2FeSFeS3CH4FeS2CFe2HS2FeS2CFeSHS2HC2H6CHCH2SNCH4CH4SH3CHC6H4CHFeHC2HCHC6H4C6H4C6H9C4FeCFeH2CHCHCH4NH4NH4CH5NH2CH2CHNC2H5C2NHCNCHC2NHSH5SH2C2HC2H2CHC2H3NCH5CH5CHC2H3SH3CHCHCHCH3CH2NH3CH2C2HC2H3FeSCFeH2SCSHSCHFeS2HCHFeS2FeS2FeSFeS3CSH2SCFeSHS2H5SCH2CH4C6H4C6H5C4H2FeHCHSCH2C8H4C2H5NSCH2C4H2FeHCNC4H12SCFeH2CH9SH2CH2CHFeSFeHCFeH5C2H2NCH2CH4C2NC4H4NCHCFeH2NHCHCH5NH2CH2CFeC2H4CH5CH2SNFe3S2Fe3HSFeS2FeNC3S2C2HFeS2FeS2FeSFeS3FeSHFeS2FeSHS2HSCH2CH2C2H4C6H4C6H6CH4NHSHCHC2SHCH2C6H4C6H6NC2SH4CH4NH7C2FeHCH3C2H2CHCH5CH4CHCHNCH2NCH5CSH2CH2SNC4H8CH2CHSHCHCH2CH2C2HSHC2H2CHCHSHCSH5CHCFeNCH6C2SHCNH4C2SH3C2HC2HCHNFeH3CHNHFeSHFeHFeSFeSFeSC2FeS2C2Fe2S2FeS2FeSFeS3FeS2FeS2FeSHCSFeH3C2H5C2HC6H4C6H5C3H3CH2NH6C6H6C3HSCH2C4HCHC2HCHNC4HCHCH2SCH3CH3C2H6CHC2HC2H2NSH2SHCHCNH4SHCH3C2H6CHC2H2SCH3C2HNC2HCHCH8C2H2NH2CHNH2SH2C2SH2SH2CH3C2HC2H3CHCSHC2SH4C2H2NH2CFeS2H4SFeS2Fe2HFeHS2C3FeS2FeS2FeSFeS3FeS2FeS2FeSCS2C5HNHC2HCH2C6H4C6H5SCFeHSH2C2SH2C4SH2C6H4C6H4SH2C2HCH5CHSHCHNC4H14CHCFeH2CHCH3CNC4H12NH4CH3CSCH2C2H4NCH5CNH2SH2CS3H7SHCH2FeH2C2HSCNCHFeS2FeS2FeHFeSHSC2H3FeS2FeS2FeSFeS3FeS2CFe2CS2FeSHFeSFe2S3HCHFeHNCH2CH2C6H4SC3H9CHC2H2CH2C6H4C6H4C8H2C3H2NC4H13CHCNCHS3C3HC3NC4H12SHCSH4CH2CSHNH2CHNCH3SH4CH2CHCH3SHCHCH2C3H2SC3H6CH7CH2SH2C3S2HNFeS2FeSHFeSFeS3FeS2FeSHFeSFeS3CHCFeS2FeHC2S2FeS2H2CHS2CH5CHSC7H4CHCHC2H3C6H4C6H4C6H6SH2FeSH2CSHC2H2CHNC4H16CH3SHCH4CHCFeHFeH2CH2CH2NH3NH2CH3SHC2H2CH2CH3NC3HCHCSC3H2NH3CH2CHCSHCH6C2HSHCH2CHCH3CHCH4NCH3CHFeHCFeH4CNCHFeSHFeS2FeHFeSHSHC2SHFeS2FeS2FeSFeS3FeS2Fe3HS2FeSCFeSFe2S3H2CHCH2CSHCHC6H5C4H2CH2C2H4C3HCHC6H4C6H4C6H2CH2SH2CNC4H12CH5SH2CHCSH2C2NC5HNCH4CSHCNHCHCH6C2SH2CNC4H13NH3CH5CHSHC2HNH4CH3NH3S2CH3CNH3CHC2H2S2H3CH3SH3CH2SHFeS2FeSCFeSFeS3FeS2FeSHFeSFeS4H2FeS2H4S2FeS2HC2S3CH3C2H2CHC6H4C3H6C6H4C6H4C6H10C2H3C4H5CH2C2H3C3H3SFeHNHCHCHC3HFeHCHCNC4H13CSC2FeSHCH2CHFeH5CH3NCH6SNCH4FeH2CH4NHSHNH2CNHC2H2SHCH4CHCHC2NCFeC3SH4CHCH4
_chemical_formula_sum              "H2048 Fe256 S512 C1280 N128"
_cell_length_a       70.8293
_cell_length_b       47.8144
_cell_length_c       60.7259
_cell_angle_alpha    89.8786
_cell_angle_beta     88.9239
_cell_angle_gamma    88.327

_space_group_name_H-M_alt    "P 1"
_space_group_IT_number       1

loop_
  _space_group_symop_operation_xyz
  'x, y, z'

loop_
  _atom_site_type_symbol
  _atom_site_label
  _atom_site_symmetry_multiplicity
  _atom_site_fract_x
  _atom_site_fract_y
  _atom_site_fract_z
  _atom_site_occupancy
  H   H1        1.0  0.16479  0.27251  0.15197  1.0000
  Fe  Fe1       1.0  0.06658  0.19886  0.11934  1.0000
  S   S1        1.0  0.05336  0.18644  0.15133  1.0000
  S   S2        1.0  0.09658  0.21411  0.11805  1.0000
  Fe  Fe2       1.0  0.04297  0.14903  0.13325  1.0000
  C   C1        1.0  0.04418  0.02742  0.16766  1.0000
  H   H2        1.0  0.08810  0.14725  0.15075  1.0000
  C   C2        1.0  0.23029  0.12971  0.26387  1.0000
  S   S3        1.0  0.05740  0.16067  0.10129  1.0000
  S   S4        1.0  0.04165  0.22537  0.10865  1.0000
  Fe  Fe3       1.0  0.04411  0.44687  0.19787  1.0000
  S   S5        1.0  0.05559  0.42561  0.22814  1.0000
  C   C3        1.0  0.01944  0.28679  0.13970  1.0000
  S   S6        1.0  0.03919  0.36646  0.21038  1.0000
  H   H3        1.0  0.22416  0.40743  0.32861  1.0000
  H   H4        1.0  0.03040  0.32209  0.33791  1.0000
  Fe  Fe4       1.0  0.06554  0.39098  0.20543  1.0000
  S   S7        1.0  0.09493  0.37123  0.20495  1.0000
  S   S8        1.0  0.05612  0.41369  0.17523  1.0000
  Fe  Fe5       1.0  0.17180  0.42465  0.12403  1.0000
  S   S9        1.0  0.18565  0.44298  0.15337  1.0000
  S   S10       1.0  0.14088  0.41477  0.12192  1.0000
  Fe  Fe6       1.0  0.20859  0.42321  0.09584  1.0000
  S   S11       1.0  0.22525  0.44047  0.12364  1.0000
  S   S12       1.0  0.22006  0.42075  0.06044  1.0000
  Fe  Fe7       1.0  0.20869  0.41096  0.14495  1.0000
  S   S13       1.0  0.22012  0.38398  0.17245  1.0000
  H   H5        1.0  0.23830  0.41765  0.30520  1.0000
  C   C4        1.0  0.25517  0.24658  0.30697  1.0000
  S   S14       1.0  0.19389  0.39126  0.11676  1.0000
  S   S15       1.0  0.18480  0.45501  0.10056  1.0000
  H   H6        1.0  0.05103  0.01202  0.17813  1.0000
  C   C5        1.0  0.26107  0.35491  0.02891  1.0000
  Fe  Fe8       1.0  0.17983  0.19850  0.19865  1.0000
  S   S16       1.0  0.19528  0.18872  0.16690  1.0000
  S   S17       1.0  0.14794  0.20038  0.20216  1.0000
  Fe  Fe9       1.0  0.21639  0.20418  0.22469  1.0000
  S   S18       1.0  0.23430  0.19579  0.19429  1.0000
  S   S19       1.0  0.22932  0.20283  0.25896  1.0000
  Fe  Fe10      1.0  0.21351  0.22409  0.17704  1.0000
  S   S20       1.0  0.22089  0.25482  0.15017  1.0000
  Fe  Fe11      1.0  0.21445  0.16099  0.18713  1.0000
  S   S21       1.0  0.22888  0.11898  0.17813  1.0000
  S   S22       1.0  0.19695  0.23543  0.20786  1.0000
  S   S23       1.0  0.19748  0.16799  0.21830  1.0000
  H   H7        1.0  0.22858  0.12321  0.50236  1.0000
  H   H8        1.0  0.22915  0.12559  0.44105  1.0000
  C   C6        1.0  0.24864  0.13869  0.23090  1.0000
  C   C7        1.0  0.23963  0.23060  0.27362  1.0000
  C   C8        1.0  0.24084  0.25759  0.26487  1.0000
  H   H9        1.0  0.26272  0.33707  0.06151  1.0000
  H   H10       1.0  0.16359  0.27700  0.18137  1.0000
  C   C9        1.0  0.02774  0.32225  0.35606  1.0000
  C   C10       1.0  0.24684  0.22525  0.29473  1.0000
  N   N1        1.0  0.02709  0.35103  0.36496  1.0000
  H   H11       1.0  0.22386  0.18355  0.46343  1.0000
  C   C11       1.0  0.25760  0.10032  0.25465  1.0000
  H   H12       1.0  0.06779  0.48029  0.12257  1.0000
  N   N2        1.0  0.23648  0.14370  0.47209  1.0000
  H   H13       1.0  0.21806  0.14233  0.25757  1.0000
  H   H14       1.0  0.06330  0.06005  0.17559  1.0000
  H   H15       1.0  0.24320  0.29484  0.02891  1.0000
  H   H16       1.0  0.23542  0.26204  0.24866  1.0000
  C   C12       1.0  0.07236  0.46918  0.13777  1.0000
  H   H17       1.0  0.18474  0.28481  0.16626  1.0000
  H   H18       1.0  0.10202  0.48038  0.11064  1.0000
  C   C13       1.0  0.20280  0.03436  0.16114  1.0000
  C   C14       1.0  0.22228  0.03804  0.15910  1.0000
  C   C15       1.0  0.22998  0.06410  0.16427  1.0000
  C   C16       1.0  0.21833  0.08684  0.17133  1.0000
  C   C17       1.0  0.19885  0.08319  0.17335  1.0000
  C   C18       1.0  0.19118  0.05709  0.16834  1.0000
  H   H19       1.0  0.23140  0.02081  0.15360  1.0000
  H   H20       1.0  0.24506  0.06668  0.16264  1.0000
  H   H21       1.0  0.18972  0.10041  0.17883  1.0000
  H   H22       1.0  0.17611  0.05444  0.17004  1.0000
  C   C19       1.0  0.22283  0.29040  0.15688  1.0000
  C   C20       1.0  0.22381  0.31009  0.13980  1.0000
  C   C21       1.0  0.22356  0.33883  0.14449  1.0000
  C   C22       1.0  0.22249  0.34805  0.16632  1.0000
  C   C23       1.0  0.22244  0.32832  0.18346  1.0000
  C   C24       1.0  0.22237  0.29953  0.17876  1.0000
  H   H23       1.0  0.22440  0.30311  0.12285  1.0000
  H   H24       1.0  0.22424  0.35383  0.13119  1.0000
  H   H25       1.0  0.22190  0.33534  0.20040  1.0000
  H   H26       1.0  0.22189  0.28445  0.19205  1.0000
  H   H27       1.0  0.24310  0.10225  0.48396  1.0000
  C   C25       1.0  0.23567  0.39478  0.04877  1.0000
  C   C26       1.0  0.24377  0.37327  0.06141  1.0000
  H   H28       1.0  0.22465  0.11382  0.27543  1.0000
  C   C27       1.0  0.25303  0.15643  0.48211  1.0000
  H   H29       1.0  0.24040  0.37194  0.07883  1.0000
  H   H30       1.0  0.03352  0.47424  0.51079  1.0000
  C   C28       1.0  0.12915  0.40066  0.14500  1.0000
  C   C29       1.0  0.13733  0.39986  0.16580  1.0000
  C   C30       1.0  0.12695  0.39016  0.18415  1.0000
  C   C31       1.0  0.10829  0.38170  0.18178  1.0000
  C   C32       1.0  0.10038  0.38174  0.16086  1.0000
  C   C33       1.0  0.11081  0.39106  0.14254  1.0000
  H   H31       1.0  0.15149  0.40723  0.16784  1.0000
  H   H32       1.0  0.13318  0.39005  0.20029  1.0000
  H   H33       1.0  0.08615  0.37480  0.15873  1.0000
  H   H34       1.0  0.10449  0.39132  0.12644  1.0000
  H   H35       1.0  0.11156  0.46667  0.16936  1.0000
  H   H36       1.0  0.21647  0.17023  0.48982  1.0000
  N   N3        1.0  0.24148  0.11662  0.24563  1.0000
  C   C34       1.0  0.11076  0.21137  0.14165  1.0000
  C   C35       1.0  0.10285  0.20607  0.16244  1.0000
  C   C36       1.0  0.11438  0.20350  0.18091  1.0000
  C   C37       1.0  0.13401  0.20567  0.17872  1.0000
  C   C38       1.0  0.14199  0.21140  0.15800  1.0000
  C   C39       1.0  0.13036  0.21442  0.13955  1.0000
  H   H37       1.0  0.08787  0.20383  0.16440  1.0000
  H   H38       1.0  0.10813  0.19915  0.19691  1.0000
  H   H39       1.0  0.15712  0.21327  0.15615  1.0000
  H   H40       1.0  0.13663  0.21859  0.12352  1.0000
  C   C40       1.0  0.10514  0.46896  0.12619  1.0000
  N   N4        1.0  0.16214  0.31544  0.16271  1.0000
  H   H41       1.0  0.21869  0.10859  0.47799  1.0000
  S   S24       1.0  0.05208  0.10901  0.15136  1.0000
  H   H42       1.0  0.23607  0.34542  0.32778  1.0000
  H   H43       1.0  0.13516  0.30882  0.17826  1.0000
  H   H44       1.0  0.02305  0.27342  0.12594  1.0000
  Fe  Fe12      1.0  0.20078  0.47104  0.12938  1.0000
  Fe  Fe13      1.0  0.02909  0.39139  0.18134  1.0000
  H   H45       1.0  0.21970  0.48525  0.05697  1.0000
  H   H46       1.0  0.05034  0.36412  0.34459  1.0000
  H   H47       1.0  0.25273  0.08344  0.26584  1.0000
  H   H48       1.0  0.16374  0.35503  0.17928  1.0000
  H   H49       1.0  0.03185  0.33730  0.39827  1.0000
  H   H50       1.0  0.08891  0.12486  0.12720  1.0000
  H   H51       1.0  0.25614  0.34841  0.34475  1.0000
  C   C41       1.0  0.14128  0.31630  0.16237  1.0000
  H   H52       1.0  0.02642  0.12691  0.45995  1.0000
  H   H53       1.0  0.13598  0.30294  0.14896  1.0000
  Fe  Fe14      1.0  0.02806  0.40328  0.23035  1.0000
  C   C42       1.0  0.02168  0.35027  0.38859  1.0000
  C   C43       1.0  0.24166  0.23854  0.02926  1.0000
  Fe  Fe15      1.0  0.03078  0.18607  0.09393  1.0000
  C   C44       1.0  0.16905  0.28620  0.16572  1.0000
  C   C45       1.0  0.05113  0.05471  0.16614  1.0000
  C   C46       1.0  0.04243  0.07510  0.15266  1.0000
  C   C47       1.0  0.16965  0.32657  0.14168  1.0000
  H   H54       1.0  0.16469  0.34862  0.13888  1.0000
  H   H55       1.0  0.02185  0.48572  0.26187  1.0000
  H   H56       1.0  0.25764  0.15353  0.23978  1.0000
  H   H57       1.0  0.26063  0.24213  0.32316  1.0000
  H   H58       1.0  0.18536  0.32644  0.14149  1.0000
  N   N5        1.0  0.11115  0.11700  0.15027  1.0000
  C   C48       1.0  0.12238  0.13296  0.16592  1.0000
  C   C49       1.0  0.09788  0.13628  0.13884  1.0000
  C   C50       1.0  0.10034  0.09567  0.16237  1.0000
  C   C51       1.0  0.12395  0.10309  0.13390  1.0000
  H   H59       1.0  0.13276  0.11920  0.17464  1.0000
  H   H60       1.0  0.11319  0.14345  0.17868  1.0000
  H   H61       1.0  0.13046  0.14957  0.15737  1.0000
  H   H62       1.0  0.16328  0.32508  0.19728  1.0000
  H   H63       1.0  0.05684  0.35118  0.37130  1.0000
  H   H64       1.0  0.10545  0.15256  0.12930  1.0000
  H   H65       1.0  0.10981  0.08080  0.17135  1.0000
  H   H66       1.0  0.09169  0.08325  0.15100  1.0000
  H   H67       1.0  0.09027  0.10551  0.17459  1.0000
  H   H68       1.0  0.11590  0.09092  0.12180  1.0000
  H   H69       1.0  0.13414  0.08830  0.14195  1.0000
  H   H70       1.0  0.13233  0.11863  0.12451  1.0000
  C   C52       1.0  0.16857  0.33281  0.18108  1.0000
  Fe  Fe16      1.0  0.02779  0.21002  0.13967  1.0000
  H   H71       1.0  0.24463  0.15454  0.43887  1.0000
  C   C53       1.0  0.23394  0.39944  0.31534  1.0000
  H   H72       1.0  0.25197  0.41129  0.35288  1.0000
  H   H73       1.0  0.02161  0.34595  0.26365  1.0000
  H   H74       1.0  0.02996  0.47781  0.23439  1.0000
  H   H75       1.0  0.24984  0.16321  0.49935  1.0000
  H   H76       1.0  0.16530  0.31390  0.12740  1.0000
  C   C54       1.0  0.02838  0.02018  0.15568  1.0000
  H   H77       1.0  0.24819  0.21710  0.02841  1.0000
  H   H78       1.0  0.18425  0.33273  0.18171  1.0000
  H   H79       1.0  0.10473  0.44620  0.12251  1.0000
  H   H80       1.0  0.25523  0.43604  0.41899  1.0000
  C   C55       1.0  0.09685  0.46222  0.16457  1.0000
  H   H81       1.0  0.02738  0.09450  0.49245  1.0000
  H   H82       1.0  0.08726  0.46835  0.17858  1.0000
  N   N6        1.0  0.07241  0.28748  0.18008  1.0000
  C   C56       1.0  0.06691  0.26251  0.16767  1.0000
  C   C57       1.0  0.06982  0.31273  0.16625  1.0000
  C   C58       1.0  0.09245  0.28432  0.18625  1.0000
  C   C59       1.0  0.06046  0.29045  0.20021  1.0000
  H   H83       1.0  0.06819  0.24322  0.17787  1.0000
  H   H84       1.0  0.07585  0.25925  0.15254  1.0000
  H   H85       1.0  0.05198  0.26434  0.16242  1.0000
  H   H86       1.0  0.07375  0.33193  0.17525  1.0000
  H   H87       1.0  0.07858  0.31137  0.15087  1.0000
  H   H88       1.0  0.05483  0.31582  0.16139  1.0000
  H   H89       1.0  0.10181  0.28157  0.17143  1.0000
  H   H90       1.0  0.09486  0.26561  0.19692  1.0000
  H   H91       1.0  0.09713  0.30301  0.19543  1.0000
  H   H92       1.0  0.04525  0.29308  0.19613  1.0000
  H   H93       1.0  0.06431  0.30908  0.20999  1.0000
  H   H94       1.0  0.06189  0.27172  0.21104  1.0000
  H   H95       1.0  0.20767  0.15531  0.46500  1.0000
  H   H96       1.0  0.11996  0.47328  0.13066  1.0000
  H   H97       1.0  0.21725  0.10970  0.22569  1.0000
  H   H98       1.0  0.06180  0.47452  0.15100  1.0000
  C   C60       1.0  0.01967  0.04054  0.14216  1.0000
  H   H99       1.0  0.22606  0.23654  0.02865  1.0000
  C   C61       1.0  0.25413  0.47025  0.07150  1.0000
  S   S25       1.0  0.26656  0.30144  0.31288  1.0000
  H   H100      1.0  0.24596  0.20449  0.30170  1.0000
  N   N7        1.0  0.25047  0.38434  0.32461  1.0000
  H   H101      1.0  0.04575  0.38528  0.36864  1.0000
  C   C62       1.0  0.24111  0.13591  0.44902  1.0000
  C   C63       1.0  0.02025  0.31593  0.13722  1.0000
  C   C64       1.0  0.26092  0.40344  0.33878  1.0000
  H   H102      1.0  0.02113  0.14552  0.49783  1.0000
  C   C65       1.0  0.22940  0.09792  0.23304  1.0000
  H   H103      1.0  0.09603  0.43923  0.16271  1.0000
  H   H104      1.0  0.23738  0.08780  0.21905  1.0000
  H   H105      1.0  0.22357  0.08108  0.24357  1.0000
  S   S26       1.0  0.19214  0.00196  0.15537  1.0000
  C   C66       1.0  0.24398  0.36041  0.33788  1.0000
  C   C67       1.0  0.25638  0.27357  0.29821  1.0000
  H   H106      1.0  0.24962  0.45447  0.08390  1.0000
  H   H107      1.0  0.24497  0.24742  0.04566  1.0000
  H   H108      1.0  0.13564  0.33798  0.15959  1.0000
  C   C68       1.0  0.24916  0.27891  0.27712  1.0000
  H   H109      1.0  0.23889  0.14438  0.27347  1.0000
  C   C69       1.0  0.23144  0.11838  0.48465  1.0000
  H   H110      1.0  0.23680  0.15128  0.22399  1.0000
  C   C70       1.0  0.22039  0.16408  0.47260  1.0000
  H   H111      1.0  0.02457  0.32478  0.12156  1.0000
  C   C71       1.0  0.04586  0.36344  0.36227  1.0000
  H   H112      1.0  0.02381  0.24392  0.06109  1.0000
  H   H113      1.0  0.25351  0.12107  0.44801  1.0000
  H   H114      1.0  0.22579  0.38551  0.30458  1.0000
  C   C72       1.0  0.02663  0.06787  0.14064  1.0000
  H   H115      1.0  0.21854  0.47860  0.08585  1.0000
  H   H116      1.0  0.07163  0.44630  0.13467  1.0000
  C   C73       1.0  0.24029  0.39617  0.02615  1.0000
  N   N8        1.0  0.09158  0.47696  0.14405  1.0000
  H   H117      1.0  0.23481  0.36731  0.35205  1.0000
  S   S27       1.0  0.26292  0.30731  0.37800  1.0000
  H   H118      1.0  0.03891  0.30901  0.36389  1.0000
  H   H119      1.0  0.02098  0.37160  0.39596  1.0000
  H   H120      1.0  0.25109  0.46130  0.05505  1.0000
  S   S28       1.0  0.01752  0.37001  0.15179  1.0000
  H   H121      1.0  0.25690  0.12977  0.21665  1.0000
  H   H122      1.0  0.26600  0.42185  0.32942  1.0000
  H   H123      1.0  0.01979  0.08330  0.13020  1.0000
  H   H124      1.0  0.25005  0.29966  0.27012  1.0000
  C   C74       1.0  0.25642  0.35349  0.05151  1.0000
  H   H125      1.0  0.25568  0.35899  0.29573  1.0000
  H   H126      1.0  0.25754  0.17520  0.47274  1.0000
  H   H127      1.0  0.26528  0.14133  0.48262  1.0000
  C   C75       1.0  0.26301  0.37397  0.30647  1.0000
  S   S29       1.0  0.26629  0.07761  0.51686  1.0000
  S   S30       1.0  0.26702  0.38594  0.39587  1.0000
  H   H128      1.0  0.26697  0.11395  0.26418  1.0000
  H   H129      1.0  0.26634  0.09035  0.24122  1.0000
  Fe  Fe17      1.0  0.05117  0.44510  0.58901  1.0000
  Fe  Fe18      1.0  0.08465  0.44321  0.62111  1.0000
  S   S31       1.0  0.06738  0.42403  0.64822  1.0000
  S   S32       1.0  0.11525  0.45534  0.62252  1.0000
  Fe  Fe19      1.0  0.05541  0.39668  0.62195  1.0000
  H   H130      1.0  0.06431  0.25887  0.70085  1.0000
  Fe  Fe20      1.0  0.04518  0.45590  0.63769  1.0000
  S   S33       1.0  0.03139  0.42683  0.61407  1.0000
  S   S34       1.0  0.07463  0.41374  0.59555  1.0000
  H   H131      1.0  0.23624  0.08545  0.54843  1.0000
  Fe  Fe21      1.0  0.06565  0.17364  0.70435  1.0000
  S   S35       1.0  0.05269  0.18584  0.67223  1.0000
  S   S36       1.0  0.09715  0.17600  0.70908  1.0000
  C   C76       1.0  0.22791  0.47516  0.84253  1.0000
  Fe  Fe22      1.0  0.03298  0.15088  0.68012  1.0000
  C   C77       1.0  0.03259  0.31283  0.67419  1.0000
  Fe  Fe23      1.0  0.03277  0.21316  0.69242  1.0000
  S   S37       1.0  0.04734  0.13675  0.71116  1.0000
  S   S38       1.0  0.04695  0.20296  0.72428  1.0000
  H   H132      1.0  0.08142  0.23431  0.71158  1.0000
  C   C78       1.0  0.07954  0.25579  0.70466  1.0000
  H   H133      1.0  0.03479  0.16210  0.96276  1.0000
  Fe  Fe24      1.0  0.22932  0.44884  0.73216  1.0000
  S   S39       1.0  0.24580  0.44200  0.70040  1.0000
  S   S40       1.0  0.24641  0.44905  0.76369  1.0000
  Fe  Fe25      1.0  0.19187  0.45080  0.70857  1.0000
  S   S41       1.0  0.20558  0.44460  0.67548  1.0000
  S   S42       1.0  0.16002  0.45415  0.71176  1.0000
  Fe  Fe26      1.0  0.22367  0.41148  0.69145  1.0000
  S   S43       1.0  0.23066  0.37518  0.66825  1.0000
  C   C79       1.0  0.23513  0.45232  0.87707  1.0000
  H   H134      1.0  0.04919  0.19207  0.96625  1.0000
  S   S44       1.0  0.20850  0.41536  0.72425  1.0000
  H   H135      1.0  0.17664  0.38908  0.62518  1.0000
  N   N9        1.0  0.24873  0.25641  0.01119  1.0000
  S   S45       1.0  0.06324  0.47637  0.61197  1.0000
  C   C80       1.0  0.02304  0.47040  0.54419  1.0000
  Fe  Fe27      1.0  0.18305  0.17325  0.63014  1.0000
  S   S46       1.0  0.19467  0.17569  0.66394  1.0000
  S   S47       1.0  0.15196  0.16559  0.62536  1.0000
  Fe  Fe28      1.0  0.22200  0.17922  0.60859  1.0000
  S   S48       1.0  0.23612  0.18317  0.64148  1.0000
  S   S49       1.0  0.24095  0.18114  0.57775  1.0000
  Fe  Fe29      1.0  0.21794  0.14740  0.65136  1.0000
  S   S50       1.0  0.22805  0.11274  0.67394  1.0000
  Fe  Fe30      1.0  0.21139  0.21166  0.65106  1.0000
  S   S51       1.0  0.20953  0.24690  0.67638  1.0000
  S   S52       1.0  0.20521  0.14180  0.61821  1.0000
  S   S53       1.0  0.19849  0.21065  0.61744  1.0000
  C   C81       1.0  0.24760  0.15239  0.56057  1.0000
  H   H136      1.0  0.25293  0.13669  0.60650  1.0000
  S   S54       1.0  0.05341  0.34935  0.61827  1.0000
  C   C82       1.0  0.24384  0.10476  0.54772  1.0000
  C   C83       1.0  0.23791  0.12734  0.56128  1.0000
  S   S55       1.0  0.21136  0.48458  0.71904  1.0000
  H   H137      1.0  0.22573  0.12545  0.57213  1.0000
  C   C84       1.0  0.25287  0.37630  0.01623  1.0000
  H   H138      1.0  0.05263  0.28949  0.61725  1.0000
  C   C85       1.0  0.21820  0.02087  0.65840  1.0000
  C   C86       1.0  0.22216  0.02918  0.67984  1.0000
  C   C87       1.0  0.22513  0.05748  0.68438  1.0000
  C   C88       1.0  0.22365  0.07766  0.66768  1.0000
  C   C89       1.0  0.21918  0.06945  0.64636  1.0000
  C   C90       1.0  0.21672  0.04104  0.64167  1.0000
  H   H139      1.0  0.22340  0.01372  0.69281  1.0000
  H   H140      1.0  0.22861  0.06371  0.70091  1.0000
  H   H141      1.0  0.21785  0.08483  0.63341  1.0000
  H   H142      1.0  0.21354  0.03467  0.62509  1.0000
  C   C91       1.0  0.22516  0.33945  0.67116  1.0000
  C   C92       1.0  0.21646  0.32909  0.69023  1.0000
  C   C93       1.0  0.21176  0.30069  0.69147  1.0000
  C   C94       1.0  0.21560  0.28244  0.67368  1.0000
  C   C95       1.0  0.22414  0.29288  0.65455  1.0000
  C   C96       1.0  0.22895  0.32124  0.65335  1.0000
  H   H143      1.0  0.21356  0.34281  0.70409  1.0000
  H   H144      1.0  0.20525  0.29271  0.70637  1.0000
  C   C97       1.0  0.02503  0.02680  0.66540  1.0000
  H   H145      1.0  0.03916  0.17501  0.98993  1.0000
  C   C98       1.0  0.04053  0.37811  0.56079  1.0000
  C   C99       1.0  0.26471  0.47584  0.79666  1.0000
  Fe  Fe31      1.0  0.02714  0.16735  0.72813  1.0000
  H   H146      1.0  0.02087  0.36230  0.52583  1.0000
  C   C100      1.0  0.25152  0.11610  0.61485  1.0000
  S   S56       1.0  0.02503  0.12142  0.65283  1.0000
  H   H147      1.0  0.26219  0.07746  0.64452  1.0000
  C   C101      1.0  0.02627  0.08494  0.65761  1.0000
  H   H148      1.0  0.16257  0.10023  0.64140  1.0000
  S   S57       1.0  0.04377  0.45254  0.55314  1.0000
  H   H149      1.0  0.23408  0.41271  0.01621  1.0000
  H   H150      1.0  0.02487  0.33284  0.54377  1.0000
  H   H151      1.0  0.26339  0.47901  0.85649  1.0000
  C   C102      1.0  0.03639  0.18150  0.97261  1.0000
  H   H152      1.0  0.23900  0.99608  0.74670  1.0000
  C   C103      1.0  0.02236  0.03738  0.64415  1.0000
  H   H153      1.0  0.24126  0.12711  0.78823  1.0000
  H   H154      1.0  0.04346  0.39288  0.57425  1.0000
  C   C104      1.0  0.11211  0.17251  0.68568  1.0000
  C   C105      1.0  0.13079  0.18114  0.68697  1.0000
  C   C106      1.0  0.14287  0.17987  0.66840  1.0000
  C   C107      1.0  0.13661  0.16908  0.64853  1.0000
  C   C108      1.0  0.11793  0.16029  0.64725  1.0000
  C   C109      1.0  0.10566  0.16214  0.66573  1.0000
  H   H155      1.0  0.13586  0.18933  0.70231  1.0000
  H   H156      1.0  0.15692  0.18764  0.66949  1.0000
  H   H157      1.0  0.11294  0.15195  0.63193  1.0000
  H   H158      1.0  0.09129  0.15528  0.66458  1.0000
  H   H159      1.0  0.01944  0.02328  0.63081  1.0000
  H   H160      1.0  0.14562  0.40314  0.66013  1.0000
  C   C110      1.0  0.12687  0.45667  0.64779  1.0000
  C   C111      1.0  0.14590  0.46392  0.64774  1.0000
  C   C112      1.0  0.15599  0.46388  0.66740  1.0000
  C   C113      1.0  0.14717  0.45644  0.68724  1.0000
  C   C114      1.0  0.12794  0.45010  0.68744  1.0000
  C   C115      1.0  0.11780  0.45014  0.66773  1.0000
  H   H161      1.0  0.16927  0.09161  0.71096  1.0000
  C   C116      1.0  0.17024  0.10673  0.65631  1.0000
  H   H162      1.0  0.12101  0.44448  0.70279  1.0000
  H   H163      1.0  0.10312  0.44458  0.66792  1.0000
  C   C117      1.0  0.02278  0.06642  0.64034  1.0000
  H   H164      1.0  0.22127  0.44193  0.87759  1.0000
  H   H165      1.0  0.25753  0.15450  0.78267  1.0000
  H   H166      1.0  0.25101  0.22287  0.98758  1.0000
  H   H167      1.0  0.03088  0.03719  0.69903  1.0000
  C   C118      1.0  0.17446  0.34568  0.65300  1.0000
  C   C119      1.0  0.03880  0.33307  0.65899  1.0000
  H   H168      1.0  0.04935  0.35885  0.56371  1.0000
  N   N10       1.0  0.09166  0.25960  0.68486  1.0000
  C   C120      1.0  0.08888  0.28838  0.67633  1.0000
  C   C121      1.0  0.08651  0.23937  0.66779  1.0000
  C   C122      1.0  0.11165  0.25469  0.69068  1.0000
  H   H169      1.0  0.09753  0.29183  0.66113  1.0000
  H   H170      1.0  0.09271  0.30424  0.68872  1.0000
  H   H171      1.0  0.07386  0.29275  0.67209  1.0000
  H   H172      1.0  0.08846  0.21749  0.67371  1.0000
  H   H173      1.0  0.07145  0.24219  0.66323  1.0000
  H   H174      1.0  0.09531  0.24149  0.65254  1.0000
  H   H175      1.0  0.12120  0.25610  0.67597  1.0000
  H   H176      1.0  0.11392  0.23345  0.69790  1.0000
  H   H177      1.0  0.11622  0.27002  0.70311  1.0000
  C   C123      1.0  0.24416  0.24399  0.98972  1.0000
  H   H178      1.0  0.02022  0.07457  0.62399  1.0000
  H   H179      1.0  0.01757  0.10395  0.75611  1.0000
  N   N11       1.0  0.02020  0.37214  0.56034  1.0000
  H   H180      1.0  0.15292  0.46913  0.63235  1.0000
  H   H181      1.0  0.14118  0.36762  0.66749  1.0000
  C   C124      1.0  0.04107  0.27584  0.64849  1.0000
  C   C125      1.0  0.24251  0.99398  0.76389  1.0000
  H   H182      1.0  0.17228  0.40369  0.68540  1.0000
  C   C126      1.0  0.02204  0.22536  0.98478  1.0000
  H   H183      1.0  0.25197  0.11798  0.83664  1.0000
  C   C127      1.0  0.25395  0.01382  0.77393  1.0000
  H   H184      1.0  0.16844  0.36805  0.69312  1.0000
  H   H185      1.0  0.23809  0.46111  0.83332  1.0000
  H   H186      1.0  0.17057  0.46962  0.66722  1.0000
  N   N12       1.0  0.23390  0.47951  0.86545  1.0000
  H   H187      1.0  0.16759  0.33138  0.66499  1.0000
  N   N13       1.0  0.16999  0.37539  0.65813  1.0000
  H   H188      1.0  0.24438  0.15411  0.80829  1.0000
  C   C128      1.0  0.14309  0.09796  0.67960  1.0000
  H   H189      1.0  0.04165  0.25390  0.64415  1.0000
  H   H190      1.0  0.16219  0.04984  0.68845  1.0000
  H   H191      1.0  0.03774  0.35507  0.66313  1.0000
  H   H192      1.0  0.13998  0.12074  0.68188  1.0000
  H   H193      1.0  0.13490  0.09122  0.66516  1.0000
  H   H194      1.0  0.13745  0.08702  0.69441  1.0000
  C   C129      1.0  0.04717  0.29609  0.63323  1.0000
  C   C130      1.0  0.02867  0.04529  0.68260  1.0000
  C   C131      1.0  0.02955  0.07418  0.67866  1.0000
  H   H195      1.0  0.02269  0.33916  0.58444  1.0000
  H   H196      1.0  0.24069  0.10432  0.60598  1.0000
  H   H197      1.0  0.03247  0.08812  0.69200  1.0000
  C   C132      1.0  0.04602  0.32479  0.63836  1.0000
  Fe  Fe32      1.0  0.22639  0.47532  0.68690  1.0000
  H   H198      1.0  0.16986  0.34005  0.63620  1.0000
  H   H199      1.0  0.22868  0.24191  0.98788  1.0000
  H   H200      1.0  0.24865  0.09096  0.81643  1.0000
  H   H201      1.0  0.22412  0.28401  0.01205  1.0000
  C   C133      1.0  0.25941  0.10699  0.53318  1.0000
  H   H202      1.0  0.18244  0.05649  0.67127  1.0000
  H   H203      1.0  0.21381  0.46555  0.84197  1.0000
  H   H204      1.0  0.14467  0.37717  0.63903  1.0000
  C   C134      1.0  0.16710  0.06162  0.67369  1.0000
  H   H205      1.0  0.24483  0.29876  0.99968  1.0000
  C   C135      1.0  0.18037  0.39339  0.64254  1.0000
  H   H206      1.0  0.16798  0.12971  0.65793  1.0000
  N   N14       1.0  0.16357  0.09208  0.67629  1.0000
  C   C136      1.0  0.03372  0.28414  0.66907  1.0000
  C   C137      1.0  0.25907  0.10551  0.82325  1.0000
  H   H207      1.0  0.02395  0.22000  0.00248  1.0000
  H   H208      1.0  0.25628  0.37766  0.99883  1.0000
  C   C138      1.0  0.26310  0.15471  0.54591  1.0000
  C   C139      1.0  0.25027  0.47792  0.78111  1.0000
  H   H209      1.0  0.18992  0.34105  0.65358  1.0000
  H   H210      1.0  0.24554  0.43767  0.86884  1.0000
  C   C140      1.0  0.14946  0.38100  0.65609  1.0000
  H   H211      1.0  0.08284  0.27084  0.71788  1.0000
  H   H212      1.0  0.15967  0.05337  0.65918  1.0000
  H   H213      1.0  0.23564  0.32911  0.63851  1.0000
  C   C141      1.0  0.17569  0.38154  0.68087  1.0000
  C   C142      1.0  0.17389  0.10219  0.69552  1.0000
  H   H214      1.0  0.17158  0.12516  0.69785  1.0000
  H   H215      1.0  0.02677  0.31947  0.69001  1.0000
  H   H216      1.0  0.18941  0.09826  0.69347  1.0000
  H   H217      1.0  0.19596  0.38996  0.64389  1.0000
  H   H218      1.0  0.17716  0.41594  0.64576  1.0000
  H   H219      1.0  0.22720  0.27905  0.64078  1.0000
  H   H220      1.0  0.18560  0.10275  0.65322  1.0000
  H   H221      1.0  0.02849  0.21961  0.94115  1.0000
  H   H222      1.0  0.23971  0.45488  0.89440  1.0000
  H   H223      1.0  0.19117  0.37805  0.68287  1.0000
  C   C143      1.0  0.23976  0.28466  0.01303  1.0000
  H   H224      1.0  0.03465  0.23695  0.97917  1.0000
  C   C144      1.0  0.25868  0.01149  0.79630  1.0000
  H   H225      1.0  0.25919  0.03106  0.76426  1.0000
  S   S58       1.0  0.26577  0.06155  0.87039  1.0000
  H   H226      1.0  0.04547  0.38807  0.54520  1.0000
  H   H227      1.0  0.02102  0.99400  0.83175  1.0000
  N   N15       1.0  0.01939  0.20006  0.97135  1.0000
  C   C145      1.0  0.25192  0.14060  0.79583  1.0000
  H   H228      1.0  0.24596  0.12037  0.63179  1.0000
  H   H229      1.0  0.25658  0.06068  0.61920  1.0000
  H   H230      1.0  0.24935  0.25703  0.97576  1.0000
  S   S59       1.0  0.02238  0.99104  0.67152  1.0000
  S   S60       1.0  0.02543  0.25973  0.68877  1.0000
  S   S61       1.0  0.02965  0.48239  0.66330  1.0000
  C   C146      1.0  0.02178  0.47866  0.52202  1.0000
  C   C147      1.0  0.25182  0.98903  0.80856  1.0000
  N   N16       1.0  0.26719  0.12355  0.80596  1.0000
  C   C148      1.0  0.26725  0.07375  0.62723  1.0000
  H   H231      1.0  0.26624  0.08178  0.58344  1.0000
  H   H232      1.0  0.26682  0.09102  0.78152  1.0000
  Fe  Fe33      1.0  0.03309  0.68568  0.09802  1.0000
  Fe  Fe34      1.0  0.06779  0.67007  0.12576  1.0000
  S   S62       1.0  0.05055  0.65758  0.15531  1.0000
  S   S63       1.0  0.09968  0.66857  0.12387  1.0000
  S   S64       1.0  0.26290  0.57216  0.50255  1.0000
  H   H233      1.0  0.25233  0.86412  0.27051  1.0000
  Fe  Fe35      1.0  0.03207  0.63636  0.13113  1.0000
  H   H234      1.0  0.03124  0.98096  0.47809  1.0000
  S   S65       1.0  0.05075  0.64602  0.10187  1.0000
  S   S66       1.0  0.05181  0.71027  0.11983  1.0000
  H   H235      1.0  0.25719  0.70782  0.35286  1.0000
  S   S67       1.0  0.04240  0.94881  0.21206  1.0000
  Fe  Fe36      1.0  0.03265  0.88617  0.17422  1.0000
  S   S68       1.0  0.04468  0.87933  0.20784  1.0000
  H   H236      1.0  0.06400  0.93982  0.25865  1.0000
  H   H237      1.0  0.25766  0.92214  0.03305  1.0000
  Fe  Fe37      1.0  0.06274  0.91558  0.19883  1.0000
  S   S69       1.0  0.09327  0.91443  0.20836  1.0000
  S   S70       1.0  0.05268  0.91963  0.16426  1.0000
  Fe  Fe38      1.0  0.18028  0.90652  0.13033  1.0000
  S   S71       1.0  0.19295  0.92178  0.16134  1.0000
  S   S72       1.0  0.15224  0.88458  0.13113  1.0000
  Fe  Fe39      1.0  0.21536  0.92168  0.10249  1.0000
  S   S73       1.0  0.23005  0.93863  0.13217  1.0000
  S   S74       1.0  0.23135  0.92384  0.06943  1.0000
  Fe  Fe40      1.0  0.21939  0.89995  0.14898  1.0000
  S   S75       1.0  0.23577  0.87208  0.17244  1.0000
  Fe  Fe41      1.0  0.20191  0.95920  0.14149  1.0000
  S   S76       1.0  0.20529  0.51832  0.12750  1.0000
  S   S77       1.0  0.20629  0.88215  0.11903  1.0000
  S   S78       1.0  0.18780  0.94470  0.11064  1.0000
  H   H238      1.0  0.02912  0.90991  0.11415  1.0000
  H   H239      1.0  0.24609  0.88243  0.32985  1.0000
  Fe  Fe42      1.0  0.17647  0.71196  0.20104  1.0000
  S   S79       1.0  0.19377  0.68954  0.17495  1.0000
  S   S80       1.0  0.14653  0.72887  0.19665  1.0000
  Fe  Fe43      1.0  0.20853  0.70885  0.23471  1.0000
  S   S81       1.0  0.22840  0.68609  0.21100  1.0000
  S   S82       1.0  0.21323  0.71962  0.27076  1.0000
  Fe  Fe44      1.0  0.21694  0.71712  0.18616  1.0000
  S   S83       1.0  0.23264  0.74065  0.15978  1.0000
  Fe  Fe45      1.0  0.20343  0.66029  0.20183  1.0000
  S   S84       1.0  0.20241  0.61237  0.20250  1.0000
  S   S85       1.0  0.19892  0.74154  0.21042  1.0000
  S   S86       1.0  0.18427  0.68108  0.22738  1.0000
  H   H240      1.0  0.24716  0.50993  0.04114  1.0000
  C   C149      1.0  0.22352  0.49371  0.07333  1.0000
  H   H241      1.0  0.06102  0.77063  0.11776  1.0000
  C   C150      1.0  0.23299  0.73706  0.28089  1.0000
  Fe  Fe46      1.0  0.03311  0.69637  0.14763  1.0000
  H   H242      1.0  0.22084  0.74093  0.31359  1.0000
  H   H243      1.0  0.25671  0.66117  0.47873  1.0000
  H   H244      1.0  0.02566  0.73092  0.02178  1.0000
  S   S87       1.0  0.02894  0.70243  0.06306  1.0000
  H   H245      1.0  0.24070  0.52872  0.10035  1.0000
  H   H246      1.0  0.24418  0.68907  0.46487  1.0000
  C   C151      1.0  0.24924  0.83361  0.30757  1.0000
  S   S88       1.0  0.01910  0.98603  0.15698  1.0000
  H   H247      1.0  0.08696  0.75910  0.16957  1.0000
  C   C152      1.0  0.23302  0.74506  0.30317  1.0000
  N   N17       1.0  0.23161  0.64869  0.46242  1.0000
  C   C153      1.0  0.25510  0.60058  0.51953  1.0000
  C   C154      1.0  0.09735  0.75621  0.12687  1.0000
  C   C155      1.0  0.02985  0.92513  0.47310  1.0000
  H   H248      1.0  0.08762  0.51937  0.13274  1.0000
  H   H249      1.0  0.23432  0.83919  0.31213  1.0000
  C   C156      1.0  0.20446  0.54407  0.14867  1.0000
  C   C157      1.0  0.20108  0.53733  0.17079  1.0000
  C   C158      1.0  0.20071  0.55849  0.18699  1.0000
  C   C159      1.0  0.20368  0.58662  0.18134  1.0000
  C   C160      1.0  0.20693  0.59340  0.15919  1.0000
  C   C161      1.0  0.20732  0.57224  0.14299  1.0000
  H   H250      1.0  0.19891  0.51579  0.17545  1.0000
  H   H251      1.0  0.19821  0.55297  0.20406  1.0000
  H   H252      1.0  0.20930  0.61490  0.15455  1.0000
  H   H253      1.0  0.20996  0.57773  0.12594  1.0000
  C   C162      1.0  0.23334  0.77704  0.16366  1.0000
  C   C163      1.0  0.23099  0.79487  0.14553  1.0000
  C   C164      1.0  0.23105  0.82400  0.14824  1.0000
  C   C165      1.0  0.23431  0.83556  0.16892  1.0000
  C   C166      1.0  0.23682  0.81770  0.18706  1.0000
  C   C167      1.0  0.23600  0.78851  0.18452  1.0000
  H   H254      1.0  0.22884  0.78608  0.12939  1.0000
  H   H255      1.0  0.22893  0.83732  0.13418  1.0000
  H   H256      1.0  0.23935  0.82642  0.20312  1.0000
  H   H257      1.0  0.23789  0.77485  0.19859  1.0000
  N   N18       1.0  0.26061  0.85876  0.30417  1.0000
  C   C168      1.0  0.24066  0.89542  0.05347  1.0000
  C   C169      1.0  0.23576  0.86775  0.05766  1.0000
  C   C170      1.0  0.09195  0.50749  0.14770  1.0000
  H   H258      1.0  0.26059  0.89520  0.28337  1.0000
  H   H259      1.0  0.22563  0.86325  0.07066  1.0000
  C   C171      1.0  0.05042  0.54684  0.17974  1.0000
  C   C172      1.0  0.13582  0.89358  0.15245  1.0000
  C   C173      1.0  0.14128  0.90816  0.17111  1.0000
  C   C174      1.0  0.12819  0.91420  0.18823  1.0000
  C   C175      1.0  0.10939  0.90625  0.18665  1.0000
  C   C176      1.0  0.10386  0.89152  0.16804  1.0000
  C   C177      1.0  0.11709  0.88498  0.15110  1.0000
  H   H260      1.0  0.15555  0.91496  0.17245  1.0000
  H   H261      1.0  0.13258  0.92562  0.20253  1.0000
  H   H262      1.0  0.08943  0.88508  0.16674  1.0000
  H   H263      1.0  0.11274  0.87369  0.13673  1.0000
  C   C178      1.0  0.26444  0.75558  0.27646  1.0000
  C   C179      1.0  0.24865  0.75831  0.31207  1.0000
  Fe  Fe47      1.0  0.02348  0.91245  0.21887  1.0000
  C   C180      1.0  0.11212  0.68679  0.14376  1.0000
  C   C181      1.0  0.10310  0.69780  0.16265  1.0000
  C   C182      1.0  0.11374  0.71105  0.17873  1.0000
  C   C183      1.0  0.13338  0.71300  0.17607  1.0000
  C   C184      1.0  0.14225  0.70260  0.15693  1.0000
  C   C185      1.0  0.13165  0.68951  0.14084  1.0000
  H   H264      1.0  0.08803  0.69569  0.16503  1.0000
  H   H265      1.0  0.10680  0.71915  0.19352  1.0000
  H   H266      1.0  0.15730  0.70467  0.15446  1.0000
  H   H267      1.0  0.13863  0.68129  0.12611  1.0000
  H   H268      1.0  0.10404  0.81119  0.12871  1.0000
  C   C186      1.0  0.04381  0.56917  0.16649  1.0000
  H   H269      1.0  0.03172  0.77606  0.20075  1.0000
  H   H270      1.0  0.06064  0.86038  0.29087  1.0000
  C   C187      1.0  0.07297  0.91230  0.29638  1.0000
  C   C188      1.0  0.02856  0.51580  0.16293  1.0000
  H   H271      1.0  0.24685  0.61221  0.47393  1.0000
  H   H272      1.0  0.04971  0.58969  0.16800  1.0000
  C   C189      1.0  0.02179  0.53824  0.14988  1.0000
  H   H273      1.0  0.06708  0.78288  0.16610  1.0000
  S   S89       1.0  0.05176  0.49292  0.19527  1.0000
  H   H274      1.0  0.02837  0.52769  0.22417  1.0000
  C   C190      1.0  0.25685  0.85119  0.02769  1.0000
  H   H275      1.0  0.26496  0.65625  0.35251  1.0000
  H   H276      1.0  0.04370  0.93354  0.46776  1.0000
  N   N19       1.0  0.17155  0.81517  0.17264  1.0000
  C   C191      1.0  0.18386  0.79113  0.16581  1.0000
  C   C192      1.0  0.15503  0.81717  0.15815  1.0000
  C   C193      1.0  0.18220  0.84127  0.17093  1.0000
  C   C194      1.0  0.16508  0.81104  0.19567  1.0000
  H   H277      1.0  0.17631  0.77103  0.16694  1.0000
  H   H278      1.0  0.19637  0.78900  0.17652  1.0000
  H   H279      1.0  0.18920  0.79349  0.14857  1.0000
  H   H280      1.0  0.14532  0.83491  0.16307  1.0000
  H   H281      1.0  0.15944  0.82106  0.14072  1.0000
  H   H282      1.0  0.14691  0.79761  0.15869  1.0000
  H   H283      1.0  0.18754  0.84475  0.15382  1.0000
  H   H284      1.0  0.19465  0.84079  0.18187  1.0000
  H   H285      1.0  0.17318  0.85995  0.17545  1.0000
  H   H286      1.0  0.15574  0.82878  0.20143  1.0000
  H   H287      1.0  0.17726  0.80932  0.20700  1.0000
  H   H288      1.0  0.15707  0.79140  0.19754  1.0000
  N   N20       1.0  0.14713  0.61478  0.17414  1.0000
  C   C195      1.0  0.16029  0.63727  0.16867  1.0000
  C   C196      1.0  0.14891  0.60728  0.19766  1.0000
  C   C197      1.0  0.15182  0.59001  0.16035  1.0000
  C   C198      1.0  0.12757  0.62472  0.16988  1.0000
  H   H289      1.0  0.15913  0.64397  0.15118  1.0000
  H   H290      1.0  0.17520  0.63038  0.17123  1.0000
  H   H291      1.0  0.15752  0.65597  0.17926  1.0000
  H   H292      1.0  0.13901  0.59066  0.20256  1.0000
  H   H293      1.0  0.16347  0.59937  0.20132  1.0000
  H   H294      1.0  0.14598  0.62574  0.20850  1.0000
  H   H295      1.0  0.14210  0.57266  0.16390  1.0000
  H   H296      1.0  0.16645  0.58188  0.16331  1.0000
  H   H297      1.0  0.15096  0.59510  0.14248  1.0000
  H   H298      1.0  0.11712  0.60865  0.17433  1.0000
  H   H299      1.0  0.12564  0.62993  0.15215  1.0000
  H   H300      1.0  0.12381  0.64399  0.17948  1.0000
  N   N21       1.0  0.08526  0.77822  0.13752  1.0000
  H   H301      1.0  0.02053  0.80451  0.12347  1.0000
  C   C199      1.0  0.07626  0.76679  0.15764  1.0000
  C   C200      1.0  0.07049  0.78787  0.12213  1.0000
  H   H302      1.0  0.24680  0.88417  0.09965  1.0000
  H   H303      1.0  0.22577  0.60488  0.45945  1.0000
  C   C201      1.0  0.24828  0.50835  0.09708  1.0000
  N   N22       1.0  0.24406  0.49747  0.07497  1.0000
  Fe  Fe48      1.0  0.03063  0.94994  0.17797  1.0000
  C   C202      1.0  0.25023  0.51757  0.05798  1.0000
  H   H304      1.0  0.04052  0.88431  0.29099  1.0000
  H   H305      1.0  0.24646  0.61574  0.44462  1.0000
  H   H306      1.0  0.10810  0.79565  0.15528  1.0000
  H   H307      1.0  0.21533  0.51365  0.07622  1.0000
  C   C203      1.0  0.24828  0.66644  0.46395  1.0000
  H   H308      1.0  0.23997  0.82445  0.04822  1.0000
  H   H309      1.0  0.03099  0.91899  0.49076  1.0000
  H   H310      1.0  0.06145  0.55041  0.19140  1.0000
  C   C204      1.0  0.26455  0.76327  0.29878  1.0000
  C   C205      1.0  0.02297  0.79838  0.14037  1.0000
  H   H311      1.0  0.06144  0.80501  0.12946  1.0000
  C   C206      1.0  0.02937  0.56504  0.15155  1.0000
  C   C207      1.0  0.25309  0.71027  0.40133  1.0000
  H   H312      1.0  0.04289  0.93106  0.27399  1.0000
  H   H313      1.0  0.04797  0.86721  0.26601  1.0000
  C   C208      1.0  0.05321  0.87702  0.28124  1.0000
  H   H314      1.0  0.08913  0.73747  0.12272  1.0000
  H   H315      1.0  0.02064  0.53644  0.25163  1.0000
  H   H316      1.0  0.08230  0.93017  0.29280  1.0000
  H   H317      1.0  0.09143  0.90722  0.25732  1.0000
  S   S90       1.0  0.26433  0.62695  0.40174  1.0000
  N   N23       1.0  0.06573  0.90039  0.27587  1.0000
  H   H318      1.0  0.25370  0.84930  0.10776  1.0000
  H   H319      1.0  0.24012  0.67301  0.38970  1.0000
  H   H320      1.0  0.22892  0.65395  0.42751  1.0000
  S   S91       1.0  0.02003  0.59270  0.13510  1.0000
  H   H321      1.0  0.06719  0.74885  0.15380  1.0000
  C   C209      1.0  0.04285  0.52008  0.17803  1.0000
  H   H322      1.0  0.09020  0.87335  0.27017  1.0000
  H   H323      1.0  0.20760  0.64462  0.44164  1.0000
  H   H324      1.0  0.24915  0.82043  0.29246  1.0000
  H   H325      1.0  0.25785  0.66358  0.44939  1.0000
  C   C210      1.0  0.24873  0.74258  0.26752  1.0000
  C   C211      1.0  0.25240  0.87597  0.28630  1.0000
  H   H326      1.0  0.04877  0.91353  0.24881  1.0000
  H   H327      1.0  0.06119  0.92019  0.30731  1.0000
  C   C212      1.0  0.25367  0.90082  0.03632  1.0000
  C   C213      1.0  0.26179  0.87885  0.02355  1.0000
  C   C214      1.0  0.08173  0.89006  0.26183  1.0000
  H   H328      1.0  0.07676  0.88135  0.24602  1.0000
  C   C215      1.0  0.09694  0.80211  0.14348  1.0000
  H   H329      1.0  0.08821  0.81921  0.15140  1.0000
  C   C216      1.0  0.23791  0.61910  0.46000  1.0000
  H   H330      1.0  0.24841  0.76441  0.32921  1.0000
  C   C217      1.0  0.05493  0.92226  0.26388  1.0000
  H   H331      1.0  0.24887  0.73651  0.25035  1.0000
  C   C218      1.0  0.25559  0.87186  0.11133  1.0000
  H   H332      1.0  0.21607  0.67967  0.44379  1.0000
  H   H333      1.0  0.08131  0.89640  0.30579  1.0000
  H   H334      1.0  0.07673  0.79596  0.10650  1.0000
  C   C219      1.0  0.02905  0.78229  0.18394  1.0000
  C   C220      1.0  0.24387  0.84578  0.04487  1.0000
  H   H335      1.0  0.02078  0.75428  0.13371  1.0000
  H   H336      1.0  0.24149  0.72403  0.39646  1.0000
  C   C221      1.0  0.02321  0.76992  0.14612  1.0000
  H   H337      1.0  0.24281  0.53828  0.06013  1.0000
  C   C222      1.0  0.26272  0.62714  0.51748  1.0000
  C   C223      1.0  0.21979  0.65198  0.48263  1.0000
  C   C224      1.0  0.25231  0.68139  0.39759  1.0000
  H   H338      1.0  0.21511  0.67418  0.48522  1.0000
  C   C225      1.0  0.26060  0.87520  0.32477  1.0000
  H   H339      1.0  0.24973  0.87626  0.12812  1.0000
  H   H340      1.0  0.10894  0.74896  0.13781  1.0000
  H   H341      1.0  0.10632  0.51411  0.15213  1.0000
  H   H342      1.0  0.10396  0.76376  0.11127  1.0000
  H   H343      1.0  0.22766  0.64516  0.49750  1.0000
  H   H344      1.0  0.20696  0.63913  0.48196  1.0000
  H   H345      1.0  0.08207  0.51404  0.16134  1.0000
  C   C226      1.0  0.22051  0.65716  0.44302  1.0000
  H   H346      1.0  0.24361  0.49378  0.11030  1.0000
  H   H347      1.0  0.25504  0.82021  0.32099  1.0000
  H   H348      1.0  0.23755  0.88267  0.29029  1.0000
  H   H349      1.0  0.02762  0.90573  0.46346  1.0000
  H   H350      1.0  0.03136  0.82637  0.19053  1.0000
  C   C227      1.0  0.02901  0.81075  0.17815  1.0000
  S   S92       1.0  0.02628  0.72641  0.17560  1.0000
  H   H351      1.0  0.02265  0.49531  0.16131  1.0000
  C   C228      1.0  0.02616  0.76185  0.16794  1.0000
  H   H352      1.0  0.02659  0.96290  0.44023  1.0000
  H   H353      1.0  0.01850  0.96628  0.50097  1.0000
  C   C229      1.0  0.02597  0.81884  0.15633  1.0000
  H   H354      1.0  0.25438  0.68231  0.31852  1.0000
  H   H355      1.0  0.02054  0.92662  0.13886  1.0000
  H   H356      1.0  0.26365  0.51145  0.09905  1.0000
  S   S93       1.0  0.02626  0.85421  0.14836  1.0000
  H   H357      1.0  0.02629  0.94758  0.11552  1.0000
  C   C230      1.0  0.01996  0.92746  0.12065  1.0000
  C   C231      1.0  0.26682  0.66327  0.40479  1.0000
  C   C232      1.0  0.01774  0.97122  0.48305  1.0000
  H   H358      1.0  0.01811  0.85227  0.24749  1.0000
  H   H359      1.0  0.26568  0.52095  0.05873  1.0000
  H   H360      1.0  0.26643  0.86259  0.33863  1.0000
  H   H361      1.0  0.25755  0.49597  0.88227  1.0000
  Fe  Fe49      1.0  0.06199  0.92745  0.62327  1.0000
  S   S94       1.0  0.04848  0.92338  0.65666  1.0000
  S   S95       1.0  0.09365  0.92135  0.61948  1.0000
  C   C233      1.0  0.16929  0.54989  0.61876  1.0000
  C   C234      1.0  0.08939  0.53875  0.70546  1.0000
  H   H362      1.0  0.01805  0.56082  0.78042  1.0000
  H   H363      1.0  0.20154  0.52444  0.63306  1.0000
  S   S96       1.0  0.04349  0.89590  0.60768  1.0000
  H   H364      1.0  0.05249  0.82942  0.63663  1.0000
  Fe  Fe50      1.0  0.07158  0.64167  0.70013  1.0000
  S   S97       1.0  0.06277  0.65904  0.66775  1.0000
  S   S98       1.0  0.10090  0.62210  0.70314  1.0000
  H   H365      1.0  0.20958  0.88611  0.76726  1.0000
  Fe  Fe51      1.0  0.03544  0.63830  0.67484  1.0000
  C   C235      1.0  0.05599  0.78856  0.65166  1.0000
  Fe  Fe52      1.0  0.05075  0.69618  0.68644  1.0000
  S   S99       1.0  0.04505  0.61802  0.70621  1.0000
  S   S100      1.0  0.06140  0.67983  0.71895  1.0000
  Fe  Fe53      1.0  0.02883  0.89418  0.64059  1.0000
  C   C236      1.0  0.21685  0.88982  0.99523  1.0000
  H   H366      1.0  0.12279  0.68490  0.67823  1.0000
  Fe  Fe54      1.0  0.21024  0.94227  0.72941  1.0000
  S   S101      1.0  0.22876  0.93165  0.69989  1.0000
  S   S102      1.0  0.22135  0.94563  0.76442  1.0000
  Fe  Fe55      1.0  0.17401  0.93310  0.70337  1.0000
  S   S103      1.0  0.18999  0.92169  0.67240  1.0000
  S   S104      1.0  0.14208  0.93394  0.70563  1.0000
  Fe  Fe56      1.0  0.20917  0.89626  0.69402  1.0000
  S   S105      1.0  0.22295  0.85381  0.68598  1.0000
  Fe  Fe57      1.0  0.20789  0.95794  0.68092  1.0000
  H   H367      1.0  0.22431  0.50215  0.89430  1.0000
  S   S106      1.0  0.19190  0.90495  0.72466  1.0000
  H   H368      1.0  0.23544  0.83234  0.73337  1.0000
  C   C237      1.0  0.02060  0.56584  0.67208  1.0000
  C   C238      1.0  0.23030  0.90863  0.63654  1.0000
  C   C239      1.0  0.02990  0.82141  0.65978  1.0000
  Fe  Fe58      1.0  0.17966  0.65367  0.61963  1.0000
  S   S107      1.0  0.18718  0.67508  0.65075  1.0000
  S   S108      1.0  0.15278  0.62968  0.61727  1.0000
  Fe  Fe59      1.0  0.21517  0.67231  0.59484  1.0000
  S   S109      1.0  0.22537  0.69570  0.62450  1.0000
  S   S110      1.0  0.23362  0.67370  0.56358  1.0000
  Fe  Fe60      1.0  0.21630  0.65771  0.64331  1.0000
  S   S111      1.0  0.23245  0.63666  0.67050  1.0000
  Fe  Fe61      1.0  0.19524  0.71127  0.62928  1.0000
  S   S112      1.0  0.18209  0.75401  0.63817  1.0000
  S   S113      1.0  0.20826  0.63332  0.61362  1.0000
  S   S114      1.0  0.18562  0.69084  0.59815  1.0000
  C   C240      1.0  0.24146  0.64514  0.54680  1.0000
  H   H369      1.0  0.26052  0.83631  0.76146  1.0000
  H   H370      1.0  0.21867  0.82484  0.75509  1.0000
  H   H371      1.0  0.20768  0.91931  0.95875  1.0000
  C   C241      1.0  0.23395  0.61852  0.54901  1.0000
  H   H372      1.0  0.03327  0.62302  0.88164  1.0000
  H   H373      1.0  0.22281  0.61500  0.56104  1.0000
  H   H374      1.0  0.10308  0.70943  0.68022  1.0000
  C   C242      1.0  0.18877  0.52327  0.64399  1.0000
  C   C243      1.0  0.23445  0.54162  0.66417  1.0000
  C   C244      1.0  0.22907  0.55396  0.68427  1.0000
  C   C245      1.0  0.22854  0.58327  0.68628  1.0000
  C   C246      1.0  0.23260  0.60014  0.66797  1.0000
  H   H375      1.0  0.07681  0.53827  0.71674  1.0000
  H   H376      1.0  0.19385  0.52097  0.66117  1.0000
  H   H377      1.0  0.22556  0.54100  0.69828  1.0000
  H   H378      1.0  0.24858  0.62825  0.59484  1.0000
  H   H379      1.0  0.19338  0.87292  0.96377  1.0000
  H   H380      1.0  0.11393  0.74628  0.62787  1.0000
  C   C247      1.0  0.21118  0.82596  0.67333  1.0000
  C   C248      1.0  0.22151  0.80135  0.66774  1.0000
  C   C249      1.0  0.21281  0.77904  0.65712  1.0000
  C   C250      1.0  0.19367  0.78122  0.65188  1.0000
  C   C251      1.0  0.18335  0.80585  0.65749  1.0000
  C   C252      1.0  0.19200  0.82806  0.66826  1.0000
  H   H381      1.0  0.23634  0.79948  0.67161  1.0000
  H   H382      1.0  0.22091  0.76021  0.65291  1.0000
  C   C253      1.0  0.10091  0.53730  0.66778  1.0000
  S   S115      1.0  0.04403  0.96464  0.61260  1.0000
  H   H383      1.0  0.12435  0.68423  0.62723  1.0000
  H   H384      1.0  0.06909  0.78367  0.64286  1.0000
  H   H385      1.0  0.16453  0.54500  0.67444  1.0000
  H   H386      1.0  0.03667  0.56775  0.61912  1.0000
  C   C254      1.0  0.01829  0.62851  0.87797  1.0000
  C   C255      1.0  0.25832  0.52382  0.80845  1.0000
  H   H387      1.0  0.18383  0.84678  0.67259  1.0000
  H   H388      1.0  0.14423  0.68588  0.64498  1.0000
  H   H389      1.0  0.12634  0.74766  0.67659  1.0000
  C   C256      1.0  0.04837  0.76863  0.66616  1.0000
  H   H390      1.0  0.06656  0.55954  0.65925  1.0000
  H   H391      1.0  0.14157  0.74924  0.65255  1.0000
  H   H392      1.0  0.25002  0.86552  0.61802  1.0000
  H   H393      1.0  0.24124  0.84924  0.98064  1.0000
  C   C257      1.0  0.20341  0.88242  0.62557  1.0000
  H   H394      1.0  0.23402  0.85275  0.63869  1.0000
  H   H395      1.0  0.19192  0.57337  0.66369  1.0000
  Fe  Fe62      1.0  0.02931  0.95855  0.64539  1.0000
  C   C258      1.0  0.11528  0.62331  0.67922  1.0000
  C   C259      1.0  0.10759  0.62105  0.65828  1.0000
  C   C260      1.0  0.11930  0.62239  0.63941  1.0000
  C   C261      1.0  0.13868  0.62669  0.64133  1.0000
  C   C262      1.0  0.14642  0.62863  0.66229  1.0000
  C   C263      1.0  0.13479  0.62649  0.68117  1.0000
  H   H396      1.0  0.09262  0.61808  0.65655  1.0000
  H   H397      1.0  0.11323  0.62069  0.62325  1.0000
  H   H398      1.0  0.16137  0.63166  0.66404  1.0000
  H   H399      1.0  0.14084  0.62804  0.69735  1.0000
  H   H400      1.0  0.14569  0.72281  0.67292  1.0000
  H   H401      1.0  0.09880  0.74610  0.65202  1.0000
  C   C264      1.0  0.10738  0.92694  0.64296  1.0000
  C   C265      1.0  0.12627  0.91727  0.64303  1.0000
  C   C266      1.0  0.13719  0.91993  0.66197  1.0000
  C   C267      1.0  0.12929  0.93229  0.68101  1.0000
  C   C268      1.0  0.11043  0.94210  0.68089  1.0000
  C   C269      1.0  0.09956  0.93964  0.66189  1.0000
  H   H402      1.0  0.13239  0.90735  0.62846  1.0000
  H   H403      1.0  0.15154  0.91179  0.66197  1.0000
  C   C270      1.0  0.25588  0.64930  0.53099  1.0000
  H   H404      1.0  0.08518  0.94780  0.66187  1.0000
  H   H405      1.0  0.10326  0.68223  0.66005  1.0000
  H   H406      1.0  0.21658  0.92004  0.59659  1.0000
  H   H407      1.0  0.19427  0.90173  0.62450  1.0000
  H   H408      1.0  0.21978  0.88535  0.58548  1.0000
  Fe  Fe63      1.0  0.02390  0.93266  0.60015  1.0000
  H   H409      1.0  0.22473  0.59294  0.70191  1.0000
  C   C271      1.0  0.04669  0.81465  0.64824  1.0000
  H   H410      1.0  0.14076  0.71212  0.62431  1.0000
  C   C272      1.0  0.07422  0.50992  0.67878  1.0000
  N   N24       1.0  0.22181  0.88275  0.97209  1.0000
  H   H411      1.0  0.16121  0.53109  0.61442  1.0000
  C   C273      1.0  0.18670  0.57363  0.64651  1.0000
  H   H412      1.0  0.22762  0.88966  0.78706  1.0000
  H   H413      1.0  0.21412  0.85831  0.78656  1.0000
  C   C274      1.0  0.24077  0.86913  0.97106  1.0000
  H   H414      1.0  0.25156  0.88288  0.97795  1.0000
  H   H415      1.0  0.10424  0.95183  0.69551  1.0000
  H   H416      1.0  0.05790  0.56015  0.68720  1.0000
  H   H417      1.0  0.24244  0.54897  0.63030  1.0000
  C   C275      1.0  0.02586  0.57703  0.65164  1.0000
  C   C276      1.0  0.22096  0.87431  0.77603  1.0000
  H   H418      1.0  0.02527  0.75998  0.68839  1.0000
  H   H419      1.0  0.06982  0.50758  0.66138  1.0000
  H   H420      1.0  0.22677  0.90505  0.00209  1.0000
  H   H421      1.0  0.25092  0.89903  0.75756  1.0000
  C   C277      1.0  0.03215  0.55909  0.63473  1.0000
  S   S116      1.0  0.23679  0.50527  0.66108  1.0000
  C   C278      1.0  0.23565  0.97152  0.77616  1.0000
  H   H422      1.0  0.08349  0.49148  0.68279  1.0000
  H   H423      1.0  0.18150  0.50376  0.63973  1.0000
  H   H424      1.0  0.07765  0.58072  0.67941  1.0000
  H   H425      1.0  0.01797  0.98828  0.56764  1.0000
  N   N25       1.0  0.23493  0.86151  0.76039  1.0000
  C   C279      1.0  0.24370  0.88370  0.74705  1.0000
  H   H426      1.0  0.24017  0.60054  0.63353  1.0000
  H   H427      1.0  0.24516  0.86404  0.95380  1.0000
  H   H428      1.0  0.20237  0.89937  0.99681  1.0000
  H   H429      1.0  0.03733  0.51647  0.62470  1.0000
  H   H430      1.0  0.23481  0.57589  0.53720  1.0000
  C   C280      1.0  0.03129  0.77507  0.67716  1.0000
  S   S117      1.0  0.02447  0.61321  0.64665  1.0000
  H   H431      1.0  0.23515  0.95196  0.80820  1.0000
  H   H432      1.0  0.20760  0.84366  0.97319  1.0000
  H   H433      1.0  0.17776  0.59292  0.64446  1.0000
  C   C281      1.0  0.15986  0.54628  0.65704  1.0000
  H   H434      1.0  0.22828  0.50466  0.76792  1.0000
  C   C282      1.0  0.02215  0.80136  0.67403  1.0000
  H   H435      1.0  0.24526  0.91388  0.63309  1.0000
  Fe  Fe64      1.0  0.03369  0.65752  0.72231  1.0000
  C   C283      1.0  0.02781  0.51873  0.65846  1.0000
  C   C284      1.0  0.25258  0.49241  0.86525  1.0000
  N   N26       1.0  0.22340  0.88827  0.62048  1.0000
  C   C285      1.0  0.20790  0.86337  0.96338  1.0000
  H   H436      1.0  0.23543  0.54507  0.79180  1.0000
  C   C286      1.0  0.23720  0.58769  0.64772  1.0000
  H   H437      1.0  0.23288  0.89579  0.73773  1.0000
  H   H438      1.0  0.22986  0.84594  0.61021  1.0000
  N   N27       1.0  0.17615  0.54825  0.64158  1.0000
  C   C287      1.0  0.23485  0.86198  0.62185  1.0000
  N   N28       1.0  0.08387  0.53653  0.68218  1.0000
  S   S118      1.0  0.19062  0.97135  0.71070  1.0000
  C   C288      1.0  0.24971  0.84615  0.77277  1.0000
  C   C289      1.0  0.03297  0.53005  0.63805  1.0000
  H   H439      1.0  0.06117  0.50867  0.68925  1.0000
  H   H440      1.0  0.19779  0.86671  0.61408  1.0000
  H   H441      1.0  0.15013  0.56491  0.65565  1.0000
  H   H442      1.0  0.02466  0.56636  0.55661  1.0000
  C   C290      1.0  0.22500  0.90007  0.59802  1.0000
  H   H443      1.0  0.11093  0.51957  0.67145  1.0000
  H   H444      1.0  0.09655  0.55880  0.70860  1.0000
  C   C291      1.0  0.07096  0.56026  0.67672  1.0000
  H   H445      1.0  0.22587  0.90397  0.94112  1.0000
  H   H446      1.0  0.09920  0.52126  0.71023  1.0000
  H   H447      1.0  0.22179  0.92860  0.63620  1.0000
  H   H448      1.0  0.21142  0.85748  0.94599  1.0000
  N   N29       1.0  0.08201  0.86183  0.68750  1.0000
  C   C292      1.0  0.07396  0.83560  0.69592  1.0000
  C   C293      1.0  0.07828  0.86448  0.66372  1.0000
  C   C294      1.0  0.10263  0.86143  0.69091  1.0000
  C   C295      1.0  0.07309  0.88592  0.69934  1.0000
  H   H449      1.0  0.07659  0.83273  0.71380  1.0000
  H   H450      1.0  0.08010  0.81695  0.68711  1.0000
  H   H451      1.0  0.05837  0.83544  0.69366  1.0000
  H   H452      1.0  0.06285  0.86548  0.66062  1.0000
  H   H453      1.0  0.08429  0.88385  0.65671  1.0000
  H   H454      1.0  0.08456  0.84655  0.65422  1.0000
  H   H455      1.0  0.10905  0.88090  0.68450  1.0000
  H   H456      1.0  0.10983  0.84352  0.68224  1.0000
  H   H457      1.0  0.10604  0.85991  0.70870  1.0000
  H   H458      1.0  0.07863  0.90610  0.69315  1.0000
  H   H459      1.0  0.07583  0.88487  0.71731  1.0000
  H   H460      1.0  0.05749  0.88679  0.69722  1.0000
  H   H461      1.0  0.15976  0.56859  0.61637  1.0000
  H   H462      1.0  0.09733  0.71884  0.63209  1.0000
  H   H463      1.0  0.25418  0.87494  0.73484  1.0000
  C   C296      1.0  0.23963  0.50292  0.77957  1.0000
  C   C297      1.0  0.22183  0.90856  0.95862  1.0000
  H   H464      1.0  0.22948  0.90030  0.65365  1.0000
  S   S119      1.0  0.21550  0.98539  0.65207  1.0000
  H   H465      1.0  0.16854  0.80773  0.65352  1.0000
  H   H466      1.0  0.10846  0.55721  0.66993  1.0000
  C   C298      1.0  0.24369  0.52575  0.79315  1.0000
  H   H467      1.0  0.20172  0.87394  0.64253  1.0000
  H   H468      1.0  0.25715  0.86039  0.78399  1.0000
  S   S120      1.0  0.06125  0.73675  0.67068  1.0000
  H   H469      1.0  0.23212  0.92372  0.96483  1.0000
  S   S121      1.0  0.02222  0.67672  0.69083  1.0000
  H   H470      1.0  0.15158  0.52733  0.65376  1.0000
  H   H471      1.0  0.25120  0.54539  0.74963  1.0000
  N   N30       1.0  0.12184  0.71585  0.65242  1.0000
  C   C299      1.0  0.10739  0.73254  0.64052  1.0000
  C   C300      1.0  0.13436  0.73476  0.66417  1.0000
  C   C301      1.0  0.13325  0.69879  0.63651  1.0000
  C   C302      1.0  0.11238  0.69732  0.66845  1.0000
  C   C303      1.0  0.24040  0.96918  0.79852  1.0000
  H   H472      1.0  0.21748  0.87094  0.00603  1.0000
  H   H473      1.0  0.23991  0.90469  0.59359  1.0000
  H   H474      1.0  0.24360  0.82924  0.78307  1.0000
  C   C304      1.0  0.22007  0.49833  0.87700  1.0000
  H   H475      1.0  0.21412  0.85295  0.73612  1.0000
  C   C305      1.0  0.22539  0.84200  0.74568  1.0000
  C   C306      1.0  0.23842  0.55852  0.64592  1.0000
  H   H476      1.0  0.03831  0.61192  0.84223  1.0000
  H   H477      1.0  0.18120  0.55155  0.60664  1.0000
  C   C307      1.0  0.02157  0.53672  0.67546  1.0000
  H   H478      1.0  0.04250  0.66079  0.85555  1.0000
  C   C308      1.0  0.24078  0.59638  0.53546  1.0000
  H   H479      1.0  0.09718  0.53566  0.65009  1.0000
  H   H480      1.0  0.02760  0.59958  0.75561  1.0000
  H   H481      1.0  0.02069  0.59502  0.59046  1.0000
  H   H482      1.0  0.19917  0.57559  0.63528  1.0000
  H   H483      1.0  0.25211  0.51306  0.85679  1.0000
  S   S122      1.0  0.01810  0.85454  0.65709  1.0000
  C   C309      1.0  0.26442  0.91321  0.91384  1.0000
  H   H484      1.0  0.26363  0.59869  0.60174  1.0000
  H   H485      1.0  0.25111  0.55957  0.72232  1.0000
  H   H486      1.0  0.25302  0.49758  0.73506  1.0000
  H   H487      1.0  0.02112  0.54155  0.59136  1.0000
  C   C310      1.0  0.02326  0.61795  0.83943  1.0000
  H   H488      1.0  0.21893  0.51910  0.86868  1.0000
  H   H489      1.0  0.02216  0.68166  0.86428  1.0000
  H   H490      1.0  0.22702  0.49529  0.83327  1.0000
  H   H491      1.0  0.26187  0.66977  0.52922  1.0000
  C   C311      1.0  0.26337  0.61972  0.59386  1.0000
  C   C312      1.0  0.26046  0.55212  0.73574  1.0000
  H   H492      1.0  0.25317  0.51023  0.70722  1.0000
  H   H493      1.0  0.02594  0.67365  0.83559  1.0000
  H   H494      1.0  0.25687  0.64943  0.63069  1.0000
  H   H495      1.0  0.02226  0.62558  0.82213  1.0000
  C   C313      1.0  0.02722  0.66501  0.85259  1.0000
  C   C314      1.0  0.26231  0.50496  0.72143  1.0000
  H   H496      1.0  0.26193  0.92173  0.87913  1.0000
  S   S123      1.0  0.26273  0.87681  0.91061  1.0000
  S   S124      1.0  0.26316  0.55349  0.82459  1.0000
  C   C315      1.0  0.26355  0.93070  0.89531  1.0000
  H   H497      1.0  0.25529  0.98695  0.82577  1.0000
  S   S125      1.0  0.26542  0.55919  0.88803  1.0000
  H   H498      1.0  0.26087  0.67657  0.59669  1.0000
  C   C316      1.0  0.26497  0.95981  0.89759  1.0000
  H   H499      1.0  0.26431  0.97316  0.88320  1.0000
  S   S126      1.0  0.26650  0.82279  0.01195  1.0000
  C   C317      1.0  0.26624  0.92501  0.93472  1.0000
  H   H500      1.0  0.26672  0.91180  0.94911  1.0000
  C   C318      1.0  0.26669  0.97158  0.91849  1.0000
  H   H501      1.0  0.26699  0.61666  0.57608  1.0000
  H   H502      1.0  0.20575  0.48936  0.87754  1.0000
  C   C319      1.0  0.26708  0.95414  0.93707  1.0000
  H   H503      1.0  0.01744  0.52815  0.69129  1.0000
  C   C320      1.0  0.48963  0.16728  0.29740  1.0000
  C   C321      1.0  0.50056  0.28097  0.51644  1.0000
  Fe  Fe65      1.0  0.46192  0.32332  0.48156  1.0000
  S   S127      1.0  0.48184  0.33654  0.45452  1.0000
  H   H504      1.0  0.48532  0.25108  0.24574  1.0000
  Fe  Fe66      1.0  0.42714  0.33204  0.45219  1.0000
  S   S128      1.0  0.44440  0.34668  0.42319  1.0000
  S   S129      1.0  0.39545  0.32754  0.45423  1.0000
  Fe  Fe67      1.0  0.46404  0.31080  0.43245  1.0000
  S   S130      1.0  0.47524  0.28157  0.40587  1.0000
  Fe  Fe68      1.0  0.46046  0.37134  0.44779  1.0000
  S   S131      1.0  0.47066  0.41613  0.44717  1.0000
  S   S132      1.0  0.44576  0.29466  0.46002  1.0000
  S   S133      1.0  0.44152  0.35951  0.47614  1.0000
  Fe  Fe69      1.0  0.44128  0.08747  0.38739  1.0000
  S   S134      1.0  0.45329  0.08514  0.42120  1.0000
  S   S135      1.0  0.41012  0.08156  0.38233  1.0000
  Fe  Fe70      1.0  0.47970  0.09391  0.36471  1.0000
  S   S136      1.0  0.49446  0.09116  0.39718  1.0000
  S   S137      1.0  0.49960  0.09732  0.33471  1.0000
  Fe  Fe71      1.0  0.47524  0.05607  0.40592  1.0000
  N   N31       1.0  0.51719  0.08395  0.09346  1.0000
  Fe  Fe72      1.0  0.47133  0.12025  0.40969  1.0000
  S   S138      1.0  0.47972  0.15397  0.43343  1.0000
  S   S139      1.0  0.46222  0.05615  0.37251  1.0000
  S   S140      1.0  0.45750  0.12526  0.37677  1.0000
  H   H505      1.0  0.36531  0.12615  0.40008  1.0000
  C   C322      1.0  0.29713  0.42193  0.39265  1.0000
  S   S141      1.0  0.28202  0.25060  0.42183  1.0000
  Fe  Fe73      1.0  0.29602  0.02813  0.45157  1.0000
  S   S142      1.0  0.30912  0.04192  0.48322  1.0000
  H   H506      1.0  0.48970  0.09180  0.07984  1.0000
  Fe  Fe74      1.0  0.28938  0.08964  0.43756  1.0000
  S   S143      1.0  0.30171  0.10683  0.46825  1.0000
  H   H507      1.0  0.45603  0.41505  0.49394  1.0000
  Fe  Fe75      1.0  0.32423  0.07335  0.46234  1.0000
  S   S144      1.0  0.35486  0.08480  0.46580  1.0000
  Fe  Fe76      1.0  0.28528  0.07394  0.48602  1.0000
  S   S145      1.0  0.31279  0.05780  0.43063  1.0000
  Fe  Fe77      1.0  0.31709  0.31254  0.37092  1.0000
  S   S146      1.0  0.30216  0.31930  0.40334  1.0000
  S   S147      1.0  0.34825  0.32038  0.36701  1.0000
  C   C323      1.0  0.50521  0.16701  0.28268  1.0000
  H   H508      1.0  0.44435  0.02254  0.42027  1.0000
  Fe  Fe78      1.0  0.28603  0.28142  0.39384  1.0000
  H   H509      1.0  0.44138  0.23827  0.51576  1.0000
  S   S148      1.0  0.29682  0.34035  0.35247  1.0000
  S   S149      1.0  0.30237  0.27303  0.36222  1.0000
  C   C324      1.0  0.49393  0.06074  0.16087  1.0000
  H   H510      1.0  0.34154  0.18858  0.42655  1.0000
  H   H511      1.0  0.50943  0.38978  0.06251  1.0000
  H   H512      1.0  0.47626  0.12888  0.22160  1.0000
  C   C325      1.0  0.49159  0.12476  0.22421  1.0000
  C   C326      1.0  0.28394  0.19656  0.43620  1.0000
  C   C327      1.0  0.27878  0.41765  0.40061  1.0000
  H   H513      1.0  0.50614  0.24982  0.22866  1.0000
  H   H514      1.0  0.46202  0.18663  0.47538  1.0000
  C   C328      1.0  0.49082  0.30275  0.26201  1.0000
  H   H515      1.0  0.30781  0.38799  0.46062  1.0000
  H   H516      1.0  0.50371  0.33401  0.17532  1.0000
  H   H517      1.0  0.47997  0.10055  0.15482  1.0000
  C   C329      1.0  0.37018  0.08333  0.44257  1.0000
  C   C330      1.0  0.36521  0.06983  0.42319  1.0000
  C   C331      1.0  0.37754  0.06949  0.40480  1.0000
  C   C332      1.0  0.39505  0.08233  0.40572  1.0000
  C   C333      1.0  0.40015  0.09559  0.42515  1.0000
  C   C334      1.0  0.38775  0.09606  0.44351  1.0000
  H   H518      1.0  0.35196  0.05938  0.42238  1.0000
  H   H519      1.0  0.37356  0.05908  0.38984  1.0000
  H   H520      1.0  0.41348  0.10594  0.42591  1.0000
  H   H521      1.0  0.39169  0.10657  0.45843  1.0000
  C   C335      1.0  0.50133  0.12457  0.31498  1.0000
  H   H522      1.0  0.50483  0.06859  0.06397  1.0000
  C   C336      1.0  0.30625  0.44697  0.39751  1.0000
  C   C337      1.0  0.51706  0.12455  0.30046  1.0000
  N   N32       1.0  0.46538  0.21492  0.50254  1.0000
  C   C338      1.0  0.48762  0.14609  0.31338  1.0000
  H   H523      1.0  0.48984  0.11442  0.26728  1.0000
  H   H524      1.0  0.28528  0.15422  0.44818  1.0000
  H   H525      1.0  0.47535  0.14627  0.32429  1.0000
  C   C339      1.0  0.38351  0.32282  0.42936  1.0000
  C   C340      1.0  0.39060  0.33327  0.40944  1.0000
  C   C341      1.0  0.37987  0.33172  0.39025  1.0000
  C   C342      1.0  0.36202  0.31977  0.39088  1.0000
  C   C343      1.0  0.35519  0.30854  0.41067  1.0000
  C   C344      1.0  0.36591  0.31010  0.42984  1.0000
  H   H526      1.0  0.40412  0.34317  0.40888  1.0000
  H   H527      1.0  0.38528  0.34027  0.37495  1.0000
  H   H528      1.0  0.34164  0.29872  0.41122  1.0000
  H   H529      1.0  0.36051  0.30157  0.44514  1.0000
  C   C345      1.0  0.47563  0.24630  0.41395  1.0000
  C   C346      1.0  0.46642  0.22641  0.40143  1.0000
  C   C347      1.0  0.46717  0.19802  0.40751  1.0000
  C   C348      1.0  0.47766  0.18937  0.42570  1.0000
  C   C349      1.0  0.48715  0.20922  0.43794  1.0000
  C   C350      1.0  0.48598  0.23765  0.43223  1.0000
  H   H530      1.0  0.45842  0.23308  0.38724  1.0000
  H   H531      1.0  0.45962  0.18290  0.39813  1.0000
  H   H532      1.0  0.46980  0.09931  0.25503  1.0000
  H   H533      1.0  0.49346  0.25287  0.44162  1.0000
  C   C351      1.0  0.46178  0.44218  0.42894  1.0000
  C   C352      1.0  0.44849  0.43616  0.41301  1.0000
  C   C353      1.0  0.44192  0.45733  0.39865  1.0000
  H   H534      1.0  0.48319  0.31533  0.24934  1.0000
  S   S150      1.0  0.50706  0.14221  0.16110  1.0000
  C   C354      1.0  0.46833  0.46961  0.43041  1.0000
  H   H535      1.0  0.44336  0.41515  0.41166  1.0000
  H   H536      1.0  0.43175  0.45235  0.38628  1.0000
  H   H537      1.0  0.50478  0.25430  0.27873  1.0000
  H   H538      1.0  0.47861  0.47448  0.44267  1.0000
  H   H539      1.0  0.47888  0.18375  0.29623  1.0000
  H   H540      1.0  0.48154  0.04885  0.15748  1.0000
  H   H541      1.0  0.34014  0.19518  0.39745  1.0000
  H   H542      1.0  0.26968  0.47211  0.07270  1.0000
  H   H543      1.0  0.27787  0.21567  0.38279  1.0000
  H   H544      1.0  0.35354  0.37757  0.41399  1.0000
  H   H545      1.0  0.46366  0.23773  0.47207  1.0000
  C   C355      1.0  0.29706  0.46821  0.41008  1.0000
  H   H546      1.0  0.36666  0.16152  0.39050  1.0000
  H   H547      1.0  0.42301  0.03369  0.47556  1.0000
  N   N33       1.0  0.47856  0.40487  0.51612  1.0000
  C   C356      1.0  0.44845  0.48473  0.40013  1.0000
  H   H548      1.0  0.49549  0.07403  0.20487  1.0000
  H   H549      1.0  0.35461  0.41501  0.44279  1.0000
  H   H550      1.0  0.44338  0.03931  0.45812  1.0000
  H   H551      1.0  0.49808  0.36021  0.07470  1.0000
  H   H552      1.0  0.27667  0.16395  0.37879  1.0000
  H   H553      1.0  0.48843  0.07714  0.26575  1.0000
  C   C357      1.0  0.48699  0.03129  0.03084  1.0000
  Fe  Fe79      1.0  0.28085  0.34460  0.38441  1.0000
  S   S151      1.0  0.50691  0.19393  0.26269  1.0000
  H   H554      1.0  0.47267  0.07788  0.21788  1.0000
  S   S152      1.0  0.51656  0.27776  0.18432  1.0000
  C   C358      1.0  0.46945  0.18789  0.49136  1.0000
  H   H555      1.0  0.51131  0.21138  0.38778  1.0000
  C   C359      1.0  0.49414  0.48274  0.32484  1.0000
  H   H556      1.0  0.28584  0.20565  0.45229  1.0000
  C   C360      1.0  0.34219  0.36441  0.45463  1.0000
  C   C361      1.0  0.49304  0.09000  0.15945  1.0000
  H   H557      1.0  0.33274  0.35756  0.41190  1.0000
  H   H558      1.0  0.50082  0.28399  0.49877  1.0000
  N   N34       1.0  0.49517  0.09737  0.23496  1.0000
  H   H559      1.0  0.49148  0.21379  0.52021  1.0000
  H   H560      1.0  0.49595  0.06292  0.11254  1.0000
  C   C362      1.0  0.42774  0.03708  0.45821  1.0000
  H   H561      1.0  0.49228  0.15602  0.38766  1.0000
  C   C363      1.0  0.28366  0.16737  0.43390  1.0000
  H   H562      1.0  0.47845  0.37490  0.49005  1.0000
  H   H563      1.0  0.46790  0.25881  0.49574  1.0000
  H   H564      1.0  0.42197  0.03864  0.41422  1.0000
  H   H565      1.0  0.42140  0.05740  0.45263  1.0000
  H   H566      1.0  0.50818  0.47338  0.32912  1.0000
  C   C364      1.0  0.51085  0.04678  0.16623  1.0000
  H   H567      1.0  0.49568  0.20255  0.45166  1.0000
  H   H568      1.0  0.48482  0.18475  0.48766  1.0000
  H   H569      1.0  0.47524  0.43836  0.49262  1.0000
  C   C365      1.0  0.48860  0.38625  0.50013  1.0000
  H   H570      1.0  0.49760  0.37010  0.50847  1.0000
  C   C366      1.0  0.46664  0.42553  0.50416  1.0000
  C   C367      1.0  0.50884  0.10565  0.16421  1.0000
  H   H571      1.0  0.49882  0.12583  0.20780  1.0000
  H   H572      1.0  0.31558  0.14465  0.38751  1.0000
  S   S153      1.0  0.50633  0.20318  0.20125  1.0000
  S   S154      1.0  0.48561  0.01941  0.42692  1.0000
  C   C368      1.0  0.47117  0.23808  0.48801  1.0000
  H   H573      1.0  0.27128  0.48029  0.42727  1.0000
  H   H574      1.0  0.32050  0.44996  0.39142  1.0000
  C   C369      1.0  0.51093  0.06006  0.10693  1.0000
  H   H575      1.0  0.31965  0.18466  0.41266  1.0000
  C   C370      1.0  0.33905  0.41341  0.44517  1.0000
  H   H576      1.0  0.35785  0.36423  0.45235  1.0000
  H   H577      1.0  0.30678  0.36291  0.43874  1.0000
  C   C371      1.0  0.33794  0.37832  0.41678  1.0000
  C   C372      1.0  0.27955  0.20226  0.39705  1.0000
  N   N35       1.0  0.42230  0.01386  0.44383  1.0000
  H   H578      1.0  0.48661  0.23691  0.48426  1.0000
  H   H579      1.0  0.39449  0.03131  0.43839  1.0000
  H   H580      1.0  0.51218  0.04005  0.09763  1.0000
  H   H581      1.0  0.48821  0.18355  0.36797  1.0000
  H   H582      1.0  0.51268  0.41027  0.09909  1.0000
  H   H583      1.0  0.33680  0.11154  0.42195  1.0000
  H   H584      1.0  0.33181  0.39398  0.40521  1.0000
  C   C373      1.0  0.27885  0.17298  0.39484  1.0000
  H   H585      1.0  0.47773  0.48125  0.36504  1.0000
  C   C374      1.0  0.51550  0.38890  0.10587  1.0000
  C   C375      1.0  0.28093  0.15543  0.41326  1.0000
  H   H586      1.0  0.48007  0.29103  0.27162  1.0000
  H   H587      1.0  0.36833  0.15380  0.41943  1.0000
  H   H588      1.0  0.49739  0.46168  0.02853  1.0000
  H   H589      1.0  0.33897  0.36898  0.47227  1.0000
  C   C376      1.0  0.28192  0.21412  0.41782  1.0000
  H   H590      1.0  0.50207  0.99509  0.07635  1.0000
  C   C377      1.0  0.49566  0.26426  0.23678  1.0000
  H   H591      1.0  0.47265  0.01203  0.05833  1.0000
  H   H592      1.0  0.33547  0.41914  0.46254  1.0000
  H   H593      1.0  0.49682  0.14227  0.23431  1.0000
  C   C378      1.0  0.50462  0.08765  0.07444  1.0000
  C   C379      1.0  0.48624  0.01645  0.05085  1.0000
  C   C380      1.0  0.49950  0.48316  0.03320  1.0000
  C   C381      1.0  0.31211  0.38379  0.44320  1.0000
  H   H594      1.0  0.48357  0.46603  0.32658  1.0000
  H   H595      1.0  0.45882  0.44001  0.51562  1.0000
  C   C382      1.0  0.50290  0.00686  0.06113  1.0000
  N   N36       1.0  0.50510  0.28351  0.25172  1.0000
  C   C383      1.0  0.36106  0.14818  0.40402  1.0000
  C   C384      1.0  0.48800  0.07481  0.22108  1.0000
  C   C385      1.0  0.40153  0.01165  0.44429  1.0000
  Fe  Fe80      1.0  0.28025  0.30148  0.34674  1.0000
  H   H596      1.0  0.27565  0.36241  0.31287  1.0000
  H   H597      1.0  0.46497  0.16991  0.50166  1.0000
  H   H598      1.0  0.49465  0.14882  0.35890  1.0000
  H   H599      1.0  0.49743  0.31759  0.27345  1.0000
  H   H600      1.0  0.30429  0.40588  0.38281  1.0000
  C   C386      1.0  0.48539  0.09699  0.25668  1.0000
  S   S155      1.0  0.27124  0.05864  0.45547  1.0000
  H   H601      1.0  0.48818  0.27572  0.22338  1.0000
  H   H602      1.0  0.31815  0.13651  0.42762  1.0000
  H   H603      1.0  0.33749  0.34284  0.45128  1.0000
  H   H604      1.0  0.34052  0.13957  0.44078  1.0000
  S   S156      1.0  0.28000  0.11876  0.41005  1.0000
  H   H605      1.0  0.33575  0.15564  0.37172  1.0000
  C   C387      1.0  0.51206  0.36866  0.06993  1.0000
  N   N37       1.0  0.33282  0.38499  0.43994  1.0000
  H   H606      1.0  0.44674  0.98893  0.45260  1.0000
  C   C388      1.0  0.33522  0.18129  0.41100  1.0000
  H   H607      1.0  0.33209  0.42946  0.43444  1.0000
  H   H608      1.0  0.30454  0.39954  0.43290  1.0000
  H   H609      1.0  0.33486  0.12042  0.38216  1.0000
  H   H610      1.0  0.42581  0.00181  0.40980  1.0000
  N   N38       1.0  0.34031  0.15160  0.40653  1.0000
  C   C389      1.0  0.33126  0.14272  0.38605  1.0000
  C   C390      1.0  0.33367  0.13411  0.42505  1.0000
  C   C391      1.0  0.42886  0.01940  0.42103  1.0000
  C   C392      1.0  0.51486  0.26711  0.26901  1.0000
  H   H611      1.0  0.50896  0.10539  0.06378  1.0000
  H   H612      1.0  0.39698  0.99439  0.43352  1.0000
  C   C393      1.0  0.44490  0.21797  0.50744  1.0000
  H   H613      1.0  0.51602  0.18322  0.40657  1.0000
  C   C394      1.0  0.49724  0.16475  0.37167  1.0000
  H   H614      1.0  0.26811  0.39133  0.29592  1.0000
  H   H615      1.0  0.51217  0.31209  0.22559  1.0000
  S   S157      1.0  0.51132  0.01006  0.16794  1.0000
  H   H616      1.0  0.43655  0.21744  0.49207  1.0000
  H   H617      1.0  0.50178  0.38077  0.11191  1.0000
  H   H618      1.0  0.49762  0.39818  0.48843  1.0000
  S   S158      1.0  0.46875  0.31646  0.51779  1.0000
  H   H619      1.0  0.49017  0.05388  0.22887  1.0000
  C   C395      1.0  0.27854  0.46419  0.41759  1.0000
  H   H620      1.0  0.51430  0.33302  0.10467  1.0000
  H   H621      1.0  0.50196  0.11407  0.11388  1.0000
  H   H622      1.0  0.43994  0.20090  0.51840  1.0000
  H   H623      1.0  0.50183  0.43242  0.51858  1.0000
  H   H624      1.0  0.39600  0.00769  0.46126  1.0000
  S   S159      1.0  0.51646  0.46064  0.07009  1.0000
  H   H625      1.0  0.27349  0.26810  0.02861  1.0000
  H   H626      1.0  0.27347  0.39266  0.34606  1.0000
  C   C396      1.0  0.26948  0.43905  0.41286  1.0000
  C   C397      1.0  0.51643  0.10964  0.10699  1.0000
  H   H627      1.0  0.46285  0.99034  0.39494  1.0000
  H   H628      1.0  0.51491  0.20277  0.34707  1.0000
  C   C398      1.0  0.51572  0.09285  0.23779  1.0000
  C   C399      1.0  0.50463  0.03689  0.02135  1.0000
  Fe  Fe81      1.0  0.45987  0.05959  0.98396  1.0000
  S   S160      1.0  0.48068  0.07050  0.95712  1.0000
  H   H629      1.0  0.27509  0.27190  0.99938  1.0000
  Fe  Fe82      1.0  0.42586  0.07370  0.95436  1.0000
  S   S161      1.0  0.44415  0.08574  0.92551  1.0000
  S   S162      1.0  0.39388  0.07519  0.95402  1.0000
  Fe  Fe83      1.0  0.46147  0.04729  0.93479  1.0000
  C   C400      1.0  0.42901  0.46961  0.93454  1.0000
  Fe  Fe84      1.0  0.46138  0.10812  0.95038  1.0000
  S   S163      1.0  0.47225  0.15271  0.94854  1.0000
  S   S164      1.0  0.44193  0.03393  0.96193  1.0000
  S   S165      1.0  0.44179  0.09854  0.97889  1.0000
  Fe  Fe85      1.0  0.45785  0.29623  0.87624  1.0000
  S   S166      1.0  0.44397  0.31038  0.84498  1.0000
  S   S167      1.0  0.45571  0.24859  0.87749  1.0000
  Fe  Fe86      1.0  0.46517  0.35769  0.88799  1.0000
  S   S168      1.0  0.45176  0.37509  0.85747  1.0000
  S   S169      1.0  0.47678  0.38617  0.91384  1.0000
  Fe  Fe87      1.0  0.42956  0.34376  0.86539  1.0000
  S   S170      1.0  0.39809  0.35121  0.86340  1.0000
  Fe  Fe88      1.0  0.46775  0.33989  0.84030  1.0000
  S   S171      1.0  0.48507  0.33892  0.80827  1.0000
  S   S172      1.0  0.44191  0.32823  0.89690  1.0000
  S   S173      1.0  0.48264  0.32408  0.87046  1.0000
  S   S174      1.0  0.46551  0.04186  0.01832  1.0000
  H   H630      1.0  0.47196  0.19874  0.53472  1.0000
  H   H631      1.0  0.32506  0.99652  0.93431  1.0000
  H   H632      1.0  0.33644  0.45354  0.92302  1.0000
  H   H633      1.0  0.28744  0.15618  0.80345  1.0000
  Fe  Fe89      1.0  0.31906  0.03881  0.87205  1.0000
  S   S175      1.0  0.30409  0.06010  0.90040  1.0000
  S   S176      1.0  0.35020  0.02651  0.87327  1.0000
  C   C401      1.0  0.27634  0.40051  0.91017  1.0000
  Fe  Fe90      1.0  0.29076  0.08886  0.87553  1.0000
  H   H634      1.0  0.29768  0.10622  0.62748  1.0000
  C   C402      1.0  0.28550  0.20339  0.92839  1.0000
  S   S177      1.0  0.30743  0.06931  0.84739  1.0000
  S   S178      1.0  0.29664  0.00769  0.86565  1.0000
  Fe  Fe91      1.0  0.32248  0.31626  0.95189  1.0000
  S   S179      1.0  0.30629  0.30044  0.92335  1.0000
  S   S180      1.0  0.35415  0.32168  0.95181  1.0000
  Fe  Fe92      1.0  0.28672  0.32355  0.98159  1.0000
  Fe  Fe93      1.0  0.29020  0.27494  0.94823  1.0000
  Fe  Fe94      1.0  0.28574  0.33568  0.93247  1.0000
  H   H635      1.0  0.31798  0.12643  0.93989  1.0000
  S   S181      1.0  0.30814  0.28837  0.97623  1.0000
  S   S182      1.0  0.30290  0.35281  0.95983  1.0000
  H   H636      1.0  0.34976  0.41252  0.88663  1.0000
  H   H637      1.0  0.48726  0.00783  0.98648  1.0000
  C   C403      1.0  0.29236  0.18998  0.89036  1.0000
  H   H638      1.0  0.48083  0.21734  0.84377  1.0000
  H   H639      1.0  0.27798  0.11444  0.58289  1.0000
  H   H640      1.0  0.43152  0.45759  0.89132  1.0000
  H   H641      1.0  0.47499  0.37177  0.53981  1.0000
  H   H642      1.0  0.45877  0.40123  0.54328  1.0000
  H   H643      1.0  0.48393  0.20520  0.81592  1.0000
  C   C404      1.0  0.51436  0.00911  0.75210  1.0000
  H   H644      1.0  0.42938  0.48404  0.94889  1.0000
  H   H645      1.0  0.50744  0.37378  0.72083  1.0000
  H   H646      1.0  0.45212  0.39601  0.69871  1.0000
  H   H647      1.0  0.28551  0.46231  0.88432  1.0000
  C   C405      1.0  0.50658  0.36766  0.77826  1.0000
  C   C406      1.0  0.48893  0.41948  0.78674  1.0000
  H   H648      1.0  0.27891  0.12226  0.64390  1.0000
  C   C407      1.0  0.49890  0.46131  0.83533  1.0000
  C   C408      1.0  0.35365  0.12254  0.90166  1.0000
  H   H649      1.0  0.47467  0.24898  0.92024  1.0000
  H   H650      1.0  0.49407  0.47943  0.84572  1.0000
  H   H651      1.0  0.46741  0.47293  0.87113  1.0000
  H   H652      1.0  0.42371  0.44926  0.94058  1.0000
  H   H653      1.0  0.47088  0.39260  0.74405  1.0000
  H   H654      1.0  0.47948  0.35714  0.74143  1.0000
  H   H655      1.0  0.39308  0.29012  0.94761  1.0000
  H   H656      1.0  0.36845  0.14666  0.93695  1.0000
  H   H657      1.0  0.27769  0.16935  0.94973  1.0000
  H   H658      1.0  0.46440  0.34664  0.69536  1.0000
  H   H659      1.0  0.48652  0.43118  0.94234  1.0000
  N   N39       1.0  0.41062  0.25935  0.93053  1.0000
  H   H660      1.0  0.45581  0.37663  0.52140  1.0000
  C   C409      1.0  0.38582  0.34307  0.88790  1.0000
  C   C410      1.0  0.36790  0.33146  0.88701  1.0000
  C   C411      1.0  0.35804  0.32463  0.90651  1.0000
  C   C412      1.0  0.36595  0.32985  0.92697  1.0000
  C   C413      1.0  0.38374  0.34185  0.92784  1.0000
  C   C414      1.0  0.39364  0.34848  0.90838  1.0000
  H   H661      1.0  0.36174  0.32737  0.87119  1.0000
  H   H662      1.0  0.34439  0.31521  0.90566  1.0000
  H   H663      1.0  0.38985  0.34617  0.94363  1.0000
  H   H664      1.0  0.40719  0.35820  0.90924  1.0000
  C   C415      1.0  0.49208  0.36962  0.79436  1.0000
  H   H665      1.0  0.45614  0.36667  0.73237  1.0000
  C   C416      1.0  0.49814  0.38993  0.71299  1.0000
  H   H666      1.0  0.51352  0.34761  0.77493  1.0000
  N   N40       1.0  0.26975  0.10042  0.61529  1.0000
  H   H667      1.0  0.28070  0.06121  0.62787  1.0000
  H   H668      1.0  0.49855  0.40926  0.72310  1.0000
  C   C417      1.0  0.51656  0.44043  0.86511  1.0000
  H   H669      1.0  0.47629  0.30184  0.56260  1.0000
  C   C418      1.0  0.38253  0.05901  0.93210  1.0000
  C   C419      1.0  0.39211  0.05239  0.91234  1.0000
  C   C420      1.0  0.38213  0.04200  0.89443  1.0000
  C   C421      1.0  0.36259  0.03827  0.89620  1.0000
  C   C422      1.0  0.35321  0.04385  0.91623  1.0000
  C   C423      1.0  0.36314  0.05422  0.93410  1.0000
  H   H670      1.0  0.40707  0.05608  0.91067  1.0000
  H   H671      1.0  0.38945  0.03776  0.87895  1.0000
  H   H672      1.0  0.33833  0.04018  0.91802  1.0000
  H   H673      1.0  0.35575  0.05883  0.94948  1.0000
  C   C424      1.0  0.47658  0.42277  0.90974  1.0000
  C   C425      1.0  0.47115  0.43476  0.88972  1.0000
  C   C426      1.0  0.47166  0.46384  0.88666  1.0000
  C   C427      1.0  0.47747  0.48124  0.90362  1.0000
  C   C428      1.0  0.48260  0.46944  0.92381  1.0000
  C   C429      1.0  0.48225  0.44025  0.92679  1.0000
  H   H674      1.0  0.50126  0.05721  0.76986  1.0000
  C   C430      1.0  0.47884  0.35478  0.69714  1.0000
  C   C431      1.0  0.28160  0.44811  0.89737  1.0000
  H   H675      1.0  0.51359  0.40955  0.82836  1.0000
  C   C432      1.0  0.46721  0.17918  0.92876  1.0000
  C   C433      1.0  0.45776  0.17361  0.90931  1.0000
  C   C434      1.0  0.45460  0.19510  0.89375  1.0000
  C   C435      1.0  0.46057  0.22245  0.89758  1.0000
  C   C436      1.0  0.46985  0.22813  0.91712  1.0000
  C   C437      1.0  0.47320  0.20655  0.93256  1.0000
  H   H676      1.0  0.45315  0.15265  0.90614  1.0000
  H   H677      1.0  0.44740  0.19045  0.87869  1.0000
  H   H678      1.0  0.43342  0.26605  0.95269  1.0000
  H   H679      1.0  0.41592  0.26275  0.89559  1.0000
  H   H680      1.0  0.38180  0.25792  0.94247  1.0000
  C   C438      1.0  0.26942  0.25849  0.01275  1.0000
  H   H681      1.0  0.46100  0.25643  0.83035  1.0000
  H   H682      1.0  0.51231  0.25972  0.84233  1.0000
  S   S183      1.0  0.29158  0.13659  0.87374  1.0000
  N   N41       1.0  0.49000  0.24857  0.82071  1.0000
  H   H683      1.0  0.28061  0.13294  0.92059  1.0000
  H   H684      1.0  0.41144  0.44103  0.90333  1.0000
  N   N42       1.0  0.47867  0.38022  0.71098  1.0000
  H   H685      1.0  0.34455  0.12146  0.88692  1.0000
  Fe  Fe95      1.0  0.28081  0.03086  0.89271  1.0000
  H   H686      1.0  0.48771  0.99677  0.95837  1.0000
  H   H687      1.0  0.46446  0.24573  0.80228  1.0000
  C   C439      1.0  0.49764  0.26638  0.83808  1.0000
  H   H688      1.0  0.50027  0.27030  0.58001  1.0000
  H   H689      1.0  0.27303  0.45656  0.79794  1.0000
  H   H690      1.0  0.48720  0.48271  0.93698  1.0000
  C   C440      1.0  0.48976  0.21927  0.82852  1.0000
  H   H691      1.0  0.49667  0.23739  0.78710  1.0000
  H   H692      1.0  0.27069  0.17403  0.54525  1.0000
  N   N43       1.0  0.34311  0.13468  0.92079  1.0000
  C   C441      1.0  0.49250  0.41960  0.52928  1.0000
  H   H693      1.0  0.48184  0.43947  0.78985  1.0000
  C   C442      1.0  0.32641  0.11778  0.92569  1.0000
  H   H694      1.0  0.51404  0.05430  0.79516  1.0000
  C   C443      1.0  0.46696  0.40251  0.70059  1.0000
  H   H695      1.0  0.29637  0.19592  0.87375  1.0000
  H   H696      1.0  0.48062  0.21099  0.94751  1.0000
  C   C444      1.0  0.35381  0.40867  0.90404  1.0000
  Fe  Fe96      1.0  0.28324  0.04025  0.84350  1.0000
  H   H697      1.0  0.51684  0.24357  0.80380  1.0000
  C   C445      1.0  0.39770  0.48646  0.92540  1.0000
  H   H698      1.0  0.29271  0.12975  0.82374  1.0000
  C   C446      1.0  0.41701  0.46161  0.89819  1.0000
  H   H699      1.0  0.31139  0.38657  0.92262  1.0000
  H   H700      1.0  0.33055  0.09577  0.92973  1.0000
  H   H701      1.0  0.35892  0.10089  0.90516  1.0000
  H   H702      1.0  0.40083  0.21751  0.92669  1.0000
  C   C447      1.0  0.42822  0.27320  0.93636  1.0000
  C   C448      1.0  0.28050  0.41931  0.89308  1.0000
  C   C449      1.0  0.47054  0.25826  0.81568  1.0000
  H   H703      1.0  0.34905  0.17741  0.91265  1.0000
  H   H704      1.0  0.27676  0.23767  0.01124  1.0000
  H   H705      1.0  0.29357  0.23226  0.90293  1.0000
  N   N44       1.0  0.41716  0.48145  0.91682  1.0000
  S   S184      1.0  0.27714  0.32941  0.01742  1.0000
  H   H706      1.0  0.31930  0.39037  0.89467  1.0000
  H   H707      1.0  0.42610  0.29635  0.93709  1.0000
  C   C450      1.0  0.48690  0.29115  0.55241  1.0000
  C   C451      1.0  0.28193  0.17519  0.93318  1.0000
  C   C452      1.0  0.28358  0.15447  0.91668  1.0000
  H   H708      1.0  0.32794  0.17305  0.92913  1.0000
  C   C453      1.0  0.28877  0.16179  0.89513  1.0000
  H   H709      1.0  0.43969  0.26864  0.92398  1.0000
  H   H710      1.0  0.42495  0.22215  0.91833  1.0000
  H   H711      1.0  0.51186  0.45757  0.87656  1.0000
  C   C454      1.0  0.35544  0.13469  0.94018  1.0000
  C   C455      1.0  0.39553  0.26706  0.94676  1.0000
  H   H712      1.0  0.32214  0.44124  0.90111  1.0000
  H   H713      1.0  0.47263  0.40792  0.68391  1.0000
  H   H714      1.0  0.39148  0.25892  0.90338  1.0000
  H   H715      1.0  0.39916  0.25981  0.96363  1.0000
  H   H716      1.0  0.33091  0.36570  0.91263  1.0000
  H   H717      1.0  0.46686  0.42167  0.87644  1.0000
  H   H718      1.0  0.36616  0.13503  0.89719  1.0000
  C   C456      1.0  0.27786  0.45831  0.91863  1.0000
  C   C457      1.0  0.29086  0.21065  0.90689  1.0000
  H   H719      1.0  0.50233  0.27253  0.79445  1.0000
  H   H720      1.0  0.31687  0.11732  0.91134  1.0000
  S   S185      1.0  0.47197  0.01673  0.90853  1.0000
  S   S186      1.0  0.27638  0.36434  0.90476  1.0000
  H   H721      1.0  0.50802  0.02329  0.73949  1.0000
  C   C458      1.0  0.46651  0.38800  0.53086  1.0000
  C   C459      1.0  0.47091  0.37386  0.73315  1.0000
  H   H722      1.0  0.49683  0.02887  0.78856  1.0000
  H   H723      1.0  0.30817  0.99022  0.91340  1.0000
  S   S187      1.0  0.28294  0.22865  0.94977  1.0000
  C   C460      1.0  0.48675  0.29486  0.52942  1.0000
  H   H724      1.0  0.50171  0.40452  0.53848  1.0000
  H   H725      1.0  0.47010  0.28060  0.81038  1.0000
  C   C461      1.0  0.27676  0.10584  0.78895  1.0000
  H   H726      1.0  0.41854  0.00536  0.87722  1.0000
  H   H727      1.0  0.50420  0.21124  0.83253  1.0000
  H   H728      1.0  0.34800  0.14403  0.95483  1.0000
  H   H729      1.0  0.50442  0.39489  0.69658  1.0000
  H   H730      1.0  0.40265  0.29156  0.90747  1.0000
  H   H731      1.0  0.36018  0.11307  0.94478  1.0000
  C   C462      1.0  0.41389  0.22867  0.93067  1.0000
  C   C463      1.0  0.50200  0.25054  0.80062  1.0000
  C   C464      1.0  0.33685  0.16367  0.91556  1.0000
  H   H732      1.0  0.32820  0.16437  0.90044  1.0000
  H   H733      1.0  0.47197  0.39740  0.81078  1.0000
  H   H734      1.0  0.48892  0.26542  0.85348  1.0000
  H   H735      1.0  0.41878  0.22105  0.94701  1.0000
  N   N45       1.0  0.33705  0.40877  0.91889  1.0000
  C   C465      1.0  0.34293  0.40296  0.94173  1.0000
  C   C466      1.0  0.32717  0.43640  0.91800  1.0000
  C   C467      1.0  0.32416  0.38693  0.91182  1.0000
  S   S188      1.0  0.51276  0.45712  0.69280  1.0000
  H   H736      1.0  0.35267  0.41896  0.94773  1.0000
  H   H737      1.0  0.35028  0.38215  0.94308  1.0000
  H   H738      1.0  0.33052  0.40270  0.95328  1.0000
  H   H739      1.0  0.36154  0.38811  0.90444  1.0000
  H   H740      1.0  0.31454  0.43716  0.92923  1.0000
  H   H741      1.0  0.50327  0.99491  0.75837  1.0000
  C   C468      1.0  0.40490  0.26849  0.90828  1.0000
  C   C469      1.0  0.50350  0.41756  0.77073  1.0000
  S   S189      1.0  0.27313  0.03720  0.80804  1.0000
  H   H742      1.0  0.47326  0.23608  0.53210  1.0000
  H   H743      1.0  0.50542  0.04862  0.00612  1.0000
  C   C470      1.0  0.48330  0.39568  0.79861  1.0000
  H   H744      1.0  0.36385  0.42495  0.90874  1.0000
  H   H745      1.0  0.48788  0.33771  0.70426  1.0000
  C   C471      1.0  0.51403  0.26295  0.52635  1.0000
  H   H746      1.0  0.48542  0.43389  0.54153  1.0000
  H   H747      1.0  0.28577  0.13769  0.61811  1.0000
  C   C472      1.0  0.26905  0.13209  0.53234  1.0000
  H   H748      1.0  0.27435  0.15538  0.82915  1.0000
  H   H749      1.0  0.51364  0.34553  0.62799  1.0000
  H   H750      1.0  0.48457  0.35902  0.68027  1.0000
  H   H751      1.0  0.29029  0.08325  0.59205  1.0000
  H   H752      1.0  0.44383  0.46586  0.92872  1.0000
  C   C473      1.0  0.50047  0.27331  0.56234  1.0000
  H   H753      1.0  0.46669  0.42206  0.71057  1.0000
  H   H754      1.0  0.28332  0.41144  0.87661  1.0000
  H   H755      1.0  0.51374  0.29453  0.63538  1.0000
  H   H756      1.0  0.28290  0.11861  0.77542  1.0000
  H   H757      1.0  0.27078  0.44724  0.95215  1.0000
  H   H758      1.0  0.39117  0.46667  0.93078  1.0000
  C   C474      1.0  0.28369  0.11735  0.62670  1.0000
  C   C475      1.0  0.51402  0.25890  0.54931  1.0000
  H   H759      1.0  0.49794  0.28869  0.83279  1.0000
  C   C476      1.0  0.27639  0.09470  0.59246  1.0000
  H   H760      1.0  0.42331  0.99510  0.90508  1.0000
  S   S190      1.0  0.26878  0.00786  0.92189  1.0000
  H   H761      1.0  0.48804  0.44499  0.83683  1.0000
  C   C477      1.0  0.27359  0.43950  0.93563  1.0000
  C   C478      1.0  0.50810  0.04213  0.78145  1.0000
  C   C479      1.0  0.27310  0.41066  0.93150  1.0000
  C   C480      1.0  0.47595  0.21589  0.52329  1.0000
  S   S191      1.0  0.51035  0.44825  0.75668  1.0000
  H   H762      1.0  0.27029  0.09229  0.83090  1.0000
  C   C481      1.0  0.28102  0.14209  0.81592  1.0000
  H   H763      1.0  0.50637  0.42325  0.86708  1.0000
  H   H764      1.0  0.26992  0.39632  0.94479  1.0000
  H   H765      1.0  0.40816  0.46991  0.88454  1.0000
  H   H766      1.0  0.28842  0.09275  0.79609  1.0000
  C   C482      1.0  0.51240  0.39155  0.76665  1.0000
  H   H767      1.0  0.49918  0.46859  0.81788  1.0000
  H   H768      1.0  0.27166  0.48686  0.71641  1.0000
  H   H769      1.0  0.28120  0.13399  0.52142  1.0000
  S   S192      1.0  0.26792  0.30883  0.95478  1.0000
  C   C483      1.0  0.48695  0.98911  0.97569  1.0000
  C   C484      1.0  0.40537  0.69938  0.39466  1.0000
  C   C485      1.0  0.27973  0.66114  0.34759  1.0000
  Fe  Fe97      1.0  0.46864  0.82038  0.48597  1.0000
  S   S193      1.0  0.48434  0.83129  0.45449  1.0000
  H   H770      1.0  0.38735  0.70935  0.43388  1.0000
  Fe  Fe98      1.0  0.43171  0.81173  0.46175  1.0000
  S   S194      1.0  0.44519  0.82124  0.42921  1.0000
  S   S195      1.0  0.40087  0.80022  0.46438  1.0000
  Fe  Fe99      1.0  0.46938  0.79459  0.44072  1.0000
  S   S196      1.0  0.48331  0.76400  0.41677  1.0000
  Fe  Fe100     1.0  0.45841  0.85739  0.44602  1.0000
  S   S197      1.0  0.45368  0.89636  0.42479  1.0000
  S   S198      1.0  0.45514  0.78225  0.47243  1.0000
  S   S199      1.0  0.44359  0.84918  0.47846  1.0000
  Fe  Fe101     1.0  0.42559  0.61176  0.37104  1.0000
  S   S200      1.0  0.43365  0.58915  0.40185  1.0000
  S   S201      1.0  0.39606  0.63028  0.36823  1.0000
  Fe  Fe102     1.0  0.46435  0.59986  0.34858  1.0000
  S   S202      1.0  0.47519  0.57713  0.37865  1.0000
  S   S203      1.0  0.48317  0.59602  0.31764  1.0000
  Fe  Fe103     1.0  0.44709  0.55641  0.37996  1.0000
  C   C486      1.0  0.29234  0.95581  0.42809  1.0000
  Fe  Fe104     1.0  0.46062  0.61229  0.39755  1.0000
  S   S204      1.0  0.47058  0.63418  0.42781  1.0000
  S   S205      1.0  0.43687  0.57740  0.34903  1.0000
  S   S206      1.0  0.45189  0.63669  0.36760  1.0000
  H   H771      1.0  0.28884  0.94994  0.37237  1.0000
  H   H772      1.0  0.28913  0.86856  0.29471  1.0000
  C   C487      1.0  0.50333  0.52869  0.33623  1.0000
  Fe  Fe105     1.0  0.29827  0.53965  0.43243  1.0000
  S   S207      1.0  0.30898  0.55242  0.46556  1.0000
  C   C488      1.0  0.28866  0.91487  0.39476  1.0000
  C   C489      1.0  0.28645  0.86368  0.12632  1.0000
  S   S208      1.0  0.29086  0.61575  0.45692  1.0000
  H   H773      1.0  0.28703  0.83797  0.31150  1.0000
  Fe  Fe106     1.0  0.31784  0.59186  0.44860  1.0000
  S   S209      1.0  0.34681  0.60860  0.45412  1.0000
  N   N46       1.0  0.48907  0.50692  0.33909  1.0000
  S   S210      1.0  0.30894  0.57811  0.41530  1.0000
  Fe  Fe107     1.0  0.32262  0.79840  0.37664  1.0000
  S   S211      1.0  0.30414  0.81748  0.40336  1.0000
  S   S212      1.0  0.35436  0.79378  0.37638  1.0000
  Fe  Fe108     1.0  0.28977  0.79181  0.34471  1.0000
  Fe  Fe109     1.0  0.29060  0.84269  0.37627  1.0000
  Fe  Fe110     1.0  0.28408  0.78395  0.39361  1.0000
  H   H774      1.0  0.28077  0.83655  0.28318  1.0000
  S   S213      1.0  0.31052  0.82563  0.35012  1.0000
  S   S214      1.0  0.30376  0.76298  0.36904  1.0000
  C   C490      1.0  0.39080  0.51587  0.40768  1.0000
  C   C491      1.0  0.49562  0.53296  0.02524  1.0000
  S   S215      1.0  0.48506  0.82138  0.51803  1.0000
  C   C492      1.0  0.47964  0.65197  0.22881  1.0000
  N   N47       1.0  0.28055  0.68785  0.33532  1.0000
  C   C493      1.0  0.47806  0.98449  0.42502  1.0000
  H   H775      1.0  0.49271  0.74776  0.48366  1.0000
  C   C494      1.0  0.50236  0.76283  0.47567  1.0000
  H   H776      1.0  0.27666  0.75939  0.26602  1.0000
  H   H777      1.0  0.29560  0.71184  0.42629  1.0000
  H   H778      1.0  0.38135  0.54518  0.37154  1.0000
  H   H779      1.0  0.49323  0.66309  0.22897  1.0000
  C   C495      1.0  0.28306  0.87227  0.08729  1.0000
  C   C496      1.0  0.35989  0.61808  0.43047  1.0000
  C   C497      1.0  0.35135  0.62154  0.41001  1.0000
  C   C498      1.0  0.36245  0.62648  0.39104  1.0000
  C   C499      1.0  0.38214  0.62754  0.39242  1.0000
  C   C500      1.0  0.39054  0.62544  0.41303  1.0000
  C   C501      1.0  0.37946  0.62081  0.43200  1.0000
  H   H780      1.0  0.33621  0.62042  0.40878  1.0000
  H   H781      1.0  0.35581  0.62865  0.37520  1.0000
  H   H782      1.0  0.40558  0.62747  0.41441  1.0000
  H   H783      1.0  0.38612  0.61859  0.44783  1.0000
  C   C502      1.0  0.49169  0.62474  0.30211  1.0000
  H   H784      1.0  0.28550  0.84067  0.12390  1.0000
  C   C503      1.0  0.39781  0.72483  0.42811  1.0000
  H   H785      1.0  0.28088  0.86838  0.14327  1.0000
  C   C504      1.0  0.49206  0.67437  0.29308  1.0000
  C   C505      1.0  0.48532  0.65224  0.30616  1.0000
  S   S216      1.0  0.28501  0.77842  0.30934  1.0000
  H   H786      1.0  0.30903  0.69576  0.34473  1.0000
  H   H787      1.0  0.47512  0.65647  0.31931  1.0000
  C   C506      1.0  0.38787  0.79846  0.43991  1.0000
  C   C507      1.0  0.39691  0.79888  0.41927  1.0000
  C   C508      1.0  0.38645  0.79716  0.39999  1.0000
  C   C509      1.0  0.36679  0.79502  0.40112  1.0000
  C   C510      1.0  0.35762  0.79424  0.42171  1.0000
  C   C511      1.0  0.36817  0.79591  0.44107  1.0000
  H   H788      1.0  0.41200  0.80001  0.41804  1.0000
  H   H789      1.0  0.39363  0.79763  0.38410  1.0000
  H   H790      1.0  0.34246  0.79212  0.42272  1.0000
  H   H791      1.0  0.36107  0.79516  0.45699  1.0000
  C   C512      1.0  0.47881  0.72820  0.41990  1.0000
  C   C513      1.0  0.47290  0.71718  0.44016  1.0000
  C   C514      1.0  0.47070  0.68823  0.44256  1.0000
  C   C515      1.0  0.47373  0.67030  0.42452  1.0000
  C   C516      1.0  0.47924  0.68139  0.40416  1.0000
  C   C517      1.0  0.48204  0.71021  0.40195  1.0000
  H   H792      1.0  0.47043  0.73077  0.45412  1.0000
  H   H793      1.0  0.46644  0.67970  0.45835  1.0000
  H   H794      1.0  0.48194  0.66765  0.39026  1.0000
  H   H795      1.0  0.48675  0.71858  0.38628  1.0000
  C   C518      1.0  0.46399  0.92966  0.42503  1.0000
  C   C519      1.0  0.45936  0.94876  0.40820  1.0000
  C   C520      1.0  0.46644  0.97596  0.40808  1.0000
  H   H796      1.0  0.51013  0.75606  0.27946  1.0000
  C   C521      1.0  0.48299  0.96524  0.44166  1.0000
  C   C522      1.0  0.47597  0.93794  0.44171  1.0000
  H   H797      1.0  0.45024  0.94243  0.39513  1.0000
  H   H798      1.0  0.29198  0.91647  0.11181  1.0000
  H   H799      1.0  0.39430  0.68403  0.39866  1.0000
  H   H800      1.0  0.47965  0.92343  0.45474  1.0000
  H   H801      1.0  0.49203  0.97163  0.45479  1.0000
  C   C523      1.0  0.46167  0.49084  0.41611  1.0000
  H   H802      1.0  0.46620  0.53674  0.34336  1.0000
  H   H803      1.0  0.40252  0.52908  0.41323  1.0000
  H   H804      1.0  0.50037  0.64518  0.19179  1.0000
  S   S217      1.0  0.30960  0.49875  0.41656  1.0000
  H   H805      1.0  0.43356  0.74189  0.42359  1.0000
  H   H806      1.0  0.29829  0.87703  0.08547  1.0000
  C   C524      1.0  0.49579  0.60717  0.22409  1.0000
  H   H807      1.0  0.38814  0.56862  0.39273  1.0000
  H   H808      1.0  0.49992  0.54728  0.34673  1.0000
  H   H809      1.0  0.29193  0.92079  0.45049  1.0000
  C   C525      1.0  0.37678  0.55451  0.38761  1.0000
  H   H810      1.0  0.42593  0.98189  0.46857  1.0000
  C   C526      1.0  0.48835  0.49773  0.36236  1.0000
  C   C527      1.0  0.27246  0.71071  0.34919  1.0000
  S   S218      1.0  0.26867  0.81079  0.36875  1.0000
  H   H811      1.0  0.49135  0.81999  0.25124  1.0000
  C   C528      1.0  0.28023  0.85018  0.29806  1.0000
  H   H812      1.0  0.43927  0.72282  0.39883  1.0000
  H   H813      1.0  0.41647  0.68817  0.38453  1.0000
  H   H814      1.0  0.46870  0.66703  0.22262  1.0000
  H   H815      1.0  0.48830  0.61566  0.18141  1.0000
  H   H816      1.0  0.48656  0.79436  0.27217  1.0000
  H   H817      1.0  0.38876  0.49923  0.42026  1.0000
  H   H818      1.0  0.46682  0.51184  0.41743  1.0000
  C   C529      1.0  0.50530  0.66932  0.27588  1.0000
  H   H819      1.0  0.30164  0.86895  0.12571  1.0000
  N   N48       1.0  0.41324  0.71133  0.41485  1.0000
  H   H820      1.0  0.39874  0.71590  0.38414  1.0000
  S   S219      1.0  0.51274  0.69791  0.25944  1.0000
  Fe  Fe111     1.0  0.28124  0.59901  0.42468  1.0000
  H   H821      1.0  0.42886  0.69710  0.44297  1.0000
  H   H822      1.0  0.51134  0.70969  0.46556  1.0000
  H   H823      1.0  0.51579  0.54943  0.13590  1.0000
  C   C530      1.0  0.42240  0.68875  0.42786  1.0000
  H   H824      1.0  0.41209  0.67281  0.43312  1.0000
  C   C531      1.0  0.50497  0.61969  0.28492  1.0000
  C   C532      1.0  0.28961  0.94346  0.38941  1.0000
  C   C533      1.0  0.27710  0.90980  0.11331  1.0000
  H   H825      1.0  0.47681  0.76169  0.51909  1.0000
  S   S220      1.0  0.51617  0.70840  0.19708  1.0000
  H   H826      1.0  0.28847  0.88500  0.42128  1.0000
  H   H827      1.0  0.27539  0.88433  0.07437  1.0000
  H   H828      1.0  0.49738  0.58771  0.21409  1.0000
  H   H829      1.0  0.36389  0.56779  0.38475  1.0000
  C   C534      1.0  0.30042  0.69386  0.32966  1.0000
  C   C535      1.0  0.50477  0.53862  0.04505  1.0000
  C   C536      1.0  0.28957  0.90683  0.41687  1.0000
  N   N49       1.0  0.34731  0.88234  0.41367  1.0000
  C   C537      1.0  0.33994  0.87146  0.39285  1.0000
  C   C538      1.0  0.33724  0.86947  0.43249  1.0000
  C   C539      1.0  0.34428  0.91306  0.41439  1.0000
  C   C540      1.0  0.36773  0.87531  0.41496  1.0000
  H   H830      1.0  0.34722  0.88060  0.37824  1.0000
  H   H831      1.0  0.32454  0.87634  0.39133  1.0000
  H   H832      1.0  0.34198  0.84834  0.39176  1.0000
  H   H833      1.0  0.33909  0.84627  0.43233  1.0000
  H   H834      1.0  0.34251  0.87702  0.44851  1.0000
  H   H835      1.0  0.32180  0.87441  0.43211  1.0000
  H   H836      1.0  0.35184  0.92349  0.40056  1.0000
  H   H837      1.0  0.34930  0.92198  0.43008  1.0000
  H   H838      1.0  0.32903  0.91909  0.41310  1.0000
  H   H839      1.0  0.37582  0.88444  0.40093  1.0000
  H   H840      1.0  0.37048  0.85228  0.41450  1.0000
  H   H841      1.0  0.37380  0.88307  0.43050  1.0000
  C   C541      1.0  0.29149  0.96385  0.40596  1.0000
  H   H842      1.0  0.49241  0.75626  0.24487  1.0000
  H   H843      1.0  0.45839  0.60645  0.23197  1.0000
  H   H844      1.0  0.51014  0.59853  0.28179  1.0000
  S   S221      1.0  0.44012  0.51021  0.38112  1.0000
  H   H845      1.0  0.50225  0.48911  0.36781  1.0000
  H   H846      1.0  0.49218  0.60091  0.24130  1.0000
  C   C542      1.0  0.29143  0.92719  0.43341  1.0000
  H   H847      1.0  0.38993  0.74091  0.41838  1.0000
  H   H848      1.0  0.48694  0.69552  0.29633  1.0000
  H   H849      1.0  0.27399  0.63053  0.50558  1.0000
  C   C543      1.0  0.26871  0.72138  0.41159  1.0000
  C   C544      1.0  0.50357  0.76931  0.23730  1.0000
  H   H850      1.0  0.35483  0.49816  0.40935  1.0000
  S   S222      1.0  0.26937  0.55950  0.43895  1.0000
  H   H851      1.0  0.47598  0.64883  0.18479  1.0000
  H   H852      1.0  0.36445  0.53057  0.43851  1.0000
  S   S223      1.0  0.28620  0.89002  0.37335  1.0000
  H   H853      1.0  0.48417  0.51533  0.37357  1.0000
  C   C545      1.0  0.28260  0.67432  0.41480  1.0000
  H   H854      1.0  0.42094  0.74970  0.39890  1.0000
  H   H855      1.0  0.45155  0.62657  0.20823  1.0000
  H   H856      1.0  0.42828  0.96955  0.44065  1.0000
  C   C546      1.0  0.46288  0.61259  0.21500  1.0000
  N   N50       1.0  0.37324  0.53278  0.40441  1.0000
  H   H857      1.0  0.39581  0.50554  0.39212  1.0000
  H   H858      1.0  0.29398  0.66051  0.42021  1.0000
  H   H859      1.0  0.50983  0.61701  0.22435  1.0000
  N   N51       1.0  0.51248  0.78704  0.25384  1.0000
  H   H860      1.0  0.29215  0.98576  0.40162  1.0000
  C   C547      1.0  0.36727  0.54626  0.42539  1.0000
  C   C548      1.0  0.48666  0.63436  0.19228  1.0000
  C   C549      1.0  0.28357  0.70339  0.41813  1.0000
  H   H861      1.0  0.47587  0.64689  0.24624  1.0000
  H   H862      1.0  0.35401  0.55909  0.42350  1.0000
  S   S224      1.0  0.29474  0.98029  0.44979  1.0000
  H   H863      1.0  0.30707  0.67707  0.31921  1.0000
  H   H864      1.0  0.45911  0.50290  0.33507  1.0000
  H   H865      1.0  0.36202  0.50398  0.38116  1.0000
  H   H866      1.0  0.51413  0.75473  0.22940  1.0000
  H   H867      1.0  0.50544  0.64966  0.03249  1.0000
  H   H868      1.0  0.43382  0.67764  0.41815  1.0000
  C   C550      1.0  0.51126  0.51676  0.05885  1.0000
  H   H869      1.0  0.28147  0.84967  0.08352  1.0000
  C   C551      1.0  0.42736  0.73234  0.40875  1.0000
  H   H870      1.0  0.40329  0.73547  0.44291  1.0000
  N   N52       1.0  0.48123  0.62652  0.21504  1.0000
  C   C552      1.0  0.51182  0.64186  0.27194  1.0000
  H   H871      1.0  0.46365  0.59326  0.20476  1.0000
  H   H872      1.0  0.50234  0.78204  0.48599  1.0000
  N   N53       1.0  0.27560  0.87940  0.10954  1.0000
  C   C553      1.0  0.47035  0.51853  0.33289  1.0000
  H   H873      1.0  0.50424  0.81991  0.27646  1.0000
  H   H874      1.0  0.37821  0.56042  0.43151  1.0000
  H   H875      1.0  0.30147  0.71399  0.32042  1.0000
  H   H876      1.0  0.49620  0.76896  0.45964  1.0000
  C   C554      1.0  0.35809  0.51460  0.39694  1.0000
  H   H877      1.0  0.34465  0.52681  0.39435  1.0000
  H   H878      1.0  0.50784  0.61384  0.02376  1.0000
  H   H879      1.0  0.47030  0.52602  0.31551  1.0000
  H   H880      1.0  0.26864  0.92218  0.10117  1.0000
  H   H881      1.0  0.26946  0.89399  0.32314  1.0000
  H   H882      1.0  0.49719  0.78207  0.22383  1.0000
  H   H883      1.0  0.27167  0.91581  0.13004  1.0000
  H   H884      1.0  0.51533  0.73115  0.44180  1.0000
  H   H885      1.0  0.27981  0.71185  0.36519  1.0000
  H   H886      1.0  0.50681  0.56008  0.04982  1.0000
  H   H887      1.0  0.50395  0.53650  0.31894  1.0000
  H   H888      1.0  0.27387  0.73137  0.34099  1.0000
  C   C555      1.0  0.49801  0.80618  0.26388  1.0000
  H   H889      1.0  0.28553  0.64329  0.33761  1.0000
  C   C556      1.0  0.43113  0.98739  0.45176  1.0000
  H   H890      1.0  0.27501  0.66835  0.30425  1.0000
  Fe  Fe112     1.0  0.28091  0.57522  0.47099  1.0000
  H   H891      1.0  0.28800  0.66183  0.36301  1.0000
  C   C557      1.0  0.26961  0.68583  0.31490  1.0000
  S   S225      1.0  0.26856  0.75722  0.41812  1.0000
  H   H892      1.0  0.27037  0.70534  0.30496  1.0000
  H   H893      1.0  0.49478  0.48897  0.30716  1.0000
  C   C558      1.0  0.50864  0.48886  0.05303  1.0000
  Fe  Fe113     1.0  0.47288  0.56242  0.97552  1.0000
  S   S226      1.0  0.48921  0.57527  0.94516  1.0000
  C   C559      1.0  0.35773  0.78947  0.93250  1.0000
  Fe  Fe114     1.0  0.43532  0.56688  0.95078  1.0000
  S   S227      1.0  0.44913  0.58087  0.91923  1.0000
  S   S228      1.0  0.40401  0.55922  0.95505  1.0000
  Fe  Fe115     1.0  0.47047  0.54653  0.92690  1.0000
  H   H894      1.0  0.33693  0.58368  0.94485  1.0000
  Fe  Fe116     1.0  0.46641  0.60860  0.94042  1.0000
  S   S229      1.0  0.47646  0.65356  0.93642  1.0000
  S   S230      1.0  0.45579  0.53108  0.95748  1.0000
  S   S231      1.0  0.45088  0.59702  0.97161  1.0000
  Fe  Fe117     1.0  0.44712  0.80375  0.88205  1.0000
  S   S232      1.0  0.43541  0.82383  0.85144  1.0000
  S   S233      1.0  0.44002  0.75739  0.88392  1.0000
  Fe  Fe118     1.0  0.46133  0.86047  0.89717  1.0000
  S   S234      1.0  0.45132  0.88366  0.86721  1.0000
  S   S235      1.0  0.47220  0.88584  0.92521  1.0000
  Fe  Fe119     1.0  0.42513  0.85915  0.87298  1.0000
  S   S236      1.0  0.39585  0.87878  0.87059  1.0000
  Fe  Fe120     1.0  0.46292  0.84609  0.84863  1.0000
  S   S237      1.0  0.47840  0.84221  0.81547  1.0000
  S   S238      1.0  0.43448  0.83766  0.90379  1.0000
  S   S239      1.0  0.47521  0.82444  0.87837  1.0000
  C   C560      1.0  0.29908  0.67379  0.90111  1.0000
  H   H895      1.0  0.36581  0.60901  0.93284  1.0000
  H   H896      1.0  0.29457  0.53818  0.75195  1.0000
  H   H897      1.0  0.35047  0.97948  0.90849  1.0000
  H   H898      1.0  0.27759  0.51345  0.76102  1.0000
  Fe  Fe121     1.0  0.31918  0.55608  0.87759  1.0000
  S   S240      1.0  0.30636  0.56032  0.91138  1.0000
  S   S241      1.0  0.35083  0.55686  0.87225  1.0000
  C   C561      1.0  0.49821  0.86523  0.78076  1.0000
  Fe  Fe122     1.0  0.28643  0.59194  0.89623  1.0000
  Fe  Fe123     1.0  0.28672  0.52746  0.90023  1.0000
  H   H899      1.0  0.36457  0.64626  0.92972  1.0000
  S   S242      1.0  0.30046  0.58981  0.86278  1.0000
  S   S243      1.0  0.30107  0.52050  0.86735  1.0000
  Fe  Fe124     1.0  0.31827  0.84507  0.95470  1.0000
  S   S244      1.0  0.30773  0.83098  0.92230  1.0000
  S   S245      1.0  0.34650  0.86528  0.95771  1.0000
  C   C562      1.0  0.48199  0.64077  0.99925  1.0000
  Fe  Fe125     1.0  0.29907  0.79177  0.93993  1.0000
  S   S246      1.0  0.47874  0.51743  0.89872  1.0000
  H   H900      1.0  0.34941  0.94507  0.89664  1.0000
  S   S247      1.0  0.31139  0.80499  0.97213  1.0000
  S   S248      1.0  0.29126  0.86737  0.96496  1.0000
  H   H901      1.0  0.41762  0.91911  0.89583  1.0000
  C   C563      1.0  0.33067  0.60410  0.95045  1.0000
  C   C564      1.0  0.33740  0.94331  0.93889  1.0000
  H   H902      1.0  0.46805  0.76324  0.63748  1.0000
  H   H903      1.0  0.48406  0.81124  0.58104  1.0000
  H   H904      1.0  0.30522  0.97501  0.94016  1.0000
  H   H905      1.0  0.50557  0.93597  0.80968  1.0000
  H   H906      1.0  0.51626  0.87508  0.69413  1.0000
  H   H907      1.0  0.34689  0.95875  0.94627  1.0000
  C   C565      1.0  0.47988  0.81382  0.62488  1.0000
  H   H908      1.0  0.35203  0.74226  0.91011  1.0000
  C   C566      1.0  0.46442  0.76988  0.62043  1.0000
  H   H909      1.0  0.50145  0.68750  0.00428  1.0000
  H   H910      1.0  0.51402  0.88264  0.75333  1.0000
  S   S249      1.0  0.27866  0.49419  0.92486  1.0000
  N   N54       1.0  0.41565  0.96141  0.88378  1.0000
  C   C567      1.0  0.35870  0.62849  0.93923  1.0000
  H   H911      1.0  0.30429  0.65965  0.88836  1.0000
  H   H912      1.0  0.45658  0.75530  0.83037  1.0000
  H   H913      1.0  0.49067  0.82830  0.61831  1.0000
  H   H914      1.0  0.28558  0.68115  0.60049  1.0000
  C   C568      1.0  0.28530  0.71131  0.93356  1.0000
  H   H915      1.0  0.33394  0.60649  0.96818  1.0000
  H   H916      1.0  0.50203  0.95087  0.94806  1.0000
  H   H917      1.0  0.32752  0.93623  0.95212  1.0000
  H   H918      1.0  0.31502  0.60286  0.94914  1.0000
  S   S250      1.0  0.48777  0.56161  0.00866  1.0000
  H   H919      1.0  0.45459  0.98298  0.94313  1.0000
  H   H920      1.0  0.27284  0.62086  0.63675  1.0000
  H   H921      1.0  0.41186  0.93261  0.85716  1.0000
  C   C569      1.0  0.36609  0.75179  0.90749  1.0000
  H   H922      1.0  0.36747  0.78118  0.94527  1.0000
  C   C570      1.0  0.38214  0.87635  0.89490  1.0000
  C   C571      1.0  0.39060  0.87579  0.91553  1.0000
  C   C572      1.0  0.37949  0.87281  0.93473  1.0000
  C   C573      1.0  0.35993  0.86997  0.93340  1.0000
  C   C574      1.0  0.35142  0.87120  0.91282  1.0000
  C   C575      1.0  0.36247  0.87473  0.89362  1.0000
  H   H923      1.0  0.40568  0.87776  0.91680  1.0000
  H   H924      1.0  0.38614  0.87224  0.95065  1.0000
  H   H925      1.0  0.33631  0.86956  0.91167  1.0000
  H   H926      1.0  0.35584  0.87544  0.87771  1.0000
  C   C576      1.0  0.49065  0.86961  0.80212  1.0000
  H   H927      1.0  0.46806  0.77855  0.81112  1.0000
  Fe  Fe126     1.0  0.28099  0.55443  0.85551  1.0000
  H   H928      1.0  0.47519  0.64593  0.98331  1.0000
  C   C577      1.0  0.50159  0.94454  0.96573  1.0000
  C   C578      1.0  0.49329  0.89531  0.81241  1.0000
  H   H929      1.0  0.32227  0.91579  0.90458  1.0000
  C   C579      1.0  0.47101  0.98033  0.91301  1.0000
  H   H930      1.0  0.48764  0.89894  0.82886  1.0000
  C   C580      1.0  0.38940  0.55896  0.93190  1.0000
  C   C581      1.0  0.39581  0.56782  0.91120  1.0000
  C   C582      1.0  0.38392  0.56682  0.89299  1.0000
  C   C583      1.0  0.36546  0.55727  0.89537  1.0000
  C   C584      1.0  0.35906  0.54826  0.91605  1.0000
  C   C585      1.0  0.37098  0.54920  0.93427  1.0000
  H   H931      1.0  0.40988  0.57565  0.90919  1.0000
  H   H932      1.0  0.38895  0.57382  0.87701  1.0000
  H   H933      1.0  0.34502  0.54028  0.91797  1.0000
  H   H934      1.0  0.45956  0.80739  0.58792  1.0000
  C   C586      1.0  0.47108  0.92201  0.91990  1.0000
  C   C587      1.0  0.47959  0.93298  0.90093  1.0000
  C   C588      1.0  0.47963  0.96206  0.89757  1.0000
  C   C589      1.0  0.46834  0.77009  0.82822  1.0000
  C   C590      1.0  0.46178  0.96924  0.93149  1.0000
  C   C591      1.0  0.46201  0.94019  0.93507  1.0000
  H   H935      1.0  0.48658  0.91906  0.88912  1.0000
  H   H936      1.0  0.48663  0.97043  0.88310  1.0000
  H   H937      1.0  0.51261  0.94443  0.00787  1.0000
  H   H938      1.0  0.45512  0.93175  0.94958  1.0000
  C   C592      1.0  0.46588  0.68223  0.92197  1.0000
  C   C593      1.0  0.47404  0.70869  0.92321  1.0000
  C   C594      1.0  0.46623  0.73202  0.91193  1.0000
  C   C595      1.0  0.45019  0.72909  0.89914  1.0000
  C   C596      1.0  0.44208  0.70261  0.89782  1.0000
  C   C597      1.0  0.44981  0.67934  0.90922  1.0000
  H   H939      1.0  0.48648  0.71119  0.93300  1.0000
  H   H940      1.0  0.47262  0.75221  0.91314  1.0000
  H   H941      1.0  0.42973  0.70005  0.88788  1.0000
  H   H942      1.0  0.44341  0.65914  0.90802  1.0000
  H   H943      1.0  0.36286  0.63078  0.95671  1.0000
  H   H944      1.0  0.31343  0.65335  0.94498  1.0000
  H   H945      1.0  0.37598  0.74217  0.91956  1.0000
  H   H946      1.0  0.36596  0.54215  0.95023  1.0000
  H   H947      1.0  0.31780  0.62170  0.91172  1.0000
  C   C598      1.0  0.49734  0.77354  0.61063  1.0000
  C   C599      1.0  0.42416  0.93974  0.89821  1.0000
  C   C600      1.0  0.48630  0.74584  0.85609  1.0000
  C   C601      1.0  0.50348  0.91629  0.80147  1.0000
  Fe  Fe127     1.0  0.28006  0.85009  0.93373  1.0000
  C   C602      1.0  0.49524  0.79229  0.53211  1.0000
  Fe  Fe128     1.0  0.28301  0.82624  0.97947  1.0000
  H   H948      1.0  0.34628  0.92478  0.93390  1.0000
  H   H949      1.0  0.49702  0.75397  0.60073  1.0000
  C   C603      1.0  0.30629  0.70090  0.90265  1.0000
  H   H950      1.0  0.39752  0.50070  0.93992  1.0000
  C   C604      1.0  0.27831  0.68405  0.93224  1.0000
  H   H951      1.0  0.27995  0.72555  0.94618  1.0000
  C   C605      1.0  0.31431  0.93439  0.91120  1.0000
  H   H952      1.0  0.35627  0.81245  0.93493  1.0000
  H   H953      1.0  0.29757  0.60605  0.60914  1.0000
  H   H954      1.0  0.33328  0.67216  0.93477  1.0000
  H   H955      1.0  0.50446  0.62907  0.96409  1.0000
  N   N55       1.0  0.50271  0.64332  0.99764  1.0000
  H   H956      1.0  0.33805  0.64097  0.90329  1.0000
  H   H957      1.0  0.26837  0.57039  0.74156  1.0000
  H   H958      1.0  0.43952  0.93674  0.89457  1.0000
  H   H959      1.0  0.38852  0.49651  0.91275  1.0000
  N   N56       1.0  0.32710  0.95536  0.91999  1.0000
  H   H960      1.0  0.50468  0.72288  0.82113  1.0000
  H   H961      1.0  0.51540  0.81752  0.54852  1.0000
  H   H962      1.0  0.39255  0.97102  0.90621  1.0000
  H   H963      1.0  0.31713  0.70733  0.89108  1.0000
  C   C606      1.0  0.27167  0.64138  0.62811  1.0000
  H   H964      1.0  0.41231  0.96877  0.84909  1.0000
  H   H965      1.0  0.49151  0.72195  0.53975  1.0000
  H   H966      1.0  0.47559  0.65503  0.01194  1.0000
  H   H967      1.0  0.51593  0.76851  0.83454  1.0000
  H   H968      1.0  0.47977  0.71745  0.81896  1.0000
  N   N57       1.0  0.27656  0.63875  0.60440  1.0000
  H   H969      1.0  0.30559  0.94324  0.89763  1.0000
  H   H970      1.0  0.49623  0.84545  0.77263  1.0000
  C   C607      1.0  0.51014  0.79665  0.54658  1.0000
  H   H971      1.0  0.49907  0.79562  0.84248  1.0000
  H   H972      1.0  0.47807  0.61912  0.00379  1.0000
  C   C608      1.0  0.48856  0.76524  0.52976  1.0000
  H   H973      1.0  0.30443  0.92680  0.92419  1.0000
  N   N58       1.0  0.48682  0.75676  0.83328  1.0000
  C   C609      1.0  0.50170  0.77771  0.83102  1.0000
  C   C610      1.0  0.34072  0.96342  0.90254  1.0000
  H   H974      1.0  0.50849  0.78674  0.60330  1.0000
  H   H975      1.0  0.50743  0.60204  0.98432  1.0000
  H   H976      1.0  0.35627  0.78963  0.87656  1.0000
  H   H977      1.0  0.34356  0.78070  0.93585  1.0000
  H   H978      1.0  0.42539  0.52362  0.92286  1.0000
  C   C611      1.0  0.51166  0.74720  0.55616  1.0000
  C   C612      1.0  0.50106  0.95968  0.00365  1.0000
  N   N59       1.0  0.36472  0.78252  0.91001  1.0000
  H   H979      1.0  0.42250  0.94538  0.91592  1.0000
  C   C613      1.0  0.51675  0.83186  0.68367  1.0000
  N   N60       1.0  0.27339  0.52909  0.72822  1.0000
  C   C614      1.0  0.28525  0.66503  0.91617  1.0000
  H   H980      1.0  0.46525  0.78803  0.83935  1.0000
  C   C615      1.0  0.33329  0.62335  0.91379  1.0000
  C   C616      1.0  0.29948  0.71979  0.91890  1.0000
  N   N61       1.0  0.33797  0.62751  0.93716  1.0000
  H   H981      1.0  0.46613  0.82568  0.62567  1.0000
  S   S251      1.0  0.27005  0.80986  0.94845  1.0000
  H   H982      1.0  0.41631  0.51791  0.89593  1.0000
  H   H983      1.0  0.51301  0.82392  0.69983  1.0000
  H   H984      1.0  0.33706  0.78571  0.89601  1.0000
  H   H985      1.0  0.48829  0.93311  0.96857  1.0000
  H   H986      1.0  0.48604  0.50035  0.00418  1.0000
  S   S252      1.0  0.27733  0.63009  0.91688  1.0000
  H   H987      1.0  0.45022  0.78046  0.62115  1.0000
  H   H988      1.0  0.27738  0.66526  0.57568  1.0000
  C   C617      1.0  0.49084  0.73349  0.81775  1.0000
  C   C618      1.0  0.51108  0.63581  0.01906  1.0000
  H   H989      1.0  0.39403  0.78595  0.91827  1.0000
  C   C619      1.0  0.35142  0.79432  0.89373  1.0000
  C   C620      1.0  0.39519  0.96438  0.88883  1.0000
  H   H990      1.0  0.28102  0.65610  0.63653  1.0000
  H   H991      1.0  0.34988  0.81742  0.89529  1.0000
  C   C621      1.0  0.47369  0.79664  0.58838  1.0000
  H   H992      1.0  0.48386  0.80840  0.64209  1.0000
  C   C622      1.0  0.28486  0.53868  0.70923  1.0000
  C   C623      1.0  0.51105  0.91193  0.78011  1.0000
  H   H993      1.0  0.43384  0.95027  0.85622  1.0000
  H   H994      1.0  0.34003  0.60378  0.90705  1.0000
  H   H995      1.0  0.29339  0.55695  0.71366  1.0000
  N   N62       1.0  0.47881  0.78850  0.61106  1.0000
  C   C624      1.0  0.49682  0.74280  0.54162  1.0000
  H   H996      1.0  0.49131  0.74111  0.80040  1.0000
  H   H997      1.0  0.37134  0.74579  0.89070  1.0000
  H   H998      1.0  0.33308  0.65856  0.96244  1.0000
  H   H999      1.0  0.27574  0.54507  0.69520  1.0000
  H   H1000     1.0  0.38929  0.78976  0.88950  1.0000
  C   C625      1.0  0.32912  0.65408  0.94518  1.0000
  H   H1001     1.0  0.26760  0.67753  0.94396  1.0000
  H   H1002     1.0  0.47340  0.77810  0.57731  1.0000
  H   H1003     1.0  0.38302  0.81760  0.90823  1.0000
  H   H1004     1.0  0.50216  0.78683  0.81410  1.0000
  H   H1005     1.0  0.50180  0.76749  0.62750  1.0000
  C   C626      1.0  0.31594  0.98036  0.92731  1.0000
  H   H1006     1.0  0.43959  0.50533  0.90257  1.0000
  C   C627      1.0  0.38357  0.79445  0.90635  1.0000
  C   C628      1.0  0.27511  0.66662  0.59387  1.0000
  H   H1007     1.0  0.48299  0.76281  0.86821  1.0000
  H   H1008     1.0  0.46332  0.75056  0.61037  1.0000
  H   H1009     1.0  0.47294  0.97960  0.97842  1.0000
  S   S253      1.0  0.31000  0.75295  0.92097  1.0000
  H   H1010     1.0  0.33335  0.97254  0.88801  1.0000
  H   H1011     1.0  0.30018  0.62537  0.58392  1.0000
  H   H1012     1.0  0.47516  0.73005  0.85836  1.0000
  C   C629      1.0  0.50718  0.67242  0.99173  1.0000
  H   H1013     1.0  0.28024  0.49703  0.82172  1.0000
  C   C630      1.0  0.41854  0.95296  0.86052  1.0000
  H   H1014     1.0  0.30643  0.64092  0.60961  1.0000
  C   C631      1.0  0.50829  0.88630  0.76975  1.0000
  H   H1015     1.0  0.50003  0.73578  0.86067  1.0000
  C   C632      1.0  0.28590  0.52057  0.74642  1.0000
  H   H1016     1.0  0.29474  0.52175  0.70312  1.0000
  H   H1017     1.0  0.38803  0.94420  0.88633  1.0000
  H   H1018     1.0  0.48735  0.94957  0.00709  1.0000
  C   C633      1.0  0.29606  0.62727  0.60168  1.0000
  H   H1019     1.0  0.29566  0.50291  0.74151  1.0000
  H   H1020     1.0  0.50092  0.67843  0.97559  1.0000
  N   N63       1.0  0.50260  0.96902  0.98047  1.0000
  H   H1021     1.0  0.27205  0.88331  0.01070  1.0000
  H   H1022     1.0  0.44019  0.98695  0.88355  1.0000
  H   H1023     1.0  0.38824  0.98035  0.87804  1.0000
  C   C634      1.0  0.42494  0.50821  0.90920  1.0000
  H   H1024     1.0  0.51351  0.92931  0.96838  1.0000
  H   H1025     1.0  0.50189  0.97756  0.01524  1.0000
  C   C635      1.0  0.51054  0.62420  0.98046  1.0000
  C   C636      1.0  0.49304  0.50506  0.01935  1.0000
  H   H1026     1.0  0.26830  0.96319  0.95328  1.0000
  C   C637      1.0  0.26879  0.49869  0.81022  1.0000
  C   C638      1.0  0.42478  0.98837  0.88756  1.0000
  H   H1027     1.0  0.55000  0.36850  0.06923  1.0000
  H   H1028     1.0  0.74052  0.40504  0.29892  1.0000
  H   H1029     1.0  0.73949  0.15763  0.29751  1.0000
  Fe  Fe129     1.0  0.54916  0.42899  0.13815  1.0000
  S   S254      1.0  0.56005  0.44320  0.10511  1.0000
  C   C639      1.0  0.74284  0.01257  0.26217  1.0000
  Fe  Fe130     1.0  0.57029  0.48087  0.12251  1.0000
  H   H1030     1.0  0.72321  0.09188  0.04010  1.0000
  H   H1031     1.0  0.52344  0.09279  0.22162  1.0000
  S   S255      1.0  0.56149  0.46532  0.15569  1.0000
  C   C640      1.0  0.52575  0.09184  0.17004  1.0000
  S   S256      1.0  0.54546  0.22432  0.22190  1.0000
  H   H1032     1.0  0.71868  0.02768  0.34833  1.0000
  S   S257      1.0  0.53956  0.15701  0.21260  1.0000
  C   C641      1.0  0.75559  0.13176  0.33194  1.0000
  H   H1033     1.0  0.52650  0.12947  0.36391  1.0000
  Fe  Fe131     1.0  0.55961  0.19026  0.20125  1.0000
  S   S258      1.0  0.59111  0.18153  0.20324  1.0000
  S   S259      1.0  0.54426  0.20205  0.17027  1.0000
  H   H1034     1.0  0.54210  0.09601  0.07541  1.0000
  C   C642      1.0  0.51904  0.14571  0.28445  1.0000
  H   H1035     1.0  0.54658  0.07503  0.09949  1.0000
  Fe  Fe132     1.0  0.67509  0.19584  0.12165  1.0000
  S   S260      1.0  0.68878  0.20517  0.15381  1.0000
  S   S261      1.0  0.64368  0.19121  0.11772  1.0000
  Fe  Fe133     1.0  0.71269  0.19090  0.09585  1.0000
  S   S262      1.0  0.72887  0.19881  0.12651  1.0000
  S   S263      1.0  0.73028  0.18966  0.06397  1.0000
  Fe  Fe134     1.0  0.70876  0.17010  0.14337  1.0000
  S   S264      1.0  0.71918  0.13827  0.16816  1.0000
  Fe  Fe135     1.0  0.70740  0.23340  0.13385  1.0000
  S   S265      1.0  0.72043  0.27539  0.14130  1.0000
  S   S266      1.0  0.69419  0.15928  0.11214  1.0000
  S   S267      1.0  0.69210  0.22684  0.10223  1.0000
  C   C643      1.0  0.73471  0.41719  0.31326  1.0000
  S   S268      1.0  0.72477  0.44024  0.20665  1.0000
  H   H1036     1.0  0.53809  0.10381  0.17345  1.0000
  H   H1037     1.0  0.75830  0.17921  0.03008  1.0000
  S   S269      1.0  0.68973  0.45983  0.17434  1.0000
  C   C644      1.0  0.51903  0.29980  0.23902  1.0000
  Fe  Fe136     1.0  0.69601  0.42462  0.19784  1.0000
  S   S270      1.0  0.68343  0.38213  0.19060  1.0000
  H   H1038     1.0  0.51843  0.35493  0.05683  1.0000
  S   S271      1.0  0.71118  0.00992  0.14837  1.0000
  S   S272      1.0  0.68157  0.44699  0.22639  1.0000
  H   H1039     1.0  0.53994  0.05161  0.17493  1.0000
  H   H1040     1.0  0.52993  0.28583  0.23089  1.0000
  H   H1041     1.0  0.52649  0.31461  0.24967  1.0000
  H   H1042     1.0  0.75686  0.00765  0.36592  1.0000
  H   H1043     1.0  0.72912  0.43746  0.30667  1.0000
  S   S273      1.0  0.55103  0.01622  0.12473  1.0000
  C   C645      1.0  0.74564  0.11179  0.02207  1.0000
  H   H1044     1.0  0.53439  0.32743  0.08644  1.0000
  H   H1045     1.0  0.65979  0.08813  0.12904  1.0000
  C   C646      1.0  0.53679  0.07837  0.08552  1.0000
  H   H1046     1.0  0.73230  0.01547  0.24962  1.0000
  H   H1047     1.0  0.51961  0.05746  0.12189  1.0000
  H   H1048     1.0  0.55258  0.38323  0.09613  1.0000
  H   H1049     1.0  0.66386  0.12445  0.15769  1.0000
  C   C647      1.0  0.71447  0.10273  0.16418  1.0000
  C   C648      1.0  0.72157  0.08278  0.17907  1.0000
  C   C649      1.0  0.71975  0.05407  0.17500  1.0000
  C   C650      1.0  0.71109  0.04532  0.15582  1.0000
  C   C651      1.0  0.70343  0.06526  0.14132  1.0000
  C   C652      1.0  0.70487  0.09388  0.14566  1.0000
  H   H1050     1.0  0.72893  0.08950  0.19351  1.0000
  H   H1051     1.0  0.72572  0.03874  0.18623  1.0000
  H   H1052     1.0  0.69670  0.05847  0.12647  1.0000
  H   H1053     1.0  0.69907  0.10898  0.13431  1.0000
  C   C653      1.0  0.70978  0.30485  0.15495  1.0000
  C   C654      1.0  0.72035  0.32908  0.15748  1.0000
  C   C655      1.0  0.71253  0.35295  0.16827  1.0000
  C   C656      1.0  0.69402  0.35282  0.17668  1.0000
  C   C657      1.0  0.68340  0.32865  0.17401  1.0000
  C   C658      1.0  0.69121  0.30480  0.16319  1.0000
  H   H1054     1.0  0.73474  0.32934  0.15123  1.0000
  H   H1055     1.0  0.72087  0.37136  0.17021  1.0000
  H   H1056     1.0  0.66910  0.32825  0.18053  1.0000
  H   H1057     1.0  0.68292  0.28632  0.16142  1.0000
  H   H1058     1.0  0.52454  0.25200  0.51617  1.0000
  C   C659      1.0  0.76432  0.39135  0.51752  1.0000
  C   C660      1.0  0.72614  0.13449  0.05101  1.0000
  C   C661      1.0  0.73597  0.15924  0.04827  1.0000
  C   C662      1.0  0.73733  0.11789  0.10664  1.0000
  H   H1059     1.0  0.51898  0.07248  0.24601  1.0000
  H   H1060     1.0  0.71464  0.13363  0.06296  1.0000
  Fe  Fe137     1.0  0.53430  0.48873  0.14861  1.0000
  H   H1061     1.0  0.53490  0.03152  0.02411  1.0000
  C   C663      1.0  0.74813  0.30047  0.06644  1.0000
  H   H1062     1.0  0.53515  0.19805  0.39108  1.0000
  S   S274      1.0  0.71758  0.46926  0.26963  1.0000
  C   C664      1.0  0.52683  0.06234  0.17071  1.0000
  H   H1063     1.0  0.66226  0.06101  0.14942  1.0000
  H   H1064     1.0  0.73645  0.06225  0.11338  1.0000
  C   C665      1.0  0.63690  0.99624  0.16280  1.0000
  C   C666      1.0  0.52869  0.30714  0.17386  1.0000
  C   C667      1.0  0.60551  0.18435  0.17931  1.0000
  C   C668      1.0  0.59772  0.18756  0.15842  1.0000
  C   C669      1.0  0.60957  0.18965  0.13968  1.0000
  C   C670      1.0  0.62928  0.18874  0.14167  1.0000
  C   C671      1.0  0.63707  0.18505  0.16251  1.0000
  C   C672      1.0  0.62523  0.18281  0.18124  1.0000
  H   H1065     1.0  0.58259  0.18841  0.15666  1.0000
  H   H1066     1.0  0.60343  0.19225  0.12360  1.0000
  H   H1067     1.0  0.65220  0.18392  0.16426  1.0000
  H   H1068     1.0  0.63136  0.18022  0.19733  1.0000
  C   C673      1.0  0.75553  0.36560  0.51924  1.0000
  C   C674      1.0  0.71975  0.00792  0.35805  1.0000
  H   H1069     1.0  0.72856  0.42894  0.35595  1.0000
  H   H1070     1.0  0.74181  0.05593  0.27207  1.0000
  H   H1071     1.0  0.74401  0.38313  0.34740  1.0000
  H   H1072     1.0  0.70805  0.28549  0.09527  1.0000
  H   H1073     1.0  0.74811  0.14326  0.34562  1.0000
  N   N64       1.0  0.75358  0.09779  0.10625  1.0000
  S   S275      1.0  0.52076  0.45090  0.13422  1.0000
  C   C675      1.0  0.76188  0.03212  0.29138  1.0000
  H   H1074     1.0  0.76095  0.45624  0.31237  1.0000
  H   H1075     1.0  0.52782  0.10810  0.30168  1.0000
  C   C676      1.0  0.52053  0.01211  0.05150  1.0000
  C   C677      1.0  0.52866  0.14561  0.37680  1.0000
  C   C678      1.0  0.52130  0.02722  0.03161  1.0000
  C   C679      1.0  0.73097  0.11090  0.03797  1.0000
  H   H1076     1.0  0.73633  0.45995  0.34210  1.0000
  H   H1077     1.0  0.76231  0.20210  0.39334  1.0000
  Fe  Fe138     1.0  0.71698  0.47749  0.18533  1.0000
  H   H1078     1.0  0.75140  0.44218  0.36128  1.0000
  C   C680      1.0  0.75011  0.16977  0.30647  1.0000
  N   N65       1.0  0.62788  0.40801  0.17370  1.0000
  C   C681      1.0  0.61682  0.43195  0.18311  1.0000
  C   C682      1.0  0.63364  0.38870  0.19156  1.0000
  C   C683      1.0  0.64493  0.41837  0.16230  1.0000
  C   C684      1.0  0.61618  0.39312  0.15784  1.0000
  H   H1079     1.0  0.62536  0.44411  0.19478  1.0000
  H   H1080     1.0  0.60399  0.42495  0.19216  1.0000
  H   H1081     1.0  0.61201  0.44659  0.16996  1.0000
  H   H1082     1.0  0.64265  0.39929  0.20370  1.0000
  H   H1083     1.0  0.62120  0.38040  0.20062  1.0000
  H   H1084     1.0  0.64219  0.37052  0.18502  1.0000
  H   H1085     1.0  0.65387  0.40083  0.15536  1.0000
  H   H1086     1.0  0.65394  0.42981  0.17387  1.0000
  H   H1087     1.0  0.64123  0.43293  0.14862  1.0000
  H   H1088     1.0  0.60308  0.38523  0.16585  1.0000
  H   H1089     1.0  0.62407  0.37483  0.15048  1.0000
  H   H1090     1.0  0.61165  0.40711  0.14410  1.0000
  S   S276      1.0  0.76281  0.33633  0.50287  1.0000
  C   C685      1.0  0.51862  0.33270  0.17110  1.0000
  Fe  Fe139     1.0  0.52859  0.23380  0.19167  1.0000
  H   H1091     1.0  0.62067  0.12682  0.15872  1.0000
  H   H1092     1.0  0.72523  0.31068  0.10162  1.0000
  C   C686      1.0  0.74100  0.43892  0.34811  1.0000
  H   H1093     1.0  0.66680  0.09717  0.17781  1.0000
  H   H1094     1.0  0.75942  0.28833  0.05734  1.0000
  H   H1095     1.0  0.52468  0.39102  0.12040  1.0000
  H   H1096     1.0  0.54403  0.14969  0.37722  1.0000
  H   H1097     1.0  0.74018  0.13673  0.09641  1.0000
  H   H1098     1.0  0.51974  0.37614  0.16106  1.0000
  H   H1099     1.0  0.63563  0.12670  0.13459  1.0000
  H   H1100     1.0  0.52454  0.13615  0.39291  1.0000
  H   H1101     1.0  0.71399  0.25201  0.06449  1.0000
  S   S277      1.0  0.55905  0.38422  0.14632  1.0000
  H   H1102     1.0  0.75258  0.02184  0.33905  1.0000
  H   H1103     1.0  0.52169  0.10960  0.24796  1.0000
  C   C687      1.0  0.54795  0.30574  0.16835  1.0000
  H   H1104     1.0  0.73551  0.25285  0.04876  1.0000
  H   H1105     1.0  0.72304  0.01371  0.37531  1.0000
  C   C688      1.0  0.52774  0.34214  0.09867  1.0000
  H   H1106     1.0  0.74177  0.31591  0.05478  1.0000
  Fe  Fe140     1.0  0.52397  0.19210  0.23043  1.0000
  S   S278      1.0  0.60375  0.00777  0.14169  1.0000
  Fe  Fe141     1.0  0.67714  0.48286  0.20321  1.0000
  H   H1107     1.0  0.52221  0.28085  0.28063  1.0000
  C   C689      1.0  0.54692  0.35518  0.15739  1.0000
  Fe  Fe142     1.0  0.52350  0.17071  0.18278  1.0000
  H   H1108     1.0  0.74530  0.11830  0.32366  1.0000
  H   H1109     1.0  0.72926  0.00065  0.31503  1.0000
  H   H1110     1.0  0.64915  0.12463  0.18203  1.0000
  H   H1111     1.0  0.64174  0.06263  0.13253  1.0000
  H   H1112     1.0  0.55589  0.28624  0.17034  1.0000
  C   C690      1.0  0.74280  0.26185  0.09118  1.0000
  C   C691      1.0  0.52335  0.18346  0.35101  1.0000
  H   H1113     1.0  0.74579  0.07878  0.13715  1.0000
  H   H1114     1.0  0.74239  0.18235  0.31937  1.0000
  N   N66       1.0  0.52452  0.37031  0.08911  1.0000
  C   C692      1.0  0.54280  0.38181  0.08202  1.0000
  H   H1115     1.0  0.74951  0.27277  0.10507  1.0000
  H   H1116     1.0  0.53134  0.14568  0.27361  1.0000
  C   C693      1.0  0.55697  0.32962  0.16011  1.0000
  H   H1117     1.0  0.72246  0.40582  0.32017  1.0000
  H   H1118     1.0  0.75646  0.18465  0.29453  1.0000
  H   H1119     1.0  0.73405  0.12537  0.12367  1.0000
  H   H1120     1.0  0.61772  0.10097  0.13775  1.0000
  C   C694      1.0  0.75285  0.00215  0.34886  1.0000
  C   C695      1.0  0.74901  0.07298  0.11969  1.0000
  N   N67       1.0  0.64209  0.09391  0.15791  1.0000
  C   C696      1.0  0.63190  0.07637  0.17404  1.0000
  C   C697      1.0  0.65608  0.11072  0.16939  1.0000
  C   C698      1.0  0.62844  0.11287  0.14673  1.0000
  C   C699      1.0  0.65191  0.07565  0.14147  1.0000
  H   H1121     1.0  0.62420  0.08941  0.18666  1.0000
  H   H1122     1.0  0.64177  0.06181  0.18282  1.0000
  H   H1123     1.0  0.62132  0.06324  0.16585  1.0000
  H   H1124     1.0  0.53787  0.05917  0.07516  1.0000
  N   N68       1.0  0.73372  0.28187  0.07582  1.0000
  C   C700      1.0  0.74825  0.03548  0.27496  1.0000
  H   H1125     1.0  0.52608  0.10780  0.12123  1.0000
  C   C701      1.0  0.76541  0.43587  0.31980  1.0000
  Fe  Fe143     1.0  0.53244  0.46712  0.10187  1.0000
  H   H1126     1.0  0.73227  0.24773  0.09862  1.0000
  H   H1127     1.0  0.75502  0.31248  0.07963  1.0000
  N   N69       1.0  0.76468  0.15107  0.31626  1.0000
  H   H1128     1.0  0.71796  0.28061  0.04589  1.0000
  C   C702      1.0  0.72491  0.26626  0.05790  1.0000
  H   H1129     1.0  0.72439  0.10826  0.10029  1.0000
  C   C703      1.0  0.75571  0.39416  0.33889  1.0000
  H   H1130     1.0  0.53851  0.18892  0.35095  1.0000
  H   H1131     1.0  0.57186  0.32820  0.15580  1.0000
  H   H1132     1.0  0.54088  0.40325  0.07497  1.0000
  H   H1133     1.0  0.74553  0.07870  0.07591  1.0000
  H   H1134     1.0  0.64343  0.00905  0.15026  1.0000
  N   N70       1.0  0.74921  0.42154  0.33002  1.0000
  H   H1135     1.0  0.70560  0.99839  0.35826  1.0000
  H   H1136     1.0  0.53731  0.34286  0.11301  1.0000
  C   C704      1.0  0.71909  0.29886  0.08779  1.0000
  H   H1137     1.0  0.71189  0.31425  0.07679  1.0000
  H   H1138     1.0  0.52144  0.16837  0.33733  1.0000
  C   C705      1.0  0.61731  0.99272  0.16291  1.0000
  Fe  Fe144     1.0  0.70969  0.46553  0.23347  1.0000
  C   C706      1.0  0.75057  0.16017  0.03230  1.0000
  C   C707      1.0  0.52766  0.35663  0.16294  1.0000
  H   H1139     1.0  0.75376  0.24835  0.08273  1.0000
  H   H1140     1.0  0.76598  0.46490  0.44166  1.0000
  H   H1141     1.0  0.76092  0.05728  0.11977  1.0000
  H   H1142     1.0  0.76460  0.12144  0.28960  1.0000
  C   C708      1.0  0.75779  0.08906  0.08328  1.0000
  H   H1143     1.0  0.76118  0.10729  0.07260  1.0000
  H   H1144     1.0  0.76625  0.11759  0.33964  1.0000
  H   H1145     1.0  0.76156  0.38020  0.32565  1.0000
  H   H1146     1.0  0.76522  0.41398  0.43406  1.0000
  H   H1147     1.0  0.76698  0.39660  0.35120  1.0000
  C   C709      1.0  0.52015  0.19196  0.39020  1.0000
  H   H1148     1.0  0.52561  0.25219  0.26172  1.0000
  H   H1149     1.0  0.52064  0.12828  0.09730  1.0000
  S   S279      1.0  0.54191  0.00005  0.06347  1.0000
  N   N71       1.0  0.51740  0.17148  0.37241  1.0000
  Fe  Fe145     1.0  0.53374  0.98884  0.14655  1.0000
  Fe  Fe146     1.0  0.52787  0.44928  0.72468  1.0000
  Fe  Fe147     1.0  0.56620  0.44704  0.70124  1.0000
  S   S280      1.0  0.55396  0.45420  0.66801  1.0000
  S   S281      1.0  0.59766  0.44220  0.70543  1.0000
  Fe  Fe148     1.0  0.53510  0.23734  0.64590  1.0000
  Fe  Fe149     1.0  0.53245  0.42361  0.67913  1.0000
  Fe  Fe150     1.0  0.54798  0.17948  0.62961  1.0000
  H   H1150     1.0  0.76257  0.09344  0.75808  1.0000
  S   S282      1.0  0.54608  0.41363  0.71137  1.0000
  Fe  Fe151     1.0  0.57373  0.23002  0.62532  1.0000
  S   S283      1.0  0.55993  0.20906  0.65406  1.0000
  S   S284      1.0  0.60413  0.24325  0.62493  1.0000
  Fe  Fe152     1.0  0.71414  0.47934  0.63564  1.0000
  N   N72       1.0  0.60591  0.14645  0.65218  1.0000
  C   C710      1.0  0.75547  0.13655  0.01934  1.0000
  C   C711      1.0  0.74097  0.36250  0.53509  1.0000
  C   C712      1.0  0.52287  0.35637  0.66041  1.0000
  S   S285      1.0  0.54985  0.26039  0.61865  1.0000
  S   S286      1.0  0.56368  0.19885  0.60112  1.0000
  C   C713      1.0  0.54329  0.11298  0.67248  1.0000
  C   C714      1.0  0.68088  0.31136  0.70591  1.0000
  H   H1151     1.0  0.76433  0.43925  0.91336  1.0000
  Fe  Fe153     1.0  0.72325  0.21156  0.72879  1.0000
  S   S287      1.0  0.73856  0.19479  0.69849  1.0000
  S   S288      1.0  0.73843  0.21201  0.76172  1.0000
  Fe  Fe154     1.0  0.68482  0.21075  0.70548  1.0000
  S   S289      1.0  0.69742  0.19290  0.67430  1.0000
  S   S290      1.0  0.65346  0.22051  0.70956  1.0000
  Fe  Fe155     1.0  0.71490  0.16442  0.69585  1.0000
  S   S291      1.0  0.72071  0.11704  0.69591  1.0000
  Fe  Fe156     1.0  0.71962  0.22486  0.67989  1.0000
  S   S292      1.0  0.72649  0.25243  0.65074  1.0000
  S   S293      1.0  0.70036  0.17996  0.72692  1.0000
  S   S294      1.0  0.70617  0.24398  0.71029  1.0000
  Fe  Fe157     1.0  0.68230  0.44106  0.62307  1.0000
  S   S295      1.0  0.69647  0.44936  0.65515  1.0000
  H   H1152     1.0  0.76073  0.33151  0.63241  1.0000
  Fe  Fe158     1.0  0.71970  0.43817  0.59662  1.0000
  S   S296      1.0  0.73600  0.44567  0.62723  1.0000
  S   S297      1.0  0.73842  0.43879  0.56558  1.0000
  Fe  Fe159     1.0  0.71679  0.41527  0.64356  1.0000
  S   S298      1.0  0.72817  0.38305  0.66756  1.0000
  H   H1153     1.0  0.63246  0.04040  0.63104  1.0000
  S   S299      1.0  0.70632  0.02583  0.62166  1.0000
  S   S300      1.0  0.70185  0.40522  0.61246  1.0000
  H   H1154     1.0  0.73396  0.34274  0.53638  1.0000
  S   S301      1.0  0.52309  0.39227  0.65417  1.0000
  C   C715      1.0  0.60466  0.11621  0.64763  1.0000
  H   H1155     1.0  0.75518  0.36172  0.84514  1.0000
  H   H1156     1.0  0.54271  0.99145  0.77781  1.0000
  C   C716      1.0  0.76225  0.99291  0.56692  1.0000
  H   H1157     1.0  0.67447  0.26447  0.68337  1.0000
  H   H1158     1.0  0.73757  0.15597  0.73545  1.0000
  C   C717      1.0  0.74437  0.41036  0.54769  1.0000
  C   C718      1.0  0.73538  0.38475  0.54922  1.0000
  H   H1159     1.0  0.75973  0.15648  0.74885  1.0000
  H   H1160     1.0  0.59282  0.17714  0.67381  1.0000
  H   H1161     1.0  0.72402  0.38213  0.56112  1.0000
  H   H1162     1.0  0.55276  0.03477  0.65705  1.0000
  C   C719      1.0  0.72677  0.34686  0.66282  1.0000
  C   C720      1.0  0.73268  0.32814  0.67930  1.0000
  C   C721      1.0  0.73235  0.29911  0.67587  1.0000
  C   C722      1.0  0.72657  0.28866  0.65569  1.0000
  C   C723      1.0  0.72046  0.30734  0.63927  1.0000
  C   C724      1.0  0.72029  0.33637  0.64294  1.0000
  H   H1163     1.0  0.73766  0.33612  0.69475  1.0000
  H   H1164     1.0  0.73707  0.28484  0.68863  1.0000
  H   H1165     1.0  0.71568  0.29928  0.62375  1.0000
  H   H1166     1.0  0.71532  0.35055  0.63032  1.0000
  C   C725      1.0  0.71616  0.09205  0.67514  1.0000
  C   C726      1.0  0.71964  0.06345  0.67959  1.0000
  C   C727      1.0  0.71658  0.04287  0.66353  1.0000
  C   C728      1.0  0.71011  0.05071  0.64273  1.0000
  C   C729      1.0  0.70648  0.07926  0.63833  1.0000
  C   C730      1.0  0.70944  0.09983  0.65444  1.0000
  H   H1167     1.0  0.72486  0.05718  0.69553  1.0000
  H   H1168     1.0  0.71946  0.02102  0.66718  1.0000
  H   H1169     1.0  0.70148  0.08559  0.62229  1.0000
  H   H1170     1.0  0.70676  0.12172  0.65074  1.0000
  H   H1171     1.0  0.60312  0.31259  0.64286  1.0000
  H   H1172     1.0  0.56499  0.36405  0.66037  1.0000
  C   C731      1.0  0.67068  0.33410  0.67249  1.0000
  H   H1173     1.0  0.73084  0.19754  0.96061  1.0000
  H   H1174     1.0  0.52092  0.99065  0.79307  1.0000
  H   H1175     1.0  0.76573  0.43334  0.53023  1.0000
  H   H1176     1.0  0.56680  0.33698  0.60318  1.0000
  N   N73       1.0  0.76636  0.35306  0.60191  1.0000
  H   H1177     1.0  0.75902  0.43904  0.84091  1.0000
  S   S302      1.0  0.55218  0.13177  0.63010  1.0000
  H   H1178     1.0  0.62810  0.03999  0.66037  1.0000
  C   C732      1.0  0.52791  0.34609  0.68114  1.0000
  H   H1179     1.0  0.66710  0.03650  0.63731  1.0000
  C   C733      1.0  0.74728  0.24015  0.77730  1.0000
  C   C734      1.0  0.74569  0.26807  0.77043  1.0000
  S   S303      1.0  0.52160  0.20606  0.62361  1.0000
  H   H1180     1.0  0.71435  0.12017  0.74476  1.0000
  C   C735      1.0  0.64914  0.30526  0.69326  1.0000
  H   H1181     1.0  0.73891  0.27312  0.75506  1.0000
  H   H1182     1.0  0.70678  0.19333  0.95255  1.0000
  C   C736      1.0  0.61757  0.23640  0.64854  1.0000
  C   C737      1.0  0.63721  0.23279  0.64632  1.0000
  C   C738      1.0  0.64829  0.22717  0.66484  1.0000
  C   C739      1.0  0.63986  0.22596  0.68582  1.0000
  C   C740      1.0  0.62019  0.22974  0.68804  1.0000
  C   C741      1.0  0.60904  0.23470  0.66944  1.0000
  H   H1183     1.0  0.64388  0.23401  0.63017  1.0000
  H   H1184     1.0  0.66338  0.22408  0.66282  1.0000
  H   H1185     1.0  0.61356  0.22888  0.70423  1.0000
  H   H1186     1.0  0.59392  0.23781  0.67135  1.0000
  C   C742      1.0  0.61229  0.43913  0.68171  1.0000
  C   C743      1.0  0.60500  0.43255  0.66115  1.0000
  C   C744      1.0  0.61692  0.43163  0.64236  1.0000
  C   C745      1.0  0.63623  0.43697  0.64405  1.0000
  C   C746      1.0  0.64352  0.44294  0.66469  1.0000
  C   C747      1.0  0.63161  0.44395  0.68344  1.0000
  H   H1187     1.0  0.59023  0.42814  0.65973  1.0000
  H   H1188     1.0  0.54580  0.46551  0.84513  1.0000
  H   H1189     1.0  0.65827  0.44723  0.66625  1.0000
  H   H1190     1.0  0.76505  0.03561  0.59546  1.0000
  H   H1191     1.0  0.74743  0.01216  0.60539  1.0000
  H   H1192     1.0  0.62878  0.14127  0.67485  1.0000
  N   N74       1.0  0.66905  0.30871  0.68627  1.0000
  C   C748      1.0  0.64901  0.98936  0.62832  1.0000
  C   C749      1.0  0.75593  0.10773  0.77065  1.0000
  S   S304      1.0  0.65060  0.43686  0.62000  1.0000
  H   H1193     1.0  0.55663  0.07211  0.62891  1.0000
  H   H1194     1.0  0.64758  0.28619  0.70371  1.0000
  H   H1195     1.0  0.53669  0.09729  0.70502  1.0000
  H   H1196     1.0  0.54047  0.13465  0.67683  1.0000
  C   C750      1.0  0.59169  0.36330  0.62813  1.0000
  H   H1197     1.0  0.75144  0.03082  0.53662  1.0000
  H   H1198     1.0  0.71235  0.13208  0.93757  1.0000
  H   H1199     1.0  0.59465  0.30890  0.61537  1.0000
  H   H1200     1.0  0.60755  0.10346  0.66259  1.0000
  N   N75       1.0  0.74072  0.12538  0.76102  1.0000
  H   H1201     1.0  0.72733  0.99829  0.55059  1.0000
  H   H1202     1.0  0.63737  0.44896  0.69929  1.0000
  H   H1203     1.0  0.59672  0.36082  0.61073  1.0000
  H   H1204     1.0  0.74565  0.37665  0.62112  1.0000
  H   H1205     1.0  0.58149  0.29525  0.63819  1.0000
  H   H1206     1.0  0.72604  0.99038  0.57927  1.0000
  H   H1207     1.0  0.55341  0.32231  0.62545  1.0000
  C   C751      1.0  0.59018  0.31315  0.63276  1.0000
  C   C752      1.0  0.57337  0.34411  0.65817  1.0000
  Fe  Fe160     1.0  0.53825  0.22748  0.59667  1.0000
  H   H1208     1.0  0.69611  0.31298  0.70123  1.0000
  C   C753      1.0  0.72931  0.00718  0.56730  1.0000
  H   H1209     1.0  0.64149  0.00116  0.68308  1.0000
  H   H1210     1.0  0.53161  0.05807  0.74860  1.0000
  H   H1211     1.0  0.53818  0.01600  0.79980  1.0000
  C   C754      1.0  0.75056  0.02819  0.59260  1.0000
  C   C755      1.0  0.54883  0.10605  0.65090  1.0000
  H   H1212     1.0  0.61120  0.42693  0.62644  1.0000
  H   H1213     1.0  0.52198  0.00142  0.98751  1.0000
  C   C756      1.0  0.76599  0.23376  0.92309  1.0000
  H   H1214     1.0  0.72592  0.17914  0.93579  1.0000
  C   C757      1.0  0.59205  0.15453  0.66970  1.0000
  H   H1215     1.0  0.75836  0.38514  0.86783  1.0000
  H   H1216     1.0  0.63602  0.14698  0.64664  1.0000
  H   H1217     1.0  0.65210  0.00220  0.61344  1.0000
  H   H1218     1.0  0.72083  0.15781  0.77136  1.0000
  H   H1219     1.0  0.63988  0.30277  0.67883  1.0000
  C   C758      1.0  0.56275  0.33978  0.62086  1.0000
  H   H1220     1.0  0.74043  0.04610  0.59566  1.0000
  H   H1221     1.0  0.69051  0.28545  0.66805  1.0000
  H   H1222     1.0  0.67678  0.33034  0.71566  1.0000
  H   H1223     1.0  0.73661  0.36013  0.59706  1.0000
  C   C759      1.0  0.74901  0.37091  0.60368  1.0000
  H   H1224     1.0  0.61482  0.10945  0.63436  1.0000
  C   C760      1.0  0.74867  0.14237  0.74293  1.0000
  H   H1225     1.0  0.67959  0.29291  0.71701  1.0000
  N   N76       1.0  0.57952  0.34009  0.63497  1.0000
  C   C761      1.0  0.76359  0.17664  0.91331  1.0000
  H   H1226     1.0  0.54886  0.03047  0.75195  1.0000
  H   H1227     1.0  0.64368  0.32355  0.70301  1.0000
  N   N77       1.0  0.64663  0.00685  0.64829  1.0000
  C   C762      1.0  0.73231  0.14407  0.77816  1.0000
  H   H1228     1.0  0.75487  0.12907  0.72945  1.0000
  H   H1229     1.0  0.60440  0.36442  0.63858  1.0000
  H   H1230     1.0  0.61229  0.15780  0.61853  1.0000
  H   H1231     1.0  0.66705  0.28127  0.65837  1.0000
  H   H1232     1.0  0.66228  0.33265  0.65725  1.0000
  C   C763      1.0  0.75274  0.03881  0.55373  1.0000
  S   S305      1.0  0.69863  0.47333  0.60411  1.0000
  H   H1233     1.0  0.58761  0.15746  0.62549  1.0000
  H   H1234     1.0  0.59025  0.11104  0.64207  1.0000
  C   C764      1.0  0.67553  0.28393  0.67343  1.0000
  H   H1235     1.0  0.55410  0.35957  0.62243  1.0000
  H   H1236     1.0  0.75173  0.31501  0.60841  1.0000
  S   S306      1.0  0.76272  0.14125  0.90607  1.0000
  N   N78       1.0  0.72034  0.15614  0.96560  1.0000
  C   C765      1.0  0.73946  0.14312  0.96604  1.0000
  C   C766      1.0  0.71361  0.16166  0.98843  1.0000
  C   C767      1.0  0.70749  0.13685  0.95476  1.0000
  C   C768      1.0  0.72095  0.18271  0.95312  1.0000
  H   H1237     1.0  0.74497  0.13874  0.94910  1.0000
  H   H1238     1.0  0.73949  0.12286  0.97505  1.0000
  H   H1239     1.0  0.74958  0.15686  0.97425  1.0000
  H   H1240     1.0  0.71324  0.14198  0.99830  1.0000
  H   H1241     1.0  0.72306  0.17606  0.99709  1.0000
  H   H1242     1.0  0.69913  0.17132  0.98884  1.0000
  H   H1243     1.0  0.56430  0.32677  0.66387  1.0000
  H   H1244     1.0  0.70685  0.11652  0.96374  1.0000
  C   C769      1.0  0.53760  0.04302  0.76083  1.0000
  H   H1245     1.0  0.74299  0.15824  0.78492  1.0000
  H   H1246     1.0  0.68562  0.33739  0.66731  1.0000
  C   C770      1.0  0.52739  0.31724  0.68552  1.0000
  H   H1247     1.0  0.66571  0.35324  0.68155  1.0000
  S   S307      1.0  0.52255  0.26245  0.67427  1.0000
  H   H1248     1.0  0.60166  0.18533  0.63491  1.0000
  C   C771      1.0  0.66396  0.02269  0.65163  1.0000
  H   H1249     1.0  0.53124  0.30927  0.70156  1.0000
  C   C772      1.0  0.52373  0.42693  0.82747  1.0000
  H   H1250     1.0  0.59449  0.14244  0.68510  1.0000
  H   H1251     1.0  0.58563  0.34478  0.66933  1.0000
  C   C773      1.0  0.75620  0.23404  0.79734  1.0000
  H   H1252     1.0  0.71960  0.09425  0.76543  1.0000
  H   H1253     1.0  0.58395  0.38388  0.62945  1.0000
  C   C774      1.0  0.75295  0.28954  0.78350  1.0000
  C   C775      1.0  0.62515  0.15270  0.65945  1.0000
  H   H1254     1.0  0.62647  0.17542  0.66285  1.0000
  S   S308      1.0  0.75291  0.07605  0.94237  1.0000
  H   H1255     1.0  0.57734  0.15067  0.66454  1.0000
  C   C776      1.0  0.60172  0.16243  0.63191  1.0000
  C   C777      1.0  0.52252  0.29854  0.66893  1.0000
  H   H1256     1.0  0.53784  0.41814  0.83202  1.0000
  H   H1257     1.0  0.69286  0.14590  0.95404  1.0000
  C   C778      1.0  0.55022  0.05647  0.66150  1.0000
  H   H1258     1.0  0.74271  0.05705  0.55569  1.0000
  C   C779      1.0  0.54449  0.06335  0.68302  1.0000
  H   H1259     1.0  0.75166  0.31103  0.77801  1.0000
  S   S309      1.0  0.75119  0.08152  0.00614  1.0000
  H   H1260     1.0  0.66280  0.03611  0.66657  1.0000
  C   C780      1.0  0.72597  0.10740  0.75230  1.0000
  S   S310      1.0  0.54936  0.48235  0.71738  1.0000
  H   H1261     1.0  0.72618  0.13208  0.79214  1.0000
  H   H1262     1.0  0.58713  0.47802  0.63856  1.0000
  H   H1263     1.0  0.52393  0.38989  0.75473  1.0000
  H   H1264     1.0  0.74221  0.39454  0.84642  1.0000
  H   H1265     1.0  0.73177  0.09323  0.73912  1.0000
  C   C781      1.0  0.55240  0.07772  0.64557  1.0000
  H   H1266     1.0  0.75396  0.19052  0.88154  1.0000
  C   C782      1.0  0.54115  0.09173  0.68843  1.0000
  Fe  Fe161     1.0  0.53566  0.48739  0.68445  1.0000
  N   N79       1.0  0.74874  0.01679  0.57014  1.0000
  C   C783      1.0  0.53157  0.00499  0.78595  1.0000
  H   H1267     1.0  0.75049  0.39077  0.59429  1.0000
  H   H1268     1.0  0.53050  0.43225  0.87083  1.0000
  H   H1269     1.0  0.54448  0.05519  0.77386  1.0000
  H   H1270     1.0  0.71860  0.02441  0.57004  1.0000
  H   H1271     1.0  0.53240  0.36022  0.69371  1.0000
  H   H1272     1.0  0.53255  0.48099  0.82303  1.0000
  C   C784      1.0  0.76376  0.32703  0.61466  1.0000
  C   C785      1.0  0.75615  0.38421  0.84974  1.0000
  S   S311      1.0  0.53054  0.23457  0.56065  1.0000
  H   H1273     1.0  0.75854  0.33438  0.57130  1.0000
  C   C786      1.0  0.63035  0.02652  0.64557  1.0000
  N   N80       1.0  0.52291  0.02483  0.77011  1.0000
  H   H1274     1.0  0.67651  0.00840  0.65367  1.0000
  H   H1275     1.0  0.61705  0.01510  0.64306  1.0000
  H   H1276     1.0  0.75045  0.09460  0.78437  1.0000
  H   H1277     1.0  0.75444  0.40677  0.80922  1.0000
  C   C787      1.0  0.75995  0.22536  0.90242  1.0000
  C   C788      1.0  0.75859  0.19686  0.89762  1.0000
  S   S312      1.0  0.54141  0.03746  0.70377  1.0000
  H   H1278     1.0  0.75829  0.47827  0.59177  1.0000
  H   H1279     1.0  0.75625  0.24090  0.89013  1.0000
  H   H1280     1.0  0.75750  0.21257  0.80286  1.0000
  C   C789      1.0  0.76190  0.28339  0.80353  1.0000
  C   C790      1.0  0.76348  0.25546  0.81036  1.0000
  H   H1281     1.0  0.52515  0.99574  0.74343  1.0000
  C   C791      1.0  0.75876  0.41358  0.53168  1.0000
  C   C792      1.0  0.51762  0.33771  0.64404  1.0000
  H   H1282     1.0  0.52470  0.43373  0.80991  1.0000
  C   C793      1.0  0.53144  0.47295  0.84023  1.0000
  H   H1283     1.0  0.52242  0.98994  0.95938  1.0000
  N   N81       1.0  0.51766  0.45038  0.84204  1.0000
  Fe  Fe162     1.0  0.54519  0.98987  0.70071  1.0000
  H   H1284     1.0  0.76727  0.12077  0.77733  1.0000
  H   H1285     1.0  0.76700  0.13738  0.00745  1.0000
  H   H1286     1.0  0.76721  0.37376  0.80806  1.0000
  C   C794      1.0  0.51771  0.30884  0.64817  1.0000
  H   H1287     1.0  0.51735  0.84394  0.18431  1.0000
  N   N82       1.0  0.52158  0.75061  0.47263  1.0000
  H   H1288     1.0  0.71568  0.97180  0.32477  1.0000
  Fe  Fe163     1.0  0.55344  0.93469  0.13107  1.0000
  S   S313      1.0  0.57197  0.95885  0.10755  1.0000
  H   H1289     1.0  0.57349  0.83010  0.13541  1.0000
  Fe  Fe164     1.0  0.57538  0.98881  0.13541  1.0000
  H   H1290     1.0  0.73523  0.76081  0.47624  1.0000
  Fe  Fe165     1.0  0.54588  0.98423  0.09872  1.0000
  S   S314      1.0  0.55845  0.96362  0.15948  1.0000
  Fe  Fe166     1.0  0.53864  0.74033  0.19158  1.0000
  S   S315      1.0  0.55274  0.72991  0.22349  1.0000
  Fe  Fe167     1.0  0.53620  0.67750  0.18050  1.0000
  S   S316      1.0  0.54959  0.66330  0.21197  1.0000
  C   C795      1.0  0.76474  0.98268  0.28204  1.0000
  C   C796      1.0  0.74787  0.50442  0.26472  1.0000
  Fe  Fe168     1.0  0.56964  0.69767  0.20404  1.0000
  S   S317      1.0  0.60107  0.69207  0.20824  1.0000
  S   S318      1.0  0.55724  0.71040  0.17169  1.0000
  C   C797      1.0  0.76127  0.86094  0.51386  1.0000
  C   C798      1.0  0.55262  0.86006  0.14788  1.0000
  Fe  Fe169     1.0  0.53115  0.69671  0.22819  1.0000
  Fe  Fe170     1.0  0.68261  0.66488  0.12706  1.0000
  S   S319      1.0  0.69596  0.67958  0.15775  1.0000
  S   S320      1.0  0.65279  0.64849  0.12849  1.0000
  Fe  Fe171     1.0  0.71780  0.67788  0.09893  1.0000
  S   S321      1.0  0.73310  0.69467  0.12825  1.0000
  S   S322      1.0  0.73349  0.67915  0.06573  1.0000
  Fe  Fe172     1.0  0.72188  0.65659  0.14521  1.0000
  S   S323      1.0  0.73862  0.62952  0.16870  1.0000
  Fe  Fe173     1.0  0.70544  0.71648  0.13784  1.0000
  S   S324      1.0  0.69532  0.75760  0.15408  1.0000
  S   S325      1.0  0.70794  0.63887  0.11573  1.0000
  S   S326      1.0  0.69085  0.70253  0.10724  1.0000
  Fe  Fe174     1.0  0.72479  0.95676  0.22095  1.0000
  S   S327      1.0  0.73742  0.95227  0.18675  1.0000
  S   S328      1.0  0.74437  0.95628  0.25051  1.0000
  Fe  Fe175     1.0  0.68514  0.94682  0.20405  1.0000
  S   S329      1.0  0.69509  0.94025  0.16921  1.0000
  S   S330      1.0  0.65406  0.94392  0.21171  1.0000
  Fe  Fe176     1.0  0.71901  0.91485  0.18344  1.0000
  S   S331      1.0  0.73342  0.87533  0.16927  1.0000
  H   H1291     1.0  0.58272  0.62953  0.13839  1.0000
  C   C799      1.0  0.53069  0.60055  0.18156  1.0000
  S   S332      1.0  0.70754  0.91804  0.21805  1.0000
  Fe  Fe177     1.0  0.71228  0.97797  0.17574  1.0000
  H   H1292     1.0  0.63995  0.89316  0.16188  1.0000
  H   H1293     1.0  0.59624  0.88933  0.15950  1.0000
  H   H1294     1.0  0.74914  0.66578  0.29722  1.0000
  C   C800      1.0  0.65396  0.57745  0.16759  1.0000
  C   C801      1.0  0.65024  0.73110  0.14415  1.0000
  H   H1295     1.0  0.65918  0.49370  0.15646  1.0000
  H   H1296     1.0  0.75167  0.78758  0.46955  1.0000
  H   H1297     1.0  0.56463  0.56165  0.15952  1.0000
  H   H1298     1.0  0.60933  0.59879  0.15090  1.0000
  H   H1299     1.0  0.75482  0.93189  0.51350  1.0000
  C   C802      1.0  0.60903  0.97609  0.17918  1.0000
  C   C803      1.0  0.52737  0.80355  0.24301  1.0000
  H   H1300     1.0  0.69838  0.60228  0.16907  1.0000
  C   C804      1.0  0.73716  0.59302  0.16578  1.0000
  C   C805      1.0  0.73969  0.57568  0.18418  1.0000
  C   C806      1.0  0.73853  0.54651  0.18220  1.0000
  C   C807      1.0  0.73542  0.53452  0.16164  1.0000
  C   C808      1.0  0.73315  0.55183  0.14318  1.0000
  C   C809      1.0  0.73364  0.58102  0.14533  1.0000
  H   H1301     1.0  0.74245  0.58480  0.20005  1.0000
  H   H1302     1.0  0.74048  0.53323  0.19648  1.0000
  H   H1303     1.0  0.73073  0.54260  0.12725  1.0000
  H   H1304     1.0  0.73168  0.59410  0.13107  1.0000
  C   C810      1.0  0.70639  0.79006  0.15805  1.0000
  C   C811      1.0  0.69617  0.81173  0.16904  1.0000
  C   C812      1.0  0.70415  0.83801  0.17238  1.0000
  C   C813      1.0  0.72254  0.84287  0.16489  1.0000
  C   C814      1.0  0.73286  0.82114  0.15413  1.0000
  C   C815      1.0  0.72482  0.79489  0.15063  1.0000
  H   H1305     1.0  0.68201  0.80820  0.17510  1.0000
  H   H1306     1.0  0.69611  0.85446  0.18082  1.0000
  H   H1307     1.0  0.74711  0.82470  0.14827  1.0000
  H   H1308     1.0  0.73286  0.77846  0.14215  1.0000
  H   H1309     1.0  0.67758  0.53219  0.17089  1.0000
  C   C816      1.0  0.74593  0.60057  0.04198  1.0000
  C   C817      1.0  0.73765  0.62287  0.05429  1.0000
  C   C818      1.0  0.74274  0.65040  0.04991  1.0000
  H   H1310     1.0  0.52779  0.78166  0.28395  1.0000
  H   H1311     1.0  0.52993  0.88418  0.16326  1.0000
  H   H1312     1.0  0.72723  0.61875  0.06703  1.0000
  C   C819      1.0  0.61324  0.49842  0.14080  1.0000
  H   H1313     1.0  0.74735  0.61445  0.09951  1.0000
  H   H1314     1.0  0.64473  0.88184  0.13412  1.0000
  N   N83       1.0  0.75387  0.62354  0.30845  1.0000
  H   H1315     1.0  0.55747  0.56377  0.13135  1.0000
  H   H1316     1.0  0.53445  0.79079  0.47237  1.0000
  H   H1317     1.0  0.63875  0.79387  0.16774  1.0000
  H   H1318     1.0  0.76431  0.70545  0.38204  1.0000
  H   H1319     1.0  0.59280  0.92493  0.15101  1.0000
  H   H1320     1.0  0.67301  0.55245  0.13395  1.0000
  C   C820      1.0  0.61481  0.67704  0.18663  1.0000
  C   C821      1.0  0.60685  0.66922  0.16671  1.0000
  C   C822      1.0  0.61860  0.65994  0.14907  1.0000
  C   C823      1.0  0.63829  0.65854  0.15125  1.0000
  C   C824      1.0  0.64610  0.66554  0.17140  1.0000
  C   C825      1.0  0.63442  0.67470  0.18899  1.0000
  H   H1321     1.0  0.59173  0.67106  0.16474  1.0000
  H   H1322     1.0  0.61250  0.65473  0.13346  1.0000
  H   H1323     1.0  0.66112  0.66404  0.17358  1.0000
  H   H1324     1.0  0.64065  0.68059  0.20439  1.0000
  H   H1325     1.0  0.60928  0.51142  0.19586  1.0000
  H   H1326     1.0  0.74711  0.71429  0.48922  1.0000
  C   C826      1.0  0.52099  0.59238  0.14424  1.0000
  C   C827      1.0  0.62035  0.96217  0.19474  1.0000
  C   C828      1.0  0.64002  0.96444  0.19390  1.0000
  H   H1327     1.0  0.74644  0.94765  0.35543  1.0000
  S   S333      1.0  0.52843  0.78584  0.18723  1.0000
  C   C829      1.0  0.64404  0.49655  0.15796  1.0000
  H   H1328     1.0  0.61389  0.94904  0.20713  1.0000
  H   H1329     1.0  0.73485  0.60794  0.28442  1.0000
  C   C830      1.0  0.52085  0.72563  0.45839  1.0000
  C   C831      1.0  0.76324  0.52640  0.29577  1.0000
  C   C832      1.0  0.68276  0.60263  0.17129  1.0000
  C   C833      1.0  0.64809  0.77646  0.16147  1.0000
  H   H1330     1.0  0.61844  0.74869  0.12454  1.0000
  C   C834      1.0  0.62717  0.93227  0.13378  1.0000
  H   H1331     1.0  0.74127  0.83283  0.23268  1.0000
  C   C835      1.0  0.52974  0.84085  0.17383  1.0000
  C   C836      1.0  0.53684  0.86376  0.16187  1.0000
  H   H1332     1.0  0.75939  0.73126  0.51088  1.0000
  C   C837      1.0  0.75582  0.65535  0.03270  1.0000
  H   H1333     1.0  0.74200  0.57932  0.04562  1.0000
  N   N84       1.0  0.58323  0.58449  0.13807  1.0000
  C   C838      1.0  0.57331  0.61177  0.14177  1.0000
  C   C839      1.0  0.56993  0.56173  0.14216  1.0000
  C   C840      1.0  0.59924  0.58156  0.15326  1.0000
  C   C841      1.0  0.59040  0.58279  0.11507  1.0000
  H   H1334     1.0  0.72858  0.64952  0.30866  1.0000
  C   C842      1.0  0.75020  0.88175  0.25120  1.0000
  H   H1335     1.0  0.56802  0.61390  0.15909  1.0000
  C   C843      1.0  0.75882  0.62799  0.10507  1.0000
  H   H1336     1.0  0.60721  0.56141  0.15056  1.0000
  H   H1337     1.0  0.59430  0.58203  0.17078  1.0000
  S   S334      1.0  0.52711  0.64700  0.15459  1.0000
  C   C844      1.0  0.72968  0.98164  0.32569  1.0000
  H   H1338     1.0  0.66342  0.98411  0.17752  1.0000
  H   H1339     1.0  0.52036  0.72666  0.50265  1.0000
  H   H1340     1.0  0.53848  0.78973  0.23517  1.0000
  C   C845      1.0  0.52629  0.61097  0.16068  1.0000
  H   H1341     1.0  0.64261  0.71383  0.13634  1.0000
  H   H1342     1.0  0.63100  0.73428  0.18263  1.0000
  H   H1343     1.0  0.58961  0.50692  0.16292  1.0000
  C   C846      1.0  0.75931  0.60543  0.02507  1.0000
  C   C847      1.0  0.76211  0.52118  0.27306  1.0000
  H   H1344     1.0  0.65659  0.76836  0.17551  1.0000
  H   H1345     1.0  0.65028  0.57988  0.18541  1.0000
  H   H1346     1.0  0.65835  0.72204  0.15814  1.0000
  H   H1347     1.0  0.60309  0.87390  0.12187  1.0000
  H   H1348     1.0  0.61671  0.78252  0.13738  1.0000
  H   H1349     1.0  0.74745  0.50001  0.24726  1.0000
  C   C848      1.0  0.74963  0.51538  0.31007  1.0000
  H   H1350     1.0  0.64740  0.55791  0.16194  1.0000
  C   C849      1.0  0.60372  0.90908  0.15604  1.0000
  C   C850      1.0  0.74677  0.60504  0.32608  1.0000
  H   H1351     1.0  0.63432  0.94058  0.14843  1.0000
  C   C851      1.0  0.67887  0.57226  0.14011  1.0000
  C   C852      1.0  0.73529  0.49879  0.30168  1.0000
  H   H1352     1.0  0.75019  0.51957  0.32754  1.0000
  H   H1353     1.0  0.74035  0.96678  0.31819  1.0000
  N   N85       1.0  0.63717  0.75401  0.15154  1.0000
  S   S335      1.0  0.70106  0.98592  0.21012  1.0000
  H   H1354     1.0  0.75973  0.67658  0.02903  1.0000
  H   H1355     1.0  0.69861  0.55140  0.17443  1.0000
  S   S336      1.0  0.73415  0.49810  0.15865  1.0000
  H   H1356     1.0  0.62721  0.86459  0.15077  1.0000
  C   C853      1.0  0.62676  0.76523  0.13243  1.0000
  H   H1357     1.0  0.63662  0.77348  0.11963  1.0000
  C   C854      1.0  0.64826  0.98196  0.17815  1.0000
  N   N86       1.0  0.76454  0.74794  0.47852  1.0000
  H   H1358     1.0  0.61363  0.75996  0.17423  1.0000
  H   H1359     1.0  0.60971  0.91620  0.17178  1.0000
  H   H1360     1.0  0.63798  0.93038  0.12031  1.0000
  H   H1361     1.0  0.53491  0.61455  0.19430  1.0000
  S   S337      1.0  0.64906  0.50636  0.20216  1.0000
  H   H1362     1.0  0.53440  0.81729  0.25491  1.0000
  C   C855      1.0  0.60475  0.50405  0.16136  1.0000
  H   H1363     1.0  0.57668  0.54088  0.13873  1.0000
  H   H1364     1.0  0.53507  0.71553  0.45592  1.0000
  H   H1365     1.0  0.67711  0.62079  0.16176  1.0000
  C   C856      1.0  0.75105  0.98602  0.26567  1.0000
  C   C857      1.0  0.52919  0.74262  0.49434  1.0000
  H   H1366     1.0  0.54840  0.76317  0.45935  1.0000
  H   H1367     1.0  0.60064  0.59947  0.11138  1.0000
  H   H1368     1.0  0.75743  0.59010  0.28495  1.0000
  H   H1369     1.0  0.73662  0.89349  0.24852  1.0000
  H   H1370     1.0  0.51769  0.52076  0.34063  1.0000
  H   H1371     1.0  0.76620  0.57369  0.11402  1.0000
  C   C858      1.0  0.63325  0.88522  0.14670  1.0000
  H   H1372     1.0  0.56086  0.61445  0.13095  1.0000
  C   C859      1.0  0.53837  0.81401  0.17210  1.0000
  C   C860      1.0  0.52431  0.55323  0.16957  1.0000
  H   H1373     1.0  0.66083  0.73866  0.13190  1.0000
  H   H1374     1.0  0.59773  0.56220  0.11173  1.0000
  S   S338      1.0  0.70385  0.50345  0.21256  1.0000
  C   C861      1.0  0.74414  0.65123  0.31026  1.0000
  H   H1375     1.0  0.67281  0.58983  0.13014  1.0000
  H   H1376     1.0  0.67962  0.55443  0.19436  1.0000
  H   H1377     1.0  0.59885  0.90882  0.11238  1.0000
  C   C862      1.0  0.55433  0.81038  0.15835  1.0000
  C   C863      1.0  0.61003  0.89415  0.11864  1.0000
  H   H1378     1.0  0.67957  0.60659  0.18904  1.0000
  N   N87       1.0  0.61854  0.90516  0.13878  1.0000
  C   C864      1.0  0.52950  0.57182  0.18606  1.0000
  C   C865      1.0  0.74429  0.85030  0.22116  1.0000
  H   H1379     1.0  0.64730  0.59539  0.15859  1.0000
  C   C866      1.0  0.68298  0.55258  0.17642  1.0000
  H   H1380     1.0  0.61637  0.94831  0.12865  1.0000
  C   C867      1.0  0.62362  0.74324  0.16807  1.0000
  H   H1381     1.0  0.75541  0.62435  0.27301  1.0000
  H   H1382     1.0  0.74793  0.77791  0.49761  1.0000
  H   H1383     1.0  0.56106  0.78987  0.15675  1.0000
  H   H1384     1.0  0.57868  0.58498  0.10317  1.0000
  H   H1385     1.0  0.52814  0.77821  0.44575  1.0000
  H   H1386     1.0  0.62073  0.89087  0.10520  1.0000
  H   H1387     1.0  0.75527  0.63482  0.12222  1.0000
  H   H1388     1.0  0.63958  0.49076  0.12322  1.0000
  C   C868      1.0  0.53374  0.77159  0.46207  1.0000
  C   C869      1.0  0.73542  0.96267  0.36200  1.0000
  H   H1389     1.0  0.59392  0.97378  0.17974  1.0000
  H   H1390     1.0  0.61501  0.72646  0.16107  1.0000
  N   N88       1.0  0.67464  0.57622  0.16386  1.0000
  H   H1391     1.0  0.65829  0.78531  0.14932  1.0000
  H   H1392     1.0  0.69437  0.57126  0.13673  1.0000
  C   C870      1.0  0.75019  0.61103  0.28674  1.0000
  H   H1393     1.0  0.75363  0.58384  0.32500  1.0000
  N   N89       1.0  0.75794  0.86977  0.23038  1.0000
  H   H1394     1.0  0.74749  0.86524  0.26369  1.0000
  H   H1395     1.0  0.74795  0.90417  0.21085  1.0000
  S   S339      1.0  0.56191  0.88793  0.13185  1.0000
  H   H1396     1.0  0.74963  0.61360  0.34272  1.0000
  H   H1397     1.0  0.74963  0.84104  0.20532  1.0000
  C   C871      1.0  0.52094  0.76908  0.27112  1.0000
  C   C872      1.0  0.56135  0.83326  0.14628  1.0000
  S   S340      1.0  0.54387  0.50644  0.11614  1.0000
  H   H1398     1.0  0.74677  0.66108  0.32652  1.0000
  H   H1399     1.0  0.54383  0.73368  0.49282  1.0000
  S   S341      1.0  0.52693  0.95792  0.11994  1.0000
  H   H1400     1.0  0.75853  0.64702  0.09446  1.0000
  H   H1401     1.0  0.73059  0.86124  0.21749  1.0000
  C   C873      1.0  0.74911  0.76936  0.48056  1.0000
  H   H1402     1.0  0.75999  0.89694  0.25839  1.0000
  H   H1403     1.0  0.53285  0.56388  0.20227  1.0000
  H   H1404     1.0  0.73128  0.60224  0.32498  1.0000
  C   C874      1.0  0.76058  0.72426  0.49341  1.0000
  C   C875      1.0  0.63555  0.50257  0.17845  1.0000
  H   H1405     1.0  0.72174  0.95180  0.36226  1.0000
  C   C876      1.0  0.76131  0.89259  0.21448  1.0000
  C   C877      1.0  0.61591  0.50664  0.18004  1.0000
  H   H1406     1.0  0.73906  0.96718  0.37939  1.0000
  H   H1407     1.0  0.53186  0.75425  0.26407  1.0000
  H   H1408     1.0  0.52226  0.63774  0.25904  1.0000
  C   C878      1.0  0.76214  0.88863  0.50650  1.0000
  H   H1409     1.0  0.52948  0.76096  0.50563  1.0000
  C   C879      1.0  0.63293  0.49496  0.13912  1.0000
  S   S342      1.0  0.52298  0.51733  0.17559  1.0000
  H   H1410     1.0  0.75267  0.72844  0.45017  1.0000
  C   C880      1.0  0.73454  0.49281  0.27903  1.0000
  C   C881      1.0  0.52010  0.56358  0.14862  1.0000
  S   S343      1.0  0.59965  0.49673  0.11694  1.0000
  H   H1411     1.0  0.52151  0.81706  0.22964  1.0000
  H   H1412     1.0  0.72473  0.49045  0.31275  1.0000
  H   H1413     1.0  0.76441  0.96025  0.43592  1.0000
  H   H1414     1.0  0.76529  0.90935  0.42811  1.0000
  C   C882      1.0  0.75417  0.91060  0.51944  1.0000
  C   C883      1.0  0.76602  0.73781  0.45554  1.0000
  H   H1415     1.0  0.51747  0.60027  0.12806  1.0000
  H   H1416     1.0  0.76427  0.98826  0.34178  1.0000
  N   N90       1.0  0.73441  0.98856  0.34864  1.0000
  H   H1417     1.0  0.51820  0.52150  0.07404  1.0000
  H   H1418     1.0  0.76706  0.88449  0.19845  1.0000
  C   C884      1.0  0.76158  0.76076  0.80166  1.0000
  Fe  Fe178     1.0  0.57367  0.94019  0.70443  1.0000
  S   S344      1.0  0.55995  0.96162  0.67579  1.0000
  S   S345      1.0  0.60468  0.92717  0.70468  1.0000
  H   H1419     1.0  0.58914  0.50419  0.61749  1.0000
  H   H1420     1.0  0.74946  0.55103  0.61115  1.0000
  H   H1421     1.0  0.74084  0.77128  0.84556  1.0000
  H   H1422     1.0  0.52270  0.67517  0.99025  1.0000
  S   S346      1.0  0.55121  0.90872  0.71072  1.0000
  Fe  Fe179     1.0  0.57320  0.73946  0.62675  1.0000
  S   S347      1.0  0.56120  0.72727  0.65949  1.0000
  S   S348      1.0  0.60191  0.75889  0.62424  1.0000
  Fe  Fe180     1.0  0.53793  0.72188  0.60270  1.0000
  Fe  Fe181     1.0  0.53449  0.74790  0.64781  1.0000
  H   H1423     1.0  0.70705  0.72851  0.87790  1.0000
  Fe  Fe182     1.0  0.55206  0.68803  0.64287  1.0000
  H   H1424     1.0  0.59425  0.55396  0.62804  1.0000
  S   S349      1.0  0.54709  0.76292  0.61599  1.0000
  S   S350      1.0  0.56563  0.69930  0.61026  1.0000
  C   C885      1.0  0.72131  0.71862  0.87509  1.0000
  C   C886      1.0  0.63824  0.68391  0.66596  1.0000
  C   C887      1.0  0.55141  0.61587  0.66359  1.0000
  Fe  Fe183     1.0  0.71597  0.71394  0.72764  1.0000
  S   S351      1.0  0.72791  0.69672  0.69543  1.0000
  S   S352      1.0  0.73504  0.71213  0.75759  1.0000
  Fe  Fe184     1.0  0.67840  0.73046  0.70662  1.0000
  S   S353      1.0  0.68795  0.71517  0.67343  1.0000
  S   S354      1.0  0.64896  0.74899  0.71139  1.0000
  Fe  Fe185     1.0  0.69952  0.67714  0.69099  1.0000
  S   S355      1.0  0.68748  0.63644  0.67792  1.0000
  Fe  Fe186     1.0  0.71489  0.73612  0.68108  1.0000
  S   S356      1.0  0.72893  0.76277  0.65501  1.0000
  S   S357      1.0  0.68850  0.69167  0.72427  1.0000
  S   S358      1.0  0.70456  0.75410  0.71330  1.0000
  Fe  Fe187     1.0  0.68392  0.92710  0.61677  1.0000
  S   S359      1.0  0.69591  0.94739  0.64634  1.0000
  S   S360      1.0  0.65343  0.91446  0.61637  1.0000
  Fe  Fe188     1.0  0.72079  0.93224  0.58917  1.0000
  S   S361      1.0  0.73555  0.95213  0.61744  1.0000
  S   S362      1.0  0.73544  0.93380  0.55540  1.0000
  Fe  Fe189     1.0  0.72120  0.91949  0.63809  1.0000
  S   S363      1.0  0.73325  0.89422  0.66604  1.0000
  C   C888      1.0  0.75330  0.81140  0.72830  1.0000
  S   S364      1.0  0.72682  0.52088  0.64577  1.0000
  S   S365      1.0  0.70850  0.89753  0.60953  1.0000
  C   C889      1.0  0.61303  0.65100  0.66576  1.0000
  C   C890      1.0  0.53740  0.56085  0.66474  1.0000
  C   C891      1.0  0.61401  0.68568  0.69445  1.0000
  C   C892      1.0  0.55697  0.59676  0.68009  1.0000
  C   C893      1.0  0.53183  0.58000  0.64831  1.0000
  H   H1425     1.0  0.72556  0.53447  0.57192  1.0000
  N   N91       1.0  0.75271  0.52171  0.58446  1.0000
  H   H1426     1.0  0.65508  0.97338  0.67002  1.0000
  C   C894      1.0  0.74529  0.90522  0.53988  1.0000
  C   C895      1.0  0.74449  0.87754  0.54730  1.0000
  H   H1427     1.0  0.75009  0.56665  0.58426  1.0000
  C   C896      1.0  0.75003  0.71759  0.85312  1.0000
  H   H1428     1.0  0.73774  0.87307  0.56298  1.0000
  H   H1429     1.0  0.74301  0.81847  0.71576  1.0000
  C   C897      1.0  0.73166  0.85789  0.66263  1.0000
  C   C898      1.0  0.72384  0.84178  0.67960  1.0000
  C   C899      1.0  0.72245  0.81271  0.67718  1.0000
  C   C900      1.0  0.72948  0.79941  0.65812  1.0000
  C   C901      1.0  0.73720  0.81559  0.64109  1.0000
  C   C902      1.0  0.73811  0.84479  0.64322  1.0000
  H   H1430     1.0  0.71862  0.85191  0.69453  1.0000
  H   H1431     1.0  0.71612  0.80070  0.69022  1.0000
  H   H1432     1.0  0.74258  0.80551  0.62621  1.0000
  H   H1433     1.0  0.74418  0.85710  0.63004  1.0000
  C   C903      1.0  0.69882  0.60444  0.66927  1.0000
  C   C904      1.0  0.68758  0.58214  0.66284  1.0000
  C   C905      1.0  0.69585  0.55638  0.65575  1.0000
  C   C906      1.0  0.71552  0.55265  0.65494  1.0000
  C   C907      1.0  0.72675  0.57499  0.66126  1.0000
  C   C908      1.0  0.71848  0.60071  0.66843  1.0000
  H   H1434     1.0  0.67237  0.58476  0.66341  1.0000
  H   H1435     1.0  0.68702  0.53944  0.65095  1.0000
  H   H1436     1.0  0.74197  0.57235  0.66079  1.0000
  H   H1437     1.0  0.72731  0.61760  0.67334  1.0000
  H   H1438     1.0  0.72901  0.49741  0.57542  1.0000
  S   S366      1.0  0.75762  0.81527  0.81723  1.0000
  C   C909      1.0  0.51833  0.77425  0.55851  1.0000
  Fe  Fe190     1.0  0.53678  0.94107  0.73261  1.0000
  H   H1439     1.0  0.75582  0.53633  0.55111  1.0000
  S   S367      1.0  0.75945  0.81977  0.88120  1.0000
  H   H1440     1.0  0.72944  0.72154  0.89044  1.0000
  H   H1441     1.0  0.74479  0.76972  0.70021  1.0000
  C   C910      1.0  0.75614  0.54928  0.59438  1.0000
  C   C911      1.0  0.54987  0.56949  0.68083  1.0000
  S   S368      1.0  0.56145  0.64950  0.66291  1.0000
  H   H1442     1.0  0.56823  0.50333  0.63478  1.0000
  H   H1443     1.0  0.61730  0.49242  0.65476  1.0000
  C   C912      1.0  0.74097  0.74102  0.77410  1.0000
  C   C913      1.0  0.73082  0.76652  0.77337  1.0000
  C   C914      1.0  0.73606  0.78901  0.78672  1.0000
  C   C915      1.0  0.75240  0.85555  0.53432  1.0000
  S   S369      1.0  0.56090  0.97050  0.72903  1.0000
  H   H1444     1.0  0.71885  0.76888  0.76265  1.0000
  H   H1445     1.0  0.64707  0.65905  0.70391  1.0000
  C   C916      1.0  0.61487  0.75875  0.64866  1.0000
  C   C917      1.0  0.63463  0.75833  0.64739  1.0000
  C   C918      1.0  0.64526  0.75658  0.66665  1.0000
  C   C919      1.0  0.63617  0.75521  0.68725  1.0000
  C   C920      1.0  0.61644  0.75750  0.68858  1.0000
  C   C921      1.0  0.60581  0.75909  0.66934  1.0000
  H   H1446     1.0  0.64170  0.75836  0.63144  1.0000
  H   H1447     1.0  0.66045  0.75589  0.66553  1.0000
  H   H1448     1.0  0.60933  0.75701  0.70451  1.0000
  H   H1449     1.0  0.59063  0.76055  0.67062  1.0000
  C   C922      1.0  0.61790  0.92339  0.67994  1.0000
  C   C923      1.0  0.60946  0.92616  0.65939  1.0000
  C   C924      1.0  0.62043  0.92279  0.63999  1.0000
  C   C925      1.0  0.64001  0.91774  0.64100  1.0000
  C   C926      1.0  0.64849  0.91533  0.66155  1.0000
  C   C927      1.0  0.63742  0.91776  0.68094  1.0000
  H   H1450     1.0  0.59450  0.93094  0.65840  1.0000
  H   H1451     1.0  0.61378  0.92472  0.62412  1.0000
  H   H1452     1.0  0.66356  0.91145  0.66260  1.0000
  H   H1453     1.0  0.64405  0.91569  0.69681  1.0000
  S   S370      1.0  0.52038  0.96176  0.70534  1.0000
  H   H1454     1.0  0.59358  0.56344  0.65672  1.0000
  H   H1455     1.0  0.57259  0.55247  0.64361  1.0000
  C   C928      1.0  0.76165  0.51989  0.56229  1.0000
  C   C929      1.0  0.72004  0.72640  0.83577  1.0000
  H   H1456     1.0  0.62049  0.52833  0.66169  1.0000
  C   C930      1.0  0.75142  0.78625  0.80098  1.0000
  H   H1457     1.0  0.62301  0.69840  0.70521  1.0000
  H   H1458     1.0  0.52684  0.80971  0.63158  1.0000
  H   H1459     1.0  0.72808  0.80866  0.78610  1.0000
  H   H1460     1.0  0.71890  0.77236  0.86082  1.0000
  H   H1461     1.0  0.75775  0.72607  0.83861  1.0000
  C   C931      1.0  0.61341  0.51431  0.65001  1.0000
  H   H1462     1.0  0.75445  0.50015  0.61547  1.0000
  S   S371      1.0  0.51758  0.77700  0.67041  1.0000
  H   H1463     1.0  0.64764  0.67046  0.65525  1.0000
  C   C932      1.0  0.53870  0.60739  0.64777  1.0000
  H   H1464     1.0  0.75167  0.83424  0.54020  1.0000
  N   N92       1.0  0.67284  0.82899  0.63465  1.0000
  C   C933      1.0  0.67288  0.83493  0.61074  1.0000
  C   C934      1.0  0.65320  0.82986  0.64332  1.0000
  C   C935      1.0  0.68376  0.85036  0.64594  1.0000
  C   C936      1.0  0.68160  0.80100  0.63856  1.0000
  H   H1465     1.0  0.68753  0.83483  0.60372  1.0000
  H   H1466     1.0  0.66632  0.85591  0.60721  1.0000
  H   H1467     1.0  0.66485  0.81915  0.60161  1.0000
  H   H1468     1.0  0.64647  0.85102  0.64106  1.0000
  H   H1469     1.0  0.64439  0.81453  0.63473  1.0000
  H   H1470     1.0  0.65266  0.82476  0.66123  1.0000
  H   H1471     1.0  0.68397  0.84682  0.66406  1.0000
  H   H1472     1.0  0.67779  0.87179  0.64300  1.0000
  H   H1473     1.0  0.69865  0.85008  0.63988  1.0000
  H   H1474     1.0  0.67351  0.78422  0.63074  1.0000
  H   H1475     1.0  0.68243  0.79619  0.65649  1.0000
  H   H1476     1.0  0.69630  0.79947  0.63172  1.0000
  H   H1477     1.0  0.62125  0.63676  0.65446  1.0000
  H   H1478     1.0  0.60316  0.63815  0.67574  1.0000
  C   C937      1.0  0.52082  0.98275  0.97676  1.0000
  H   H1479     1.0  0.74924  0.69456  0.85091  1.0000
  C   C938      1.0  0.58393  0.50035  0.63460  1.0000
  Fe  Fe191     1.0  0.53665  0.93164  0.68324  1.0000
  H   H1480     1.0  0.72492  0.51960  0.59899  1.0000
  H   H1481     1.0  0.56954  0.51592  0.67365  1.0000
  C   C939      1.0  0.73216  0.51814  0.58259  1.0000
  H   H1482     1.0  0.52918  0.86062  0.62565  1.0000
  C   C940      1.0  0.76408  0.63302  0.02033  1.0000
  H   H1483     1.0  0.62817  0.63467  0.70448  1.0000
  H   H1484     1.0  0.61959  0.51786  0.63328  1.0000
  H   H1485     1.0  0.60406  0.66518  0.65543  1.0000
  C   C941      1.0  0.75633  0.73824  0.78837  1.0000
  N   N93       1.0  0.58286  0.84510  0.66714  1.0000
  C   C942      1.0  0.60314  0.84422  0.67250  1.0000
  C   C943      1.0  0.57965  0.82705  0.64791  1.0000
  C   C944      1.0  0.57688  0.87419  0.66192  1.0000
  C   C945      1.0  0.57173  0.83509  0.68627  1.0000
  H   H1486     1.0  0.60592  0.85754  0.68709  1.0000
  H   H1487     1.0  0.61187  0.85219  0.65855  1.0000
  H   H1488     1.0  0.60821  0.82250  0.67631  1.0000
  H   H1489     1.0  0.56454  0.82777  0.64319  1.0000
  H   H1490     1.0  0.58814  0.83350  0.63326  1.0000
  H   H1491     1.0  0.58350  0.80480  0.65138  1.0000
  H   H1492     1.0  0.56157  0.87589  0.65839  1.0000
  H   H1493     1.0  0.58456  0.88217  0.64717  1.0000
  H   H1494     1.0  0.57947  0.88852  0.67590  1.0000
  H   H1495     1.0  0.55638  0.83540  0.68273  1.0000
  H   H1496     1.0  0.57360  0.84848  0.70101  1.0000
  H   H1497     1.0  0.57589  0.81319  0.69074  1.0000
  N   N94       1.0  0.59269  0.51917  0.65049  1.0000
  H   H1498     1.0  0.72679  0.73618  0.82107  1.0000
  H   H1499     1.0  0.52614  0.62559  0.97878  1.0000
  H   H1500     1.0  0.75956  0.97586  0.57901  1.0000
  H   H1501     1.0  0.76380  0.74642  0.70785  1.0000
  C   C946      1.0  0.73292  0.76135  0.85936  1.0000
  H   H1502     1.0  0.53432  0.62181  0.63496  1.0000
  H   H1503     1.0  0.52217  0.57358  0.63581  1.0000
  H   H1504     1.0  0.70550  0.73573  0.83740  1.0000
  C   C947      1.0  0.58814  0.54855  0.64446  1.0000
  S   S372      1.0  0.52397  0.93910  0.76737  1.0000
  C   C948      1.0  0.52301  0.87123  0.65951  1.0000
  H   H1505     1.0  0.75915  0.49919  0.55455  1.0000
  H   H1506     1.0  0.59102  0.52772  0.68530  1.0000
  C   C949      1.0  0.52461  0.82370  0.64528  1.0000
  C   C950      1.0  0.58520  0.51341  0.67288  1.0000
  H   H1507     1.0  0.53298  0.96833  0.98042  1.0000
  H   H1508     1.0  0.64757  0.69669  0.67623  1.0000
  H   H1509     1.0  0.60502  0.70044  0.68470  1.0000
  H   H1510     1.0  0.55403  0.55524  0.69382  1.0000
  N   N95       1.0  0.73106  0.73098  0.85582  1.0000
  C   C951      1.0  0.76083  0.49939  0.59859  1.0000
  H   H1511     1.0  0.74064  0.76554  0.87472  1.0000
  H   H1512     1.0  0.60434  0.67362  0.70529  1.0000
  H   H1513     1.0  0.63007  0.69851  0.65518  1.0000
  H   H1514     1.0  0.71881  0.70372  0.83216  1.0000
  H   H1515     1.0  0.75880  0.72123  0.86777  1.0000
  C   C952      1.0  0.63713  0.64754  0.69343  1.0000
  N   N96       1.0  0.62559  0.66700  0.67990  1.0000
  H   H1516     1.0  0.64598  0.63300  0.68295  1.0000
  H   H1517     1.0  0.71958  0.69573  0.87299  1.0000
  S   S373      1.0  0.52918  0.52612  0.66356  1.0000
  H   H1518     1.0  0.58883  0.49164  0.67817  1.0000
  H   H1519     1.0  0.74615  0.75678  0.72792  1.0000
  C   C953      1.0  0.75468  0.76437  0.71369  1.0000
  S   S374      1.0  0.69466  0.95971  0.59363  1.0000
  S   S375      1.0  0.52372  0.70774  0.63431  1.0000
  S   S376      1.0  0.52561  0.90722  0.65483  1.0000
  H   H1520     1.0  0.56668  0.60320  0.69251  1.0000
  H   H1521     1.0  0.63010  0.97675  0.66579  1.0000
  H   H1522     1.0  0.75485  0.69546  0.93625  1.0000
  H   H1523     1.0  0.76512  0.96384  0.87799  1.0000
  H   H1524     1.0  0.76097  0.98345  0.55027  1.0000
  H   H1525     1.0  0.76137  0.82994  0.73324  1.0000
  H   H1526     1.0  0.52995  0.77789  0.56935  1.0000
  S   S377      1.0  0.76134  0.74658  0.91230  1.0000
  H   H1527     1.0  0.74505  0.80460  0.74300  1.0000
  C   C954      1.0  0.52581  0.85262  0.64190  1.0000
  H   H1528     1.0  0.76432  0.71862  0.78898  1.0000
  H   H1529     1.0  0.63613  0.97731  0.62507  1.0000
  Fe  Fe192     1.0  0.70886  0.97811  0.62284  1.0000
  H   H1530     1.0  0.66088  0.97384  0.62995  1.0000
  H   H1531     1.0  0.52672  0.63736  0.01849  1.0000
  C   C955      1.0  0.52000  0.81319  0.66613  1.0000
  C   C956      1.0  0.51861  0.86081  0.68047  1.0000
  H   H1532     1.0  0.76654  0.80518  0.68684  1.0000
  S   S378      1.0  0.52150  0.71835  0.57086  1.0000
  C   C957      1.0  0.64319  0.98877  0.66764  1.0000
  N   N97       1.0  0.76595  0.78860  0.71980  1.0000
  C   C958      1.0  0.76682  0.69187  0.92517  1.0000
  H   H1533     1.0  0.52725  0.49099  0.85105  1.0000
  Fe  Fe193     1.0  0.96726  0.03182  0.47464  1.0000
  S   S379      1.0  0.98473  0.03966  0.44413  1.0000
  S   S380      1.0  0.98449  0.03265  0.50592  1.0000
  Fe  Fe194     1.0  0.93100  0.03307  0.44814  1.0000
  S   S381      1.0  0.94606  0.04147  0.41614  1.0000
  S   S382      1.0  0.89928  0.02980  0.44981  1.0000
  Fe  Fe195     1.0  0.96657  0.00835  0.42801  1.0000
  H   H1534     1.0  0.77003  0.07395  0.08230  1.0000
  Fe  Fe196     1.0  0.96252  0.07225  0.43539  1.0000
  S   S383      1.0  0.97349  0.11294  0.42087  1.0000
  H   H1535     1.0  0.89518  0.42730  0.41688  1.0000
  S   S384      1.0  0.94592  0.06632  0.46682  1.0000
  C   C959      1.0  0.01102  0.12319  0.45922  1.0000
  C   C960      1.0  0.77018  0.00560  0.29480  1.0000
  H   H1536     1.0  0.97563  0.10826  0.49558  1.0000
  H   H1537     1.0  0.99965  0.13820  0.51267  1.0000
  H   H1538     1.0  0.00953  0.46120  0.24558  1.0000
  Fe  Fe197     1.0  0.96793  0.30987  0.35731  1.0000
  S   S385      1.0  0.97911  0.29158  0.38910  1.0000
  S   S386      1.0  0.98662  0.30591  0.32638  1.0000
  Fe  Fe198     1.0  0.93159  0.33155  0.37976  1.0000
  S   S387      1.0  0.94013  0.31552  0.41274  1.0000
  S   S388      1.0  0.90422  0.35591  0.37492  1.0000
  Fe  Fe199     1.0  0.96842  0.33234  0.40375  1.0000
  S   S389      1.0  0.98386  0.35795  0.42845  1.0000
  Fe  Fe200     1.0  0.94965  0.27594  0.39517  1.0000
  S   S390      1.0  0.93790  0.23684  0.41203  1.0000
  S   S391      1.0  0.95919  0.35136  0.37188  1.0000
  S   S392      1.0  0.93918  0.29123  0.36225  1.0000
  Fe  Fe201     1.0  0.82073  0.35021  0.45232  1.0000
  S   S393      1.0  0.81416  0.33203  0.41965  1.0000
  S   S394      1.0  0.84909  0.36937  0.45759  1.0000
  C   C961      1.0  0.00329  0.37712  0.27906  1.0000
  Fe  Fe202     1.0  0.80152  0.29627  0.43829  1.0000
  Fe  Fe203     1.0  0.78620  0.35465  0.42438  1.0000
  C   C962      1.0  0.00573  0.32849  0.29098  1.0000
  S   S395      1.0  0.81012  0.31323  0.47118  1.0000
  S   S396      1.0  0.79359  0.37519  0.45612  1.0000
  Fe  Fe204     1.0  0.78607  0.03939  0.38618  1.0000
  S   S397      1.0  0.80203  0.02671  0.35543  1.0000
  H   H1539     1.0  0.01682  0.36960  0.33504  1.0000
  Fe  Fe205     1.0  0.78921  0.10276  0.37667  1.0000
  S   S398      1.0  0.80587  0.09388  0.34547  1.0000
  Fe  Fe206     1.0  0.78482  0.06062  0.33885  1.0000
  Fe  Fe207     1.0  0.82134  0.06087  0.36536  1.0000
  S   S399      1.0  0.85296  0.05234  0.36299  1.0000
  S   S400      1.0  0.80612  0.07205  0.39709  1.0000
  S   S401      1.0  0.76791  0.06157  0.30730  1.0000
  H   H1540     1.0  0.86040  0.43488  0.43329  1.0000
  C   C963      1.0  0.78368  0.46492  0.38924  1.0000
  H   H1541     1.0  0.77395  0.13024  0.10572  1.0000
  Fe  Fe208     1.0  0.78201  0.33672  0.47211  1.0000
  H   H1542     1.0  0.93040  0.39574  0.40013  1.0000
  N   N98       1.0  0.92259  0.43916  0.40511  1.0000
  C   C964      1.0  0.96877  0.26217  0.08166  1.0000
  H   H1543     1.0  0.94690  0.45220  0.38645  1.0000
  H   H1544     1.0  0.93070  0.43178  0.37124  1.0000
  C   C965      1.0  0.00581  0.14174  0.49591  1.0000
  H   H1545     1.0  0.97858  0.27298  0.13559  1.0000
  H   H1546     1.0  0.98554  0.29347  0.11220  1.0000
  C   C966      1.0  0.88928  0.36093  0.39808  1.0000
  C   C967      1.0  0.89633  0.36048  0.41945  1.0000
  C   C968      1.0  0.88397  0.36400  0.43765  1.0000
  C   C969      1.0  0.86448  0.36733  0.43457  1.0000
  C   C970      1.0  0.85752  0.36850  0.41318  1.0000
  C   C971      1.0  0.86992  0.36571  0.39500  1.0000
  H   H1547     1.0  0.91127  0.35729  0.42201  1.0000
  H   H1548     1.0  0.88945  0.36327  0.45417  1.0000
  H   H1549     1.0  0.84257  0.37153  0.41054  1.0000
  H   H1550     1.0  0.86442  0.36642  0.37848  1.0000
  S   S402      1.0  0.81353  0.25253  0.42920  1.0000
  C   C972      1.0  0.98974  0.38210  0.29596  1.0000
  C   C973      1.0  0.98409  0.36039  0.31017  1.0000
  C   C974      1.0  0.99222  0.33350  0.30791  1.0000
  H   H1551     1.0  0.78868  0.47896  0.37665  1.0000
  H   H1552     1.0  0.98348  0.40286  0.29798  1.0000
  H   H1553     1.0  0.97352  0.36453  0.32291  1.0000
  H   H1554     1.0  0.81444  0.15562  0.40188  1.0000
  H   H1555     1.0  0.86136  0.47092  0.44198  1.0000
  H   H1556     1.0  0.97489  0.13218  0.47250  1.0000
  H   H1557     1.0  0.98418  0.19006  0.03127  1.0000
  H   H1558     1.0  0.01175  0.38989  0.35942  1.0000
  H   H1559     1.0  0.82058  0.47100  0.40437  1.0000
  C   C975      1.0  0.00490  0.26351  0.03767  1.0000
  H   H1560     1.0  0.00970  0.07353  0.48020  1.0000
  C   C976      1.0  0.77018  0.11136  0.11543  1.0000
  C   C977      1.0  0.99028  0.25975  0.02270  1.0000
  H   H1561     1.0  0.98183  0.40550  0.45755  1.0000
  H   H1562     1.0  0.85227  0.44466  0.46029  1.0000
  C   C978      1.0  0.99261  0.23913  0.10360  1.0000
  H   H1563     1.0  0.94546  0.24479  0.11424  1.0000
  H   H1564     1.0  0.77552  0.39403  0.50541  1.0000
  C   C979      1.0  0.86518  0.04344  0.38715  1.0000
  C   C980      1.0  0.88432  0.03511  0.38556  1.0000
  C   C981      1.0  0.89487  0.03029  0.40466  1.0000
  C   C982      1.0  0.88631  0.03377  0.42547  1.0000
  C   C983      1.0  0.86700  0.04091  0.42703  1.0000
  C   C984      1.0  0.85650  0.04583  0.40795  1.0000
  H   H1565     1.0  0.92516  0.40521  0.42829  1.0000
  H   H1566     1.0  0.90957  0.02392  0.40327  1.0000
  H   H1567     1.0  0.86027  0.04349  0.44307  1.0000
  H   H1568     1.0  0.84182  0.05219  0.40945  1.0000
  C   C985      1.0  0.96375  0.14761  0.41957  1.0000
  C   C986      1.0  0.94752  0.15604  0.43157  1.0000
  C   C987      1.0  0.93993  0.18350  0.42921  1.0000
  C   C988      1.0  0.94862  0.20298  0.41515  1.0000
  C   C989      1.0  0.96509  0.19470  0.40358  1.0000
  C   C990      1.0  0.97258  0.16719  0.40579  1.0000
  H   H1569     1.0  0.94079  0.14151  0.44266  1.0000
  H   H1570     1.0  0.92728  0.18977  0.43840  1.0000
  H   H1571     1.0  0.97192  0.20939  0.39268  1.0000
  H   H1572     1.0  0.98518  0.16097  0.39647  1.0000
  C   C991      1.0  0.98173  0.45232  0.41512  1.0000
  C   C992      1.0  0.98113  0.44220  0.43675  1.0000
  C   C993      1.0  0.98224  0.41321  0.44078  1.0000
  C   C994      1.0  0.98347  0.39422  0.42320  1.0000
  C   C995      1.0  0.98424  0.40440  0.40160  1.0000
  C   C996      1.0  0.98362  0.43333  0.39759  1.0000
  C   C997      1.0  0.83484  0.46619  0.41105  1.0000
  C   C998      1.0  0.80603  0.17473  0.40374  1.0000
  H   H1573     1.0  0.98544  0.39004  0.38798  1.0000
  H   H1574     1.0  0.98427  0.44106  0.38084  1.0000
  C   C999      1.0  0.93166  0.44809  0.38422  1.0000
  C   C1000     1.0  0.95976  0.23454  0.11336  1.0000
  C   C1001     1.0  0.78365  0.43601  0.38515  1.0000
  H   H1575     1.0  0.94688  0.41521  0.41560  1.0000
  H   H1576     1.0  0.77591  0.24363  0.41104  1.0000
  N   N99       1.0  0.86985  0.27406  0.41969  1.0000
  C   C1002     1.0  0.85858  0.28600  0.40151  1.0000
  C   C1003     1.0  0.86790  0.24338  0.42025  1.0000
  C   C1004     1.0  0.86288  0.28617  0.44082  1.0000
  C   C1005     1.0  0.88997  0.28064  0.41617  1.0000
  H   H1577     1.0  0.84334  0.28115  0.40358  1.0000
  H   H1578     1.0  0.86352  0.27765  0.38526  1.0000
  H   H1579     1.0  0.85950  0.30916  0.40083  1.0000
  H   H1580     1.0  0.87625  0.23371  0.43377  1.0000
  H   H1581     1.0  0.85289  0.23770  0.42298  1.0000
  H   H1582     1.0  0.87287  0.23360  0.40449  1.0000
  H   H1583     1.0  0.87102  0.27774  0.45497  1.0000
  H   H1584     1.0  0.84771  0.28155  0.44392  1.0000
  H   H1585     1.0  0.86399  0.30932  0.44096  1.0000
  H   H1586     1.0  0.89196  0.30359  0.41553  1.0000
  H   H1587     1.0  0.89572  0.27178  0.40039  1.0000
  H   H1588     1.0  0.89895  0.27201  0.42957  1.0000
  H   H1589     1.0  0.00750  0.34122  0.39111  1.0000
  C   C1006     1.0  0.77455  0.13470  0.29866  1.0000
  H   H1590     1.0  0.90021  0.41887  0.38857  1.0000
  C   C1007     1.0  0.92488  0.46098  0.42199  1.0000
  N   N100      1.0  0.00280  0.11764  0.48132  1.0000
  C   C1008     1.0  0.81370  0.19837  0.41377  1.0000
  H   H1591     1.0  0.99707  0.23274  0.12038  1.0000
  S   S403      1.0  0.01559  0.17165  0.12481  1.0000
  S   S404      1.0  0.01431  0.18470  0.06193  1.0000
  S   S405      1.0  0.01174  0.23886  0.16324  1.0000
  C   C1009     1.0  0.99006  0.21056  0.03302  1.0000
  C   C1010     1.0  0.97475  0.27873  0.11840  1.0000
  C   C1011     1.0  0.77672  0.20095  0.39895  1.0000
  H   H1592     1.0  0.76733  0.11823  0.13275  1.0000
  C   C1012     1.0  0.00490  0.21421  0.04771  1.0000
  C   C1013     1.0  0.77707  0.41750  0.40129  1.0000
  C   C1014     1.0  0.78438  0.22457  0.40902  1.0000
  N   N101      1.0  0.91165  0.11372  0.39073  1.0000
  C   C1015     1.0  0.92076  0.09277  0.37581  1.0000
  C   C1016     1.0  0.91549  0.10586  0.41381  1.0000
  C   C1017     1.0  0.89101  0.11469  0.38734  1.0000
  C   C1018     1.0  0.91940  0.14153  0.38595  1.0000
  H   H1593     1.0  0.91539  0.07151  0.37905  1.0000
  H   H1594     1.0  0.93636  0.09164  0.37794  1.0000
  H   H1595     1.0  0.91805  0.09786  0.35823  1.0000
  H   H1596     1.0  0.90922  0.12152  0.42557  1.0000
  H   H1597     1.0  0.90948  0.08523  0.41813  1.0000
  H   H1598     1.0  0.93094  0.10426  0.41678  1.0000
  H   H1599     1.0  0.88753  0.11975  0.36995  1.0000
  H   H1600     1.0  0.88375  0.13066  0.39807  1.0000
  H   H1601     1.0  0.88464  0.09423  0.39127  1.0000
  H   H1602     1.0  0.91339  0.15783  0.39734  1.0000
  H   H1603     1.0  0.91635  0.14842  0.36883  1.0000
  H   H1604     1.0  0.93503  0.14131  0.38771  1.0000
  S   S406      1.0  0.77701  0.14683  0.38335  1.0000
  H   H1605     1.0  0.89105  0.03286  0.36949  1.0000
  C   C1019     1.0  0.01357  0.27526  0.15980  1.0000
  S   S407      1.0  0.95062  0.99793  0.45906  1.0000
  H   H1606     1.0  0.96346  0.22763  0.13034  1.0000
  H   H1607     1.0  0.00367  0.25275  0.09654  1.0000
  H   H1608     1.0  0.82178  0.42336  0.45313  1.0000
  H   H1609     1.0  0.77640  0.44024  0.33208  1.0000
  C   C1020     1.0  0.82286  0.43105  0.43584  1.0000
  H   H1610     1.0  0.89492  0.45458  0.39635  1.0000
  H   H1611     1.0  0.84165  0.44970  0.40042  1.0000
  C   C1021     1.0  0.93163  0.41265  0.41258  1.0000
  S   S408      1.0  0.77678  0.38142  0.39565  1.0000
  H   H1612     1.0  0.96094  0.29040  0.11921  1.0000
  N   N102      1.0  0.83358  0.45706  0.43430  1.0000
  H   H1613     1.0  0.99247  0.21980  0.09344  1.0000
  H   H1614     1.0  0.00408  0.14183  0.45140  1.0000
  C   C1022     1.0  0.80294  0.22342  0.41654  1.0000
  H   H1615     1.0  0.97977  0.09576  0.46806  1.0000
  N   N103      1.0  0.97394  0.25368  0.10424  1.0000
  C   C1023     1.0  0.98234  0.11337  0.47937  1.0000
  H   H1616     1.0  0.82803  0.19714  0.41959  1.0000
  H   H1617     1.0  0.00667  0.33570  0.18903  1.0000
  H   H1618     1.0  0.97912  0.27689  0.07444  1.0000
  S   S409      1.0  0.77460  0.00777  0.41026  1.0000
  H   H1619     1.0  0.78160  0.14849  0.28645  1.0000
  H   H1620     1.0  0.78555  0.12020  0.30552  1.0000
  H   H1621     1.0  0.92495  0.46778  0.37789  1.0000
  H   H1622     1.0  0.82259  0.47306  0.46518  1.0000
  C   C1024     1.0  0.77061  0.42805  0.42163  1.0000
  H   H1623     1.0  0.84314  0.48552  0.40922  1.0000
  H   H1624     1.0  0.78894  0.42795  0.36953  1.0000
  C   C1025     1.0  0.85278  0.45175  0.44280  1.0000
  H   H1625     1.0  0.99878  0.35893  0.35408  1.0000
  C   C1026     1.0  0.90229  0.43486  0.40159  1.0000
  H   H1626     1.0  0.95461  0.27286  0.08137  1.0000
  H   H1627     1.0  0.98007  0.45667  0.45040  1.0000
  H   H1628     1.0  0.94010  0.46482  0.42474  1.0000
  S   S410      1.0  0.77255  0.31735  0.44023  1.0000
  H   H1629     1.0  0.82968  0.41392  0.42593  1.0000
  C   C1027     1.0  0.78744  0.17587  0.39630  1.0000
  H   H1630     1.0  0.95886  0.21537  0.10308  1.0000
  C   C1028     1.0  0.77749  0.47545  0.40970  1.0000
  H   H1631     1.0  0.78957  0.15445  0.33574  1.0000
  H   H1632     1.0  0.96849  0.24380  0.07043  1.0000
  C   C1029     1.0  0.01708  0.48128  0.24491  1.0000
  C   C1030     1.0  0.00886  0.29303  0.17750  1.0000
  C   C1031     1.0  0.01222  0.24087  0.05008  1.0000
  H   H1633     1.0  0.01082  0.28399  0.03941  1.0000
  H   H1634     1.0  0.78098  0.00282  0.30702  1.0000
  S   S411      1.0  0.01032  0.40554  0.26215  1.0000
  C   C1032     1.0  0.01033  0.32213  0.17527  1.0000
  C   C1033     1.0  0.82376  0.47916  0.44753  1.0000
  C   C1034     1.0  0.77844  0.16796  0.32804  1.0000
  H   H1635     1.0  0.00419  0.28428  0.19307  1.0000
  H   H1636     1.0  0.01203  0.30774  0.28901  1.0000
  H   H1637     1.0  0.91847  0.45494  0.43813  1.0000
  H   H1638     1.0  0.00743  0.03520  0.13285  1.0000
  H   H1639     1.0  0.80829  0.43422  0.42972  1.0000
  H   H1640     1.0  0.78275  0.09684  0.11548  1.0000
  C   C1035     1.0  0.01119  0.35012  0.27656  1.0000
  H   H1641     1.0  0.00905  0.10526  0.44785  1.0000
  H   H1642     1.0  0.83213  0.99868  0.42822  1.0000
  H   H1643     1.0  0.78559  0.18289  0.31681  1.0000
  H   H1644     1.0  0.99910  0.16127  0.48926  1.0000
  H   H1645     1.0  0.91815  0.48130  0.41704  1.0000
  H   H1646     1.0  0.77218  0.42308  0.30637  1.0000
  H   H1647     1.0  0.99011  0.47766  0.21428  1.0000
  C   C1036     1.0  0.01189  0.09218  0.49071  1.0000
  H   H1648     1.0  0.01408  0.31177  0.35898  1.0000
  H   H1649     1.0  0.77149  0.18026  0.34167  1.0000
  S   S412      1.0  0.01588  0.42673  0.20128  1.0000
  H   H1650     1.0  0.00586  0.08721  0.50732  1.0000
  H   H1651     1.0  0.80914  0.48339  0.44163  1.0000
  C   C1037     1.0  0.01300  0.36817  0.35288  1.0000
  C   C1038     1.0  0.77091  0.45692  0.42584  1.0000
  C   C1039     1.0  0.01589  0.33365  0.15506  1.0000
  S   S413      1.0  0.76742  0.07088  0.36916  1.0000
  S   S414      1.0  0.97950  0.48836  0.40926  1.0000
  H   H1652     1.0  0.89615  0.33846  0.94249  1.0000
  N   N104      1.0  0.87628  0.34462  0.91635  1.0000
  Fe  Fe209     1.0  0.92792  0.27074  0.95391  1.0000
  S   S415      1.0  0.93891  0.28170  0.92047  1.0000
  S   S416      1.0  0.89829  0.25537  0.95825  1.0000
  Fe  Fe210     1.0  0.96463  0.28567  0.97584  1.0000
  S   S417      1.0  0.97812  0.29841  0.94341  1.0000
  H   H1653     1.0  0.85580  0.37875  0.91798  1.0000
  Fe  Fe211     1.0  0.95018  0.32014  0.93622  1.0000
  S   S418      1.0  0.94160  0.35864  0.91585  1.0000
  Fe  Fe212     1.0  0.96537  0.25918  0.93083  1.0000
  S   S419      1.0  0.98018  0.23029  0.90636  1.0000
  S   S420      1.0  0.93750  0.31036  0.96952  1.0000
  S   S421      1.0  0.95362  0.24528  0.96343  1.0000
  Fe  Fe213     1.0  0.96053  0.07513  0.89485  1.0000
  S   S422      1.0  0.94820  0.09752  0.86575  1.0000
  S   S423      1.0  0.97175  0.10018  0.92287  1.0000
  Fe  Fe214     1.0  0.94964  0.01696  0.87914  1.0000
  S   S424      1.0  0.93591  0.03603  0.84927  1.0000
  H   H1654     1.0  0.98837  0.07057  0.73548  1.0000
  Fe  Fe215     1.0  0.96167  0.06222  0.84594  1.0000
  S   S425      1.0  0.97824  0.05999  0.81335  1.0000
  Fe  Fe216     1.0  0.92384  0.06915  0.87200  1.0000
  S   S426      1.0  0.89363  0.08628  0.87029  1.0000
  S   S427      1.0  0.97596  0.04182  0.87489  1.0000
  S   S428      1.0  0.93551  0.04834  0.90210  1.0000
  C   C1040     1.0  0.77048  0.21357  0.93907  1.0000
  H   H1655     1.0  0.82743  0.14351  0.92239  1.0000
  C   C1041     1.0  0.97851  0.12385  0.72583  1.0000
  Fe  Fe217     1.0  0.82111  0.28013  0.87563  1.0000
  S   S429      1.0  0.81354  0.30258  0.90688  1.0000
  S   S430      1.0  0.84770  0.25282  0.87345  1.0000
  Fe  Fe218     1.0  0.78647  0.30437  0.85173  1.0000
  H   H1656     1.0  0.98161  0.28976  0.89307  1.0000
  C   C1042     1.0  0.78882  0.41302  0.90513  1.0000
  C   C1043     1.0  0.80967  0.46017  0.91547  1.0000
  S   S431      1.0  0.81649  0.31822  0.85455  1.0000
  S   S432      1.0  0.79210  0.26413  0.86998  1.0000
  Fe  Fe219     1.0  0.80673  0.07936  0.95001  1.0000
  S   S433      1.0  0.79391  0.07620  0.91690  1.0000
  S   S434      1.0  0.83839  0.07982  0.95353  1.0000
  H   H1657     1.0  0.97133  0.23008  0.00938  1.0000
  H   H1658     1.0  0.82893  0.99502  0.93834  1.0000
  C   C1044     1.0  0.77959  0.43815  0.91193  1.0000
  H   H1659     1.0  0.98055  0.33947  0.90515  1.0000
  S   S435      1.0  0.78956  0.04495  0.96497  1.0000
  S   S436      1.0  0.78716  0.11435  0.96183  1.0000
  C   C1045     1.0  0.00283  0.18501  0.97986  1.0000
  H   H1660     1.0  0.87354  0.31250  0.89187  1.0000
  H   H1661     1.0  0.82502  0.17824  0.93353  1.0000
  H   H1662     1.0  0.77656  0.31299  0.61372  1.0000
  H   H1663     1.0  0.98608  0.16059  0.79853  1.0000
  H   H1664     1.0  0.79929  0.15554  0.88449  1.0000
  C   C1046     1.0  0.84345  0.17847  0.89379  1.0000
  H   H1665     1.0  0.00427  0.06369  0.77667  1.0000
  S   S437      1.0  0.01153  0.17936  0.69739  1.0000
  C   C1047     1.0  0.86379  0.36424  0.92905  1.0000
  C   C1048     1.0  0.87831  0.08369  0.89340  1.0000
  C   C1049     1.0  0.88503  0.07565  0.91402  1.0000
  C   C1050     1.0  0.87265  0.07481  0.93233  1.0000
  C   C1051     1.0  0.85338  0.08145  0.93011  1.0000
  C   C1052     1.0  0.84657  0.08928  0.90944  1.0000
  C   C1053     1.0  0.85904  0.09063  0.89119  1.0000
  H   H1666     1.0  0.89978  0.07026  0.91601  1.0000
  H   H1667     1.0  0.87802  0.06873  0.94827  1.0000
  H   H1668     1.0  0.83177  0.09452  0.90755  1.0000
  H   H1669     1.0  0.85375  0.09687  0.87525  1.0000
  C   C1054     1.0  0.98774  0.08928  0.79949  1.0000
  H   H1670     1.0  0.99077  0.31930  0.83735  1.0000
  C   C1055     1.0  0.85130  0.00544  0.90285  1.0000
  H   H1671     1.0  0.00734  0.08656  0.72061  1.0000
  C   C1056     1.0  0.88691  0.32626  0.93167  1.0000
  C   C1057     1.0  0.98283  0.11672  0.80568  1.0000
  H   H1672     1.0  0.81778  0.47827  0.91940  1.0000
  H   H1673     1.0  0.82586  0.03077  0.92980  1.0000
  H   H1674     1.0  0.97326  0.12047  0.81952  1.0000
  C   C1058     1.0  0.88446  0.25322  0.93458  1.0000
  C   C1059     1.0  0.86476  0.25572  0.93678  1.0000
  C   C1060     1.0  0.85340  0.25557  0.91811  1.0000
  C   C1061     1.0  0.86164  0.25241  0.89713  1.0000
  C   C1062     1.0  0.88129  0.24866  0.89498  1.0000
  C   C1063     1.0  0.89270  0.24937  0.91364  1.0000
  H   H1675     1.0  0.85828  0.25840  0.95296  1.0000
  H   H1676     1.0  0.83825  0.25781  0.92005  1.0000
  H   H1677     1.0  0.88772  0.24587  0.87879  1.0000
  H   H1678     1.0  0.90783  0.24673  0.91179  1.0000
  C   C1064     1.0  0.97751  0.19412  0.91081  1.0000
  C   C1065     1.0  0.98078  0.17521  0.89343  1.0000
  C   C1066     1.0  0.97884  0.14630  0.89683  1.0000
  C   C1067     1.0  0.97415  0.13615  0.91781  1.0000
  C   C1068     1.0  0.97119  0.15501  0.93522  1.0000
  C   C1069     1.0  0.97260  0.18387  0.93166  1.0000
  H   H1679     1.0  0.98473  0.18289  0.87725  1.0000
  H   H1680     1.0  0.98138  0.13184  0.88334  1.0000
  H   H1681     1.0  0.96759  0.14724  0.95148  1.0000
  H   H1682     1.0  0.97033  0.19804  0.94522  1.0000
  C   C1070     1.0  0.95276  0.39134  0.91386  1.0000
  C   C1071     1.0  0.96799  0.39796  0.92700  1.0000
  C   C1072     1.0  0.97626  0.42433  0.92498  1.0000
  C   C1073     1.0  0.96945  0.44437  0.90985  1.0000
  C   C1074     1.0  0.95441  0.43753  0.89645  1.0000
  C   C1075     1.0  0.94607  0.41121  0.89853  1.0000
  H   H1683     1.0  0.97329  0.38293  0.93889  1.0000
  H   H1684     1.0  0.98789  0.42942  0.93543  1.0000
  H   H1685     1.0  0.94919  0.45256  0.88450  1.0000
  H   H1686     1.0  0.93439  0.40623  0.88814  1.0000
  H   H1687     1.0  0.92795  0.44157  0.94179  1.0000
  H   H1688     1.0  0.82454  0.04238  0.88981  1.0000
  S   S438      1.0  0.77078  0.31113  0.81954  1.0000
  H   H1689     1.0  0.00015  0.16614  0.96979  1.0000
  H   H1690     1.0  0.79824  0.20312  0.89991  1.0000
  Fe  Fe220     1.0  0.80672  0.33986  0.88576  1.0000
  S   S439      1.0  0.82075  0.38077  0.89370  1.0000
  H   H1691     1.0  0.81686  0.16595  0.86470  1.0000
  H   H1692     1.0  0.87194  0.37720  0.94048  1.0000
  C   C1076     1.0  0.80852  0.41150  0.90314  1.0000
  S   S440      1.0  0.77633  0.32868  0.88182  1.0000
  H   H1693     1.0  0.96865  0.14071  0.72001  1.0000
  C   C1077     1.0  0.81889  0.43517  0.90834  1.0000
  C   C1078     1.0  0.81479  0.15757  0.88167  1.0000
  H   H1694     1.0  0.78337  0.33279  0.57647  1.0000
  H   H1695     1.0  0.85088  0.15765  0.89417  1.0000
  C   C1079     1.0  0.01626  0.20832  0.94819  1.0000
  H   H1696     1.0  0.89869  0.37384  0.91304  1.0000
  N   N105      1.0  0.91366  0.15668  0.91352  1.0000
  C   C1080     1.0  0.91552  0.17454  0.93318  1.0000
  C   C1081     1.0  0.92558  0.16743  0.89532  1.0000
  C   C1082     1.0  0.89374  0.15701  0.90670  1.0000
  C   C1083     1.0  0.91982  0.12767  0.91880  1.0000
  H   H1697     1.0  0.90678  0.16699  0.94728  1.0000
  H   H1698     1.0  0.91097  0.19662  0.92986  1.0000
  H   H1699     1.0  0.93043  0.17481  0.93865  1.0000
  H   H1700     1.0  0.94069  0.16742  0.89990  1.0000
  H   H1701     1.0  0.92464  0.15428  0.88026  1.0000
  H   H1702     1.0  0.92137  0.18929  0.89085  1.0000
  H   H1703     1.0  0.88858  0.17865  0.90279  1.0000
  H   H1704     1.0  0.88440  0.14848  0.91990  1.0000
  H   H1705     1.0  0.89199  0.14388  0.89174  1.0000
  H   H1706     1.0  0.91101  0.11867  0.93226  1.0000
  H   H1707     1.0  0.93472  0.12659  0.92423  1.0000
  H   H1708     1.0  0.91889  0.11373  0.90422  1.0000
  H   H1709     1.0  0.98779  0.09203  0.67663  1.0000
  H   H1710     1.0  0.77711  0.99926  0.56880  1.0000
  H   H1711     1.0  0.85474  0.02748  0.90662  1.0000
  H   H1712     1.0  0.81600  0.21375  0.88051  1.0000
  C   C1084     1.0  0.00248  0.13502  0.77560  1.0000
  H   H1713     1.0  0.82708  0.01493  0.86970  1.0000
  H   H1714     1.0  0.99378  0.39505  0.55671  1.0000
  H   H1715     1.0  0.80727  0.00671  0.92606  1.0000
  S   S441      1.0  0.76888  0.26929  0.92859  1.0000
  H   H1716     1.0  0.95905  0.31369  0.85376  1.0000
  C   C1085     1.0  0.99012  0.13943  0.79374  1.0000
  H   H1717     1.0  0.85457  0.31486  0.91179  1.0000
  H   H1718     1.0  0.89947  0.34636  0.89307  1.0000
  H   H1719     1.0  0.97373  0.11745  0.74263  1.0000
  H   H1720     1.0  0.80468  0.16074  0.92390  1.0000
  C   C1086     1.0  0.81993  0.16413  0.92050  1.0000
  H   H1721     1.0  0.78961  0.36083  0.83686  1.0000
  C   C1087     1.0  0.00271  0.00764  0.54075  1.0000
  Fe  Fe221     1.0  0.78418  0.28923  0.90014  1.0000
  H   H1722     1.0  0.77949  0.40568  0.80361  1.0000
  Fe  Fe222     1.0  0.77528  0.04403  0.93219  1.0000
  H   H1723     1.0  0.80609  0.01781  0.88669  1.0000
  H   H1724     1.0  0.83413  0.43425  0.90682  1.0000
  C   C1088     1.0  0.93268  0.46084  0.95006  1.0000
  H   H1725     1.0  0.82132  0.13613  0.88220  1.0000
  H   H1726     1.0  0.94810  0.46245  0.94646  1.0000
  C   C1089     1.0  0.86467  0.32741  0.90196  1.0000
  H   H1727     1.0  0.97672  0.12586  0.68159  1.0000
  H   H1728     1.0  0.99256  0.13338  0.72754  1.0000
  N   N106      1.0  0.98356  0.32545  0.87161  1.0000
  H   H1729     1.0  0.81928  0.21860  0.90942  1.0000
  H   H1730     1.0  0.89620  0.31083  0.92262  1.0000
  H   H1731     1.0  0.85000  0.19221  0.90613  1.0000
  N   N107      1.0  0.97960  0.09990  0.71048  1.0000
  H   H1732     1.0  0.00494  0.17784  0.99713  1.0000
  H   H1733     1.0  0.77363  0.16957  0.94619  1.0000
  C   C1090     1.0  0.92407  0.48827  0.91819  1.0000
  H   H1734     1.0  0.88218  0.37454  0.89084  1.0000
  H   H1735     1.0  0.98986  0.35522  0.84611  1.0000
  H   H1736     1.0  0.98417  0.36682  0.88552  1.0000
  S   S442      1.0  0.01049  0.16448  0.76064  1.0000
  H   H1737     1.0  0.87725  0.31418  0.94253  1.0000
  C   C1091     1.0  0.88972  0.36058  0.90270  1.0000
  C   C1092     1.0  0.78972  0.38311  0.84214  1.0000
  H   H1738     1.0  0.89563  0.46521  0.94118  1.0000
  H   H1739     1.0  0.93096  0.45787  0.96816  1.0000
  C   C1093     1.0  0.99385  0.33350  0.85127  1.0000
  H   H1740     1.0  0.77972  0.37404  0.62845  1.0000
  H   H1741     1.0  0.98981  0.19860  0.97974  1.0000
  C   C1094     1.0  0.00604  0.00011  0.82863  1.0000
  H   H1742     1.0  0.00050  0.11890  0.68981  1.0000
  H   H1743     1.0  0.00359  0.34397  0.89308  1.0000
  H   H1744     1.0  0.84619  0.18800  0.87730  1.0000
  N   N108      1.0  0.82298  0.17603  0.89826  1.0000
  C   C1095     1.0  0.81372  0.20407  0.89700  1.0000
  C   C1096     1.0  0.00769  0.10758  0.76965  1.0000
  C   C1097     1.0  0.78994  0.46184  0.91719  1.0000
  H   H1745     1.0  0.77535  0.42925  0.86202  1.0000
  C   C1098     1.0  0.98955  0.00419  0.52398  1.0000
  H   H1746     1.0  0.95487  0.32007  0.88254  1.0000
  C   C1099     1.0  0.76802  0.39598  0.81350  1.0000
  S   S443      1.0  0.76927  0.00905  0.90819  1.0000
  C   C1100     1.0  0.78235  0.36835  0.61084  1.0000
  C   C1101     1.0  0.96071  0.08797  0.70843  1.0000
  C   C1102     1.0  0.99292  0.07824  0.71895  1.0000
  H   H1747     1.0  0.80180  0.39297  0.83346  1.0000
  H   H1748     1.0  0.85614  0.34064  0.89048  1.0000
  N   N109      1.0  0.83066  0.00156  0.90325  1.0000
  H   H1749     1.0  0.79571  0.35553  0.60986  1.0000
  H   H1750     1.0  0.95808  0.34899  0.86422  1.0000
  H   H1751     1.0  0.78465  0.38811  0.60155  1.0000
  C   C1103     1.0  0.76950  0.18500  0.93409  1.0000
  H   H1752     1.0  0.01401  0.18979  0.93755  1.0000
  H   H1753     1.0  0.77528  0.22009  0.95502  1.0000
  C   C1104     1.0  0.98636  0.10955  0.68867  1.0000
  H   H1754     1.0  0.85309  0.35289  0.93904  1.0000
  C   C1105     1.0  0.00022  0.08483  0.78144  1.0000
  S   S444      1.0  0.98203  0.28867  0.00689  1.0000
  H   H1755     1.0  0.00526  0.00896  0.81166  1.0000
  C   C1106     1.0  0.98821  0.34474  0.88960  1.0000
  H   H1756     1.0  0.79270  0.38342  0.86005  1.0000
  H   H1757     1.0  0.96905  0.00244  0.83851  1.0000
  H   H1758     1.0  0.99921  0.35419  0.58182  1.0000
  H   H1759     1.0  0.78402  0.43818  0.83509  1.0000
  H   H1760     1.0  0.00199  0.01753  0.84007  1.0000
  H   H1761     1.0  0.96114  0.06984  0.69691  1.0000
  C   C1107     1.0  0.82173  0.01999  0.88661  1.0000
  C   C1108     1.0  0.98914  0.29648  0.87779  1.0000
  H   H1762     1.0  0.98573  0.28124  0.86470  1.0000
  S   S445      1.0  0.97953  0.47797  0.90929  1.0000
  H   H1763     1.0  0.78068  0.39488  0.90149  1.0000
  C   C1109     1.0  0.00769  0.47595  0.55850  1.0000
  H   H1764     1.0  0.95525  0.08051  0.72466  1.0000
  H   H1765     1.0  0.00356  0.22246  0.94671  1.0000
  C   C1110     1.0  0.77251  0.42734  0.84410  1.0000
  H   H1766     1.0  0.91850  0.46967  0.90978  1.0000
  C   C1111     1.0  0.98278  0.23318  0.02057  1.0000
  H   H1767     1.0  0.01713  0.37288  0.59567  1.0000
  H   H1768     1.0  0.85768  0.00040  0.88638  1.0000
  H   H1769     1.0  0.99419  0.05988  0.70769  1.0000
  C   C1112     1.0  0.82287  0.00881  0.92532  1.0000
  H   H1770     1.0  0.95034  0.10377  0.70203  1.0000
  C   C1113     1.0  0.96300  0.32713  0.86779  1.0000
  H   H1771     1.0  0.01164  0.41362  0.57078  1.0000
  H   H1772     1.0  0.00914  0.02769  0.54282  1.0000
  H   H1773     1.0  0.00455  0.29429  0.88086  1.0000
  H   H1774     1.0  0.85846  0.99192  0.91526  1.0000
  N   N110      1.0  0.77159  0.39771  0.83737  1.0000
  C   C1114     1.0  0.77030  0.34607  0.57853  1.0000
  H   H1775     1.0  0.00839  0.46938  0.57553  1.0000
  H   H1776     1.0  0.00146  0.34793  0.54112  1.0000
  H   H1777     1.0  0.97231  0.99397  0.81008  1.0000
  C   C1115     1.0  0.00921  0.39859  0.55722  1.0000
  H   H1778     1.0  0.77026  0.25036  0.82572  1.0000
  Fe  Fe223     1.0  0.77281  0.10808  0.92969  1.0000
  H   H1779     1.0  0.00962  0.24015  0.98381  1.0000
  C   C1116     1.0  0.01448  0.35900  0.58142  1.0000
  Fe  Fe224     1.0  0.76864  0.07998  0.97410  1.0000
  H   H1780     1.0  0.89979  0.48276  0.96677  1.0000
  H   H1781     1.0  0.01341  0.40926  0.54161  1.0000
  H   H1782     1.0  0.00942  0.33262  0.85360  1.0000
  H   H1783     1.0  0.77213  0.36524  0.56832  1.0000
  C   C1117     1.0  0.01668  0.35292  0.54195  1.0000
  N   N111      1.0  0.92211  0.48603  0.94240  1.0000
  C   C1118     1.0  0.90191  0.48396  0.94859  1.0000
  H   H1784     1.0  0.76730  0.04660  0.55540  1.0000
  Fe  Fe225     1.0  0.96411  0.53039  0.48494  1.0000
  S   S446      1.0  0.98355  0.54629  0.45825  1.0000
  H   H1785     1.0  0.79534  0.59326  0.07895  1.0000
  Fe  Fe226     1.0  0.92969  0.53345  0.45467  1.0000
  S   S447      1.0  0.94649  0.54974  0.42600  1.0000
  S   S448      1.0  0.89851  0.52438  0.45384  1.0000
  Fe  Fe227     1.0  0.96807  0.51696  0.43625  1.0000
  H   H1786     1.0  0.98840  0.72667  0.22370  1.0000
  Fe  Fe228     1.0  0.96006  0.57774  0.45042  1.0000
  S   S449      1.0  0.96397  0.62517  0.44879  1.0000
  H   H1787     1.0  0.93344  0.92458  0.34406  1.0000
  S   S450      1.0  0.94159  0.56354  0.47866  1.0000
  H   H1788     1.0  0.85559  0.96756  0.44682  1.0000
  C   C1119     1.0  0.01190  0.73226  0.02983  1.0000
  C   C1120     1.0  0.99015  0.88477  0.28630  1.0000
  S   S451      1.0  0.97085  0.52063  0.52080  1.0000
  H   H1789     1.0  0.80642  0.62179  0.10976  1.0000
  Fe  Fe229     1.0  0.96957  0.80587  0.34173  1.0000
  S   S452      1.0  0.97936  0.78406  0.37281  1.0000
  S   S453      1.0  0.98774  0.80498  0.31013  1.0000
  Fe  Fe230     1.0  0.93102  0.82142  0.36265  1.0000
  S   S454      1.0  0.93762  0.80053  0.39463  1.0000
  S   S455      1.0  0.90291  0.84372  0.35759  1.0000
  Fe  Fe231     1.0  0.96553  0.82128  0.39023  1.0000
  S   S456      1.0  0.97482  0.84607  0.41956  1.0000
  Fe  Fe232     1.0  0.95049  0.76518  0.37460  1.0000
  S   S457      1.0  0.94134  0.71974  0.37859  1.0000
  S   S458      1.0  0.95807  0.84426  0.35922  1.0000
  S   S459      1.0  0.94156  0.78480  0.34243  1.0000
  Fe  Fe233     1.0  0.82456  0.84901  0.44140  1.0000
  S   S460      1.0  0.81577  0.82880  0.41023  1.0000
  S   S461      1.0  0.85335  0.86767  0.44363  1.0000
  Fe  Fe234     1.0  0.78716  0.83653  0.46548  1.0000
  Fe  Fe235     1.0  0.80411  0.79462  0.43144  1.0000
  Fe  Fe236     1.0  0.78832  0.85217  0.41711  1.0000
  H   H1790     1.0  0.93651  0.90346  0.40287  1.0000
  S   S462      1.0  0.81521  0.81334  0.46245  1.0000
  S   S463      1.0  0.79776  0.87425  0.44738  1.0000
  Fe  Fe237     1.0  0.78847  0.54129  0.38969  1.0000
  S   S464      1.0  0.80753  0.52709  0.36174  1.0000
  C   C1121     1.0  0.77001  0.92390  0.41564  1.0000
  Fe  Fe238     1.0  0.78804  0.60287  0.37524  1.0000
  S   S465      1.0  0.80723  0.59267  0.34640  1.0000
  Fe  Fe239     1.0  0.78922  0.55538  0.34098  1.0000
  Fe  Fe240     1.0  0.82349  0.56538  0.36985  1.0000
  S   S466      1.0  0.85530  0.56414  0.36892  1.0000
  S   S467      1.0  0.80568  0.57815  0.39929  1.0000
  S   S468      1.0  0.78173  0.54714  0.30532  1.0000
  H   H1791     1.0  0.81328  0.93228  0.40699  1.0000
  H   H1792     1.0  0.77063  0.58823  0.07560  1.0000
  C   C1122     1.0  0.98822  0.50840  0.25104  1.0000
  H   H1793     1.0  0.89582  0.94742  0.38451  1.0000
  C   C1123     1.0  0.78595  0.67527  0.39131  1.0000
  H   H1794     1.0  0.79470  0.74524  0.48269  1.0000
  H   H1795     1.0  0.97089  0.97534  0.50907  1.0000
  C   C1124     1.0  0.77732  0.70217  0.39086  1.0000
  S   S469      1.0  0.77548  0.81602  0.43537  1.0000
  H   H1796     1.0  0.77775  0.63551  0.32733  1.0000
  C   C1125     1.0  0.99464  0.74718  0.21961  1.0000
  H   H1797     1.0  0.82377  0.69065  0.42254  1.0000
  C   C1126     1.0  0.88953  0.85148  0.38161  1.0000
  C   C1127     1.0  0.89788  0.85194  0.40231  1.0000
  C   C1128     1.0  0.88679  0.85784  0.42125  1.0000
  C   C1129     1.0  0.86726  0.86259  0.41962  1.0000
  C   C1130     1.0  0.85901  0.86284  0.39887  1.0000
  C   C1131     1.0  0.87015  0.85750  0.37991  1.0000
  H   H1798     1.0  0.91287  0.84781  0.40384  1.0000
  H   H1799     1.0  0.89327  0.85787  0.43725  1.0000
  H   H1800     1.0  0.84406  0.86731  0.39735  1.0000
  H   H1801     1.0  0.86365  0.85755  0.36392  1.0000
  H   H1802     1.0  0.78212  0.84534  0.21911  1.0000
  C   C1132     1.0  0.00913  0.85499  0.26197  1.0000
  C   C1133     1.0  0.00508  0.83191  0.27556  1.0000
  C   C1134     1.0  0.99318  0.83499  0.29427  1.0000
  C   C1135     1.0  0.98577  0.86158  0.29961  1.0000
  H   H1803     1.0  0.78959  0.64001  0.12754  1.0000
  H   H1804     1.0  0.77420  0.59499  0.13606  1.0000
  C   C1136     1.0  0.99625  0.93378  0.47716  1.0000
  H   H1805     1.0  0.83747  0.93137  0.39758  1.0000
  H   H1806     1.0  0.78040  0.62139  0.06896  1.0000
  C   C1137     1.0  0.80279  0.67135  0.40274  1.0000
  C   C1138     1.0  0.82928  0.98101  0.41696  1.0000
  H   H1807     1.0  0.81448  0.98397  0.41136  1.0000
  H   H1808     1.0  0.00505  0.50021  0.49741  1.0000
  H   H1809     1.0  0.77757  0.72166  0.45343  1.0000
  H   H1810     1.0  0.80430  0.95415  0.44255  1.0000
  C   C1139     1.0  0.97639  0.73560  0.05030  1.0000
  C   C1140     1.0  0.77607  0.91399  0.39497  1.0000
  C   C1141     1.0  0.77545  0.97179  0.40397  1.0000
  H   H1811     1.0  0.98881  0.94774  0.14157  1.0000
  C   C1142     1.0  0.78185  0.93305  0.37880  1.0000
  H   H1812     1.0  0.82201  0.96872  0.45949  1.0000
  C   C1143     1.0  0.86674  0.54992  0.39194  1.0000
  C   C1144     1.0  0.88637  0.54559  0.39097  1.0000
  C   C1145     1.0  0.89620  0.53695  0.40974  1.0000
  C   C1146     1.0  0.88641  0.53248  0.42956  1.0000
  C   C1147     1.0  0.86665  0.53544  0.43027  1.0000
  C   C1148     1.0  0.85680  0.54423  0.41149  1.0000
  H   H1813     1.0  0.89406  0.54962  0.37577  1.0000
  H   H1814     1.0  0.91135  0.53410  0.40886  1.0000
  H   H1815     1.0  0.85904  0.53203  0.44561  1.0000
  H   H1816     1.0  0.84163  0.54740  0.41231  1.0000
  C   C1149     1.0  0.95897  0.65085  0.42825  1.0000
  C   C1150     1.0  0.96157  0.67924  0.43315  1.0000
  C   C1151     1.0  0.95693  0.70052  0.41786  1.0000
  C   C1152     1.0  0.94937  0.69368  0.39751  1.0000
  C   C1153     1.0  0.94688  0.66527  0.39255  1.0000
  C   C1154     1.0  0.95191  0.64395  0.40766  1.0000
  H   H1817     1.0  0.96716  0.68483  0.44896  1.0000
  H   H1818     1.0  0.95891  0.72222  0.42198  1.0000
  H   H1819     1.0  0.94121  0.65972  0.37678  1.0000
  H   H1820     1.0  0.95033  0.62220  0.40341  1.0000
  C   C1155     1.0  0.97708  0.94060  0.40831  1.0000
  C   C1156     1.0  0.96930  0.93007  0.42787  1.0000
  C   C1157     1.0  0.96883  0.90100  0.43134  1.0000
  C   C1158     1.0  0.97566  0.88236  0.41503  1.0000
  C   C1159     1.0  0.98324  0.89293  0.39540  1.0000
  C   C1160     1.0  0.98406  0.92195  0.39213  1.0000
  H   H1821     1.0  0.96374  0.94423  0.44036  1.0000
  H   H1822     1.0  0.96289  0.89287  0.44652  1.0000
  C   C1161     1.0  0.98649  0.76565  0.25569  1.0000
  H   H1823     1.0  0.98441  0.90530  0.29062  1.0000
  H   H1824     1.0  0.76884  0.89311  0.49079  1.0000
  S   S470      1.0  0.81286  0.74840  0.42771  1.0000
  H   H1825     1.0  0.79104  0.57690  0.11821  1.0000
  H   H1826     1.0  0.99654  0.92772  0.49486  1.0000
  C   C1162     1.0  0.76947  0.95273  0.42001  1.0000
  N   N112      1.0  0.89875  0.62291  0.42765  1.0000
  C   C1163     1.0  0.90220  0.65223  0.43371  1.0000
  C   C1164     1.0  0.87923  0.61577  0.43402  1.0000
  C   C1165     1.0  0.91220  0.60415  0.43927  1.0000
  C   C1166     1.0  0.90139  0.61943  0.40359  1.0000
  H   H1827     1.0  0.90033  0.65558  0.45176  1.0000
  H   H1828     1.0  0.89247  0.66705  0.42508  1.0000
  H   H1829     1.0  0.91693  0.65807  0.42931  1.0000
  H   H1830     1.0  0.87679  0.61762  0.45213  1.0000
  H   H1831     1.0  0.86864  0.62956  0.42567  1.0000
  H   H1832     1.0  0.87623  0.59384  0.42938  1.0000
  H   H1833     1.0  0.90975  0.58181  0.43557  1.0000
  H   H1834     1.0  0.91096  0.60666  0.45746  1.0000
  H   H1835     1.0  0.92707  0.60843  0.43448  1.0000
  H   H1836     1.0  0.91584  0.62504  0.39805  1.0000
  H   H1837     1.0  0.89116  0.63274  0.39427  1.0000
  H   H1838     1.0  0.89937  0.59743  0.39852  1.0000
  C   C1167     1.0  0.00949  0.72049  0.05093  1.0000
  H   H1839     1.0  0.80957  0.65079  0.40327  1.0000
  H   H1840     1.0  0.93599  0.95564  0.40001  1.0000
  H   H1841     1.0  0.01125  0.81157  0.27163  1.0000
  H   H1842     1.0  0.78023  0.64113  0.29811  1.0000
  H   H1843     1.0  0.99440  0.96947  0.11857  1.0000
  S   S471      1.0  0.00981  0.91636  0.18585  1.0000
  H   H1844     1.0  0.77204  0.70784  0.49234  1.0000
  H   H1845     1.0  0.79262  0.65093  0.09938  1.0000
  C   C1168     1.0  0.99166  0.72243  0.06121  1.0000
  H   H1846     1.0  0.99316  0.80121  0.20768  1.0000
  C   C1169     1.0  0.77724  0.58862  0.11867  1.0000
  S   S472      1.0  0.97855  0.97681  0.40352  1.0000
  H   H1847     1.0  0.90644  0.92963  0.40752  1.0000
  H   H1848     1.0  0.96318  0.77563  0.20775  1.0000
  C   C1170     1.0  0.01327  0.95357  0.44635  1.0000
  C   C1171     1.0  0.99271  0.89845  0.12058  1.0000
  N   N113      1.0  0.92294  0.92776  0.37745  1.0000
  C   C1172     1.0  0.93327  0.95347  0.38209  1.0000
  C   C1173     1.0  0.91981  0.92553  0.35352  1.0000
  C   C1174     1.0  0.90454  0.92875  0.38937  1.0000
  C   C1175     1.0  0.93420  0.90311  0.38480  1.0000
  C   C1176     1.0  0.81936  0.95192  0.44738  1.0000
  H   H1849     1.0  0.98418  0.94894  0.47505  1.0000
  N   N114      1.0  0.01429  0.94594  0.46991  1.0000
  C   C1177     1.0  0.77596  0.85453  0.23459  1.0000
  H   H1850     1.0  0.97859  0.52538  0.24491  1.0000
  H   H1851     1.0  0.99320  0.91467  0.46756  1.0000
  H   H1852     1.0  0.82113  0.93141  0.45598  1.0000
  H   H1853     1.0  0.83873  0.98312  0.40222  1.0000
  C   C1178     1.0  0.99859  0.49691  0.21399  1.0000
  S   S473      1.0  0.77658  0.87797  0.38918  1.0000
  H   H1854     1.0  0.78558  0.77866  0.47401  1.0000
  C   C1179     1.0  0.78114  0.60362  0.08086  1.0000
  N   N115      1.0  0.83221  0.95363  0.42798  1.0000
  H   H1855     1.0  0.00902  0.79688  0.23021  1.0000
  C   C1180     1.0  0.78190  0.96184  0.38344  1.0000
  H   H1856     1.0  0.00623  0.98736  0.48101  1.0000
  C   C1181     1.0  0.00174  0.88159  0.26736  1.0000
  H   H1857     1.0  0.77121  0.90813  0.22096  1.0000
  H   H1858     1.0  0.95710  0.78926  0.23464  1.0000
  H   H1859     1.0  0.92526  0.97258  0.37675  1.0000
  H   H1860     1.0  0.91217  0.90614  0.34951  1.0000
  H   H1861     1.0  0.98981  0.51407  0.20662  1.0000
  H   H1862     1.0  0.97782  0.89619  0.11550  1.0000
  C   C1182     1.0  0.99385  0.79710  0.22573  1.0000
  C   C1183     1.0  0.96483  0.77194  0.22574  1.0000
  S   S474      1.0  0.95032  0.49906  0.46342  1.0000
  H   H1863     1.0  0.94829  0.90209  0.37644  1.0000
  H   H1864     1.0  0.99312  0.89617  0.13883  1.0000
  C   C1184     1.0  0.80222  0.72092  0.41315  1.0000
  N   N116      1.0  0.87908  0.76425  0.39583  1.0000
  C   C1185     1.0  0.86014  0.75207  0.39499  1.0000
  C   C1186     1.0  0.88351  0.77793  0.37458  1.0000
  C   C1187     1.0  0.89348  0.74195  0.40006  1.0000
  C   C1188     1.0  0.87924  0.78518  0.41370  1.0000
  H   H1865     1.0  0.85620  0.74181  0.41084  1.0000
  H   H1866     1.0  0.85942  0.73614  0.38172  1.0000
  H   H1867     1.0  0.84898  0.76844  0.39183  1.0000
  H   H1868     1.0  0.88341  0.76286  0.36065  1.0000
  H   H1869     1.0  0.87319  0.79526  0.37092  1.0000
  H   H1870     1.0  0.89779  0.78707  0.37461  1.0000
  H   H1871     1.0  0.90792  0.75057  0.40091  1.0000
  H   H1872     1.0  0.89408  0.72605  0.38666  1.0000
  H   H1873     1.0  0.89064  0.73101  0.41589  1.0000
  H   H1874     1.0  0.89332  0.79479  0.41488  1.0000
  H   H1875     1.0  0.87584  0.77569  0.43000  1.0000
  H   H1876     1.0  0.86862  0.80241  0.41095  1.0000
  H   H1877     1.0  0.97978  0.74587  0.26087  1.0000
  N   N117      1.0  0.77737  0.61310  0.10374  1.0000
  H   H1878     1.0  0.83128  0.49924  0.44651  1.0000
  H   H1879     1.0  0.00149  0.76423  0.26084  1.0000
  H   H1880     1.0  0.89628  0.90986  0.38587  1.0000
  C   C1189     1.0  0.81082  0.69403  0.41363  1.0000
  H   H1881     1.0  0.98959  0.71341  0.07740  1.0000
  H   H1882     1.0  0.77130  0.96228  0.28474  1.0000
  H   H1883     1.0  0.96259  0.73660  0.05825  1.0000
  H   H1884     1.0  0.86207  0.95166  0.42091  1.0000
  H   H1885     1.0  0.94730  0.95334  0.37345  1.0000
  C   C1190     1.0  0.78542  0.72492  0.40164  1.0000
  H   H1886     1.0  0.78669  0.92544  0.36283  1.0000
  S   S475      1.0  0.01291  0.67451  0.12566  1.0000
  H   H1887     1.0  0.99015  0.92995  0.37698  1.0000
  C   C1191     1.0  0.79220  0.63229  0.11041  1.0000
  C   C1192     1.0  0.82815  0.93084  0.41251  1.0000
  H   H1888     1.0  0.78687  0.97619  0.37109  1.0000
  N   N118      1.0  0.98497  0.77046  0.23170  1.0000
  H   H1889     1.0  0.76930  0.75508  0.44389  1.0000
  H   H1890     1.0  0.97664  0.86429  0.31397  1.0000
  H   H1891     1.0  0.99370  0.75004  0.20144  1.0000
  H   H1892     1.0  0.97379  0.94825  0.11798  1.0000
  C   C1193     1.0  0.85200  0.95065  0.43514  1.0000
  H   H1893     1.0  0.83020  0.90992  0.42035  1.0000
  H   H1894     1.0  0.77867  0.74548  0.40101  1.0000
  H   H1895     1.0  0.98676  0.81519  0.23435  1.0000
  N   N119      1.0  0.00489  0.50424  0.23627  1.0000
  H   H1896     1.0  0.85464  0.93021  0.44361  1.0000
  H   H1897     1.0  0.97946  0.78295  0.26536  1.0000
  H   H1898     1.0  0.78209  0.76822  0.50191  1.0000
  S   S476      1.0  0.00715  0.91159  0.25153  1.0000
  S   S477      1.0  0.77517  0.64721  0.37757  1.0000
  C   C1194     1.0  0.01565  0.53026  0.23512  1.0000
  H   H1899     1.0  0.00994  0.74548  0.22348  1.0000
  H   H1900     1.0  0.98874  0.87868  0.38286  1.0000
  H   H1901     1.0  0.91130  0.94370  0.34727  1.0000
  C   C1195     1.0  0.98874  0.94871  0.12322  1.0000
  N   N120      1.0  0.00028  0.92553  0.11335  1.0000
  H   H1902     1.0  0.00550  0.94776  0.08316  1.0000
  H   H1903     1.0  0.00161  0.96918  0.44336  1.0000
  H   H1904     1.0  0.95768  0.75214  0.22995  1.0000
  C   C1196     1.0  0.99984  0.92753  0.08907  1.0000
  H   H1905     1.0  0.77396  0.83713  0.24652  1.0000
  C   C1197     1.0  0.78255  0.76040  0.48463  1.0000
  C   C1198     1.0  0.00560  0.49322  0.51435  1.0000
  H   H1906     1.0  0.78656  0.86871  0.24146  1.0000
  H   H1907     1.0  0.92715  0.88330  0.38092  1.0000
  S   S478      1.0  0.76888  0.56703  0.36846  1.0000
  S   S479      1.0  0.77866  0.51132  0.41606  1.0000
  H   H1908     1.0  0.98519  0.92605  0.08295  1.0000
  H   H1909     1.0  0.00120  0.88049  0.11356  1.0000
  H   H1910     1.0  0.00855  0.91040  0.08119  1.0000
  C   C1199     1.0  0.97877  0.74713  0.02911  1.0000
  H   H1911     1.0  0.99246  0.51409  0.26798  1.0000
  H   H1912     1.0  0.78223  0.60645  0.30909  1.0000
  H   H1913     1.0  0.01062  0.53486  0.13834  1.0000
  S   S480      1.0  0.77081  0.83243  0.49802  1.0000
  H   H1914     1.0  0.01064  0.93500  0.43590  1.0000
  H   H1915     1.0  0.01085  0.49285  0.20260  1.0000
  H   H1916     1.0  0.00698  0.54799  0.22842  1.0000
  C   C1200     1.0  0.77441  0.62687  0.31085  1.0000
  H   H1917     1.0  0.77251  0.52974  0.26185  1.0000
  H   H1918     1.0  0.97997  0.48895  0.25241  1.0000
  S   S481      1.0  0.94872  0.96922  0.87788  1.0000
  H   H1919     1.0  0.96294  0.97241  0.92297  1.0000
  Fe  Fe241     1.0  0.92232  0.79942  0.95235  1.0000
  S   S482      1.0  0.94097  0.81190  0.92409  1.0000
  S   S483      1.0  0.89084  0.80897  0.95273  1.0000
  Fe  Fe242     1.0  0.95576  0.77942  0.98076  1.0000
  S   S484      1.0  0.97719  0.79047  0.95441  1.0000
  C   C1201     1.0  0.78571  0.93209  0.93135  1.0000
  Fe  Fe243     1.0  0.95952  0.83027  0.94945  1.0000
  S   S485      1.0  0.96994  0.87510  0.94876  1.0000
  Fe  Fe244     1.0  0.95674  0.77131  0.93108  1.0000
  S   S486      1.0  0.96291  0.74315  0.90181  1.0000
  S   S487      1.0  0.93971  0.82045  0.97758  1.0000
  S   S488      1.0  0.93654  0.75752  0.95760  1.0000
  Fe  Fe245     1.0  0.97096  0.58183  0.89496  1.0000
  S   S489      1.0  0.95536  0.58974  0.86356  1.0000
  S   S490      1.0  0.98230  0.61463  0.91764  1.0000
  Fe  Fe246     1.0  0.97052  0.51745  0.89026  1.0000
  S   S491      1.0  0.95538  0.52071  0.85818  1.0000
  H   H1920     1.0  0.78600  0.78185  0.69318  1.0000
  Fe  Fe247     1.0  0.97478  0.55606  0.84927  1.0000
  S   S492      1.0  0.99190  0.55747  0.81693  1.0000
  Fe  Fe248     1.0  0.93749  0.55413  0.87527  1.0000
  S   S493      1.0  0.90566  0.55235  0.87387  1.0000
  S   S494      1.0  0.99143  0.55006  0.88024  1.0000
  S   S495      1.0  0.95158  0.54906  0.90776  1.0000
  S   S496      1.0  0.77760  0.49318  0.92502  1.0000
  H   H1921     1.0  0.96535  0.70515  0.96363  1.0000
  H   H1922     1.0  0.98750  0.65472  0.78864  1.0000
  Fe  Fe249     1.0  0.81195  0.79791  0.87132  1.0000
  S   S497      1.0  0.79902  0.80361  0.90483  1.0000
  S   S498      1.0  0.84245  0.78275  0.86899  1.0000
  H   H1923     1.0  0.94480  0.66627  0.01097  1.0000
  H   H1924     1.0  0.77131  0.64872  0.93519  1.0000
  H   H1925     1.0  0.77719  0.52237  0.56300  1.0000
  H   H1926     1.0  0.85002  0.62629  0.90983  1.0000
  S   S499      1.0  0.79967  0.83817  0.85777  1.0000
  S   S500      1.0  0.78856  0.77147  0.85907  1.0000
  Fe  Fe250     1.0  0.82648  0.55695  0.95846  1.0000
  S   S501      1.0  0.81503  0.55430  0.92450  1.0000
  S   S502      1.0  0.85808  0.55208  0.96324  1.0000
  H   H1927     1.0  0.86256  0.59358  0.90606  1.0000
  C   C1202     1.0  0.79145  0.66063  0.91011  1.0000
  C   C1203     1.0  0.83269  0.76777  0.95179  1.0000
  S   S503      1.0  0.77354  0.57104  0.94607  1.0000
  S   S504      1.0  0.80361  0.53124  0.97380  1.0000
  S   S505      1.0  0.81181  0.59797  0.96692  1.0000
  C   C1204     1.0  0.99043  0.49932  0.52878  1.0000
  H   H1928     1.0  0.98060  0.83085  0.56882  1.0000
  H   H1929     1.0  0.78361  0.97419  0.94437  1.0000
  H   H1930     1.0  0.77272  0.91280  0.88008  1.0000
  C   C1205     1.0  0.85556  0.59002  0.86190  1.0000
  C   C1206     1.0  0.77519  0.92611  0.89406  1.0000
  H   H1931     1.0  0.84157  0.58002  0.86302  1.0000
  H   H1932     1.0  0.84821  0.77046  0.95003  1.0000
  C   C1207     1.0  0.77615  0.66545  0.92464  1.0000
  H   H1933     1.0  0.77633  0.50135  0.60028  1.0000
  C   C1208     1.0  0.89318  0.55116  0.89918  1.0000
  C   C1209     1.0  0.87596  0.53745  0.90037  1.0000
  C   C1210     1.0  0.86515  0.53762  0.91998  1.0000
  C   C1211     1.0  0.87150  0.55148  0.93857  1.0000
  C   C1212     1.0  0.88901  0.56446  0.93761  1.0000
  C   C1213     1.0  0.89978  0.56447  0.91791  1.0000
  H   H1934     1.0  0.87089  0.52676  0.88603  1.0000
  H   H1935     1.0  0.85198  0.52675  0.92078  1.0000
  H   H1936     1.0  0.89403  0.57508  0.95199  1.0000
  H   H1937     1.0  0.91295  0.57536  0.91708  1.0000
  C   C1214     1.0  0.99734  0.58561  0.79880  1.0000
  C   C1215     1.0  0.98862  0.61215  0.80080  1.0000
  C   C1216     1.0  0.99423  0.63423  0.78685  1.0000
  H   H1938     1.0  0.97914  0.86848  0.56884  1.0000
  H   H1939     1.0  0.99992  0.54578  0.60803  1.0000
  H   H1940     1.0  0.99703  0.66557  0.00120  1.0000
  H   H1941     1.0  0.97755  0.61564  0.81307  1.0000
  H   H1942     1.0  0.88607  0.61136  0.88026  1.0000
  H   H1943     1.0  0.00922  0.95847  0.85839  1.0000
  C   C1217     1.0  0.87840  0.80308  0.92843  1.0000
  C   C1218     1.0  0.86063  0.81623  0.92586  1.0000
  C   C1219     1.0  0.84990  0.81095  0.90722  1.0000
  C   C1220     1.0  0.85667  0.79205  0.89120  1.0000
  C   C1221     1.0  0.87468  0.77945  0.89347  1.0000
  C   C1222     1.0  0.88560  0.78508  0.91199  1.0000
  H   H1944     1.0  0.85498  0.83026  0.93845  1.0000
  H   H1945     1.0  0.83637  0.82156  0.90529  1.0000
  H   H1946     1.0  0.88010  0.76501  0.88101  1.0000
  H   H1947     1.0  0.89937  0.77499  0.91377  1.0000
  C   C1223     1.0  0.96769  0.70744  0.90686  1.0000
  C   C1224     1.0  0.95830  0.68712  0.89495  1.0000
  C   C1225     1.0  0.96250  0.65850  0.89824  1.0000
  C   C1226     1.0  0.97642  0.65017  0.91310  1.0000
  C   C1227     1.0  0.98613  0.67053  0.92457  1.0000
  C   C1228     1.0  0.98172  0.69909  0.92154  1.0000
  H   H1948     1.0  0.94766  0.69356  0.88327  1.0000
  H   H1949     1.0  0.95496  0.64298  0.88928  1.0000
  H   H1950     1.0  0.97607  0.71963  0.98717  1.0000
  H   H1951     1.0  0.98949  0.71476  0.93009  1.0000
  C   C1229     1.0  0.96426  0.90099  0.92874  1.0000
  C   C1230     1.0  0.96615  0.92943  0.93398  1.0000
  C   C1231     1.0  0.96152  0.95064  0.91864  1.0000
  C   C1232     1.0  0.95510  0.94358  0.89780  1.0000
  C   C1233     1.0  0.95344  0.91513  0.89246  1.0000
  C   C1234     1.0  0.95796  0.89395  0.90784  1.0000
  H   H1952     1.0  0.97116  0.93507  0.95005  1.0000
  H   H1953     1.0  0.80939  0.67880  0.88522  1.0000
  H   H1954     1.0  0.94860  0.90941  0.87633  1.0000
  H   H1955     1.0  0.95684  0.87215  0.90343  1.0000
  H   H1956     1.0  0.85300  0.71957  0.95396  1.0000
  H   H1957     1.0  0.84749  0.74019  0.91687  1.0000
  H   H1958     1.0  0.83403  0.71916  0.97405  1.0000
  H   H1959     1.0  0.80215  0.71591  0.94205  1.0000
  H   H1960     1.0  0.79838  0.75271  0.93725  1.0000
  H   H1961     1.0  0.82456  0.75383  0.91011  1.0000
  C   C1235     1.0  0.83741  0.71788  0.95609  1.0000
  C   C1236     1.0  0.92986  0.51109  0.95272  1.0000
  H   H1962     1.0  0.82826  0.71686  0.91340  1.0000
  H   H1963     1.0  0.98516  0.94754  0.85709  1.0000
  H   H1964     1.0  0.81122  0.96873  0.89758  1.0000
  C   C1237     1.0  0.00899  0.56655  0.55537  1.0000
  C   C1238     1.0  0.98319  0.82460  0.61286  1.0000
  C   C1239     1.0  0.83210  0.73756  0.92003  1.0000
  C   C1240     1.0  0.96728  0.65160  0.97649  1.0000
  H   H1965     1.0  0.80227  0.73990  0.96463  1.0000
  H   H1966     1.0  0.83356  0.69667  0.95043  1.0000
  H   H1967     1.0  0.82558  0.78503  0.94244  1.0000
  H   H1968     1.0  0.93961  0.68919  0.98812  1.0000
  H   H1969     1.0  0.83282  0.96558  0.88195  1.0000
  C   C1241     1.0  0.99670  0.74572  0.01904  1.0000
  H   H1970     1.0  0.84162  0.65527  0.87865  1.0000
  H   H1971     1.0  0.92841  0.51032  0.97099  1.0000
  C   C1242     1.0  0.98266  0.67041  0.00818  1.0000
  C   C1243     1.0  0.79760  0.68238  0.89652  1.0000
  H   H1972     1.0  0.99846  0.96110  0.79855  1.0000
  H   H1973     1.0  0.79375  0.72547  0.88715  1.0000
  H   H1974     1.0  0.89357  0.50256  0.94282  1.0000
  C   C1244     1.0  0.84191  0.63617  0.86819  1.0000
  C   C1245     1.0  0.77393  0.97261  0.91102  1.0000
  C   C1246     1.0  0.98641  0.95576  0.53569  1.0000
  H   H1975     1.0  0.98738  0.62720  0.85303  1.0000
  H   H1976     1.0  0.78812  0.79784  0.74221  1.0000
  H   H1977     1.0  0.77183  0.77252  0.75211  1.0000
  S   S506      1.0  0.01560  0.65889  0.75408  1.0000
  Fe  Fe251     1.0  0.79108  0.53139  0.94007  1.0000
  H   H1978     1.0  0.98411  0.89465  0.60324  1.0000
  N   N121      1.0  0.99963  0.56842  0.57732  1.0000
  H   H1979     1.0  0.99728  0.66422  0.93561  1.0000
  C   C1247     1.0  0.97527  0.70029  0.97721  1.0000
  H   H1980     1.0  0.83242  0.95754  0.91095  1.0000
  C   C1248     1.0  0.97643  0.84946  0.57898  1.0000
  H   H1981     1.0  0.79133  0.92321  0.94635  1.0000
  C   C1249     1.0  0.77640  0.79857  0.70013  1.0000
  C   C1250     1.0  0.77303  0.71359  0.91151  1.0000
  C   C1251     1.0  0.97891  0.56868  0.57469  1.0000
  H   H1982     1.0  0.96567  0.87536  0.61647  1.0000
  Fe  Fe252     1.0  0.79897  0.59394  0.93358  1.0000
  H   H1983     1.0  0.01498  0.59853  0.84071  1.0000
  C   C1252     1.0  0.97378  0.98548  0.82707  1.0000
  H   H1984     1.0  0.93911  0.49011  0.91297  1.0000
  C   C1253     1.0  0.87510  0.62694  0.87474  1.0000
  N   N122      1.0  0.90287  0.88886  0.93331  1.0000
  C   C1254     1.0  0.90754  0.91766  0.92672  1.0000
  C   C1255     1.0  0.91448  0.88021  0.95225  1.0000
  C   C1256     1.0  0.90684  0.86960  0.91465  1.0000
  C   C1257     1.0  0.88265  0.88788  0.93965  1.0000
  H   H1985     1.0  0.89962  0.92457  0.91194  1.0000
  H   H1986     1.0  0.92285  0.91921  0.92264  1.0000
  H   H1987     1.0  0.90433  0.93284  0.94023  1.0000
  H   H1988     1.0  0.91238  0.89468  0.96645  1.0000
  H   H1989     1.0  0.91095  0.85890  0.95808  1.0000
  H   H1990     1.0  0.92980  0.87963  0.94786  1.0000
  H   H1991     1.0  0.90372  0.84763  0.91917  1.0000
  H   H1992     1.0  0.92195  0.86983  0.90939  1.0000
  H   H1993     1.0  0.89819  0.87518  0.90011  1.0000
  H   H1994     1.0  0.87887  0.86647  0.94508  1.0000
  H   H1995     1.0  0.87341  0.89359  0.92562  1.0000
  H   H1996     1.0  0.87909  0.90226  0.95359  1.0000
  H   H1997     1.0  0.94516  0.51308  0.94852  1.0000
  C   C1258     1.0  0.99459  0.96553  0.85433  1.0000
  S   S507      1.0  0.00807  0.92910  0.63247  1.0000
  C   C1259     1.0  0.00548  0.54400  0.59079  1.0000
  C   C1260     1.0  0.78136  0.96100  0.93027  1.0000
  Fe  Fe253     1.0  0.77482  0.78042  0.89189  1.0000
  S   S508      1.0  0.80319  0.62784  0.90798  1.0000
  H   H1998     1.0  0.00022  0.52427  0.58402  1.0000
  C   C1261     1.0  0.99970  0.95916  0.55236  1.0000
  H   H1999     1.0  0.77433  0.63711  0.00738  1.0000
  H   H2000     1.0  0.99399  0.65460  0.83441  1.0000
  C   C1262     1.0  0.78861  0.70884  0.89743  1.0000
  H   H2001     1.0  0.98955  0.69602  0.96983  1.0000
  Fe  Fe254     1.0  0.78532  0.84279  0.89109  1.0000
  H   H2002     1.0  0.01399  0.94616  0.81881  1.0000
  H   H2003     1.0  0.96792  0.82324  0.61721  1.0000
  H   H2004     1.0  0.87899  0.63304  0.85758  1.0000
  H   H2005     1.0  0.98763  0.80522  0.60380  1.0000
  H   H2006     1.0  0.01586  0.85093  0.60981  1.0000
  C   C1263     1.0  0.99140  0.49011  0.55073  1.0000
  H   H2007     1.0  0.97844  0.65232  0.01852  1.0000
  H   H2008     1.0  0.98120  0.64512  0.96899  1.0000
  H   H2009     1.0  0.01554  0.57957  0.68520  1.0000
  N   N123      1.0  0.01623  0.63939  0.85532  1.0000
  C   C1264     1.0  0.85146  0.60757  0.89902  1.0000
  H   H2010     1.0  0.97959  0.49437  0.56189  1.0000
  H   H2011     1.0  0.86642  0.57410  0.86683  1.0000
  H   H2012     1.0  0.85849  0.59514  0.84430  1.0000
  H   H2013     1.0  0.92245  0.53056  0.94706  1.0000
  H   H2014     1.0  0.98992  0.93541  0.81766  1.0000
  H   H2015     1.0  0.82885  0.77072  0.96950  1.0000
  S   S509      1.0  0.00630  0.92994  0.56898  1.0000
  N   N124      1.0  0.82720  0.74008  0.94374  1.0000
  C   C1265     1.0  0.80663  0.73704  0.94706  1.0000
  H   H2016     1.0  0.98857  0.87591  0.62842  1.0000
  H   H2017     1.0  0.78507  0.81688  0.70406  1.0000
  H   H2018     1.0  0.83789  0.59648  0.90033  1.0000
  H   H2019     1.0  0.77367  0.75853  0.81221  1.0000
  Fe  Fe255     1.0  0.78750  0.57235  0.97918  1.0000
  H   H2020     1.0  0.97438  0.54958  0.56594  1.0000
  H   H2021     1.0  0.84492  0.64266  0.85091  1.0000
  C   C1266     1.0  0.78261  0.91449  0.91331  1.0000
  H   H2022     1.0  0.95746  0.65574  0.96266  1.0000
  H   H2023     1.0  0.87603  0.64576  0.88535  1.0000
  H   H2024     1.0  0.97993  0.93573  0.53378  1.0000
  H   H2025     1.0  0.96200  0.63338  0.98595  1.0000
  N   N125      1.0  0.85602  0.61519  0.87596  1.0000
  H   H2026     1.0  0.82740  0.62773  0.86886  1.0000
  S   S510      1.0  0.78859  0.87837  0.91565  1.0000
  H   H2027     1.0  0.96093  0.84886  0.58224  1.0000
  N   N126      1.0  0.96887  0.67649  0.99069  1.0000
  H   H2028     1.0  0.91632  0.50702  0.91177  1.0000
  H   H2029     1.0  0.97137  0.56954  0.59094  1.0000
  C   C1267     1.0  0.98106  0.87507  0.61250  1.0000
  N   N127      1.0  0.98701  0.84996  0.59971  1.0000
  H   H2030     1.0  0.99881  0.75469  0.00284  1.0000
  C   C1268     1.0  0.00745  0.85089  0.59452  1.0000
  C   C1269     1.0  0.00775  0.98530  0.55488  1.0000
  H   H2031     1.0  0.01089  0.87007  0.58495  1.0000
  H   H2032     1.0  0.99027  0.66202  0.86317  1.0000
  S   S511      1.0  0.95865  0.76115  0.01544  1.0000
  H   H2033     1.0  0.01000  0.60929  0.88057  1.0000
  C   C1270     1.0  0.99922  0.95370  0.81593  1.0000
  H   H2034     1.0  0.99864  0.59624  0.60527  1.0000
  H   H2035     1.0  0.97396  0.58697  0.56477  1.0000
  H   H2036     1.0  0.01310  0.64409  0.89043  1.0000
  H   H2037     1.0  0.77149  0.55272  0.59617  1.0000
  C   C1271     1.0  0.77939  0.78008  0.73709  1.0000
  H   H2038     1.0  0.78912  0.76278  0.73137  1.0000
  C   C1272     1.0  0.00835  0.62997  0.77044  1.0000
  H   H2039     1.0  0.00910  0.80626  0.68294  1.0000
  C   C1273     1.0  0.01674  0.60325  0.76812  1.0000
  C   C1274     1.0  0.82668  0.97207  0.89822  1.0000
  N   N128      1.0  0.99342  0.97620  0.83150  1.0000
  C   C1275     1.0  0.95025  0.68379  0.00084  1.0000
  Fe  Fe256     1.0  0.77476  0.81199  0.84868  1.0000
  C   C1276     1.0  0.99608  0.64611  0.85130  1.0000
  C   C1277     1.0  0.77087  0.95504  0.89296  1.0000
  C   C1278     1.0  0.00512  0.59439  0.58843  1.0000
  S   S512      1.0  0.77061  0.57619  0.01176  1.0000
  H   H2040     1.0  0.96374  0.96815  0.82934  1.0000
  H   H2041     1.0  0.99107  0.82457  0.62861  1.0000
  H   H2042     1.0  0.01244  0.83246  0.58465  1.0000
  H   H2043     1.0  0.95107  0.70232  0.01186  1.0000
  C   C1279     1.0  0.01129  0.58129  0.78225  1.0000
  H   H2044     1.0  0.00527  0.54708  0.54665  1.0000
  C   C1280     1.0  0.98128  0.97816  0.52163  1.0000
  H   H2045     1.0  0.00468  0.58442  0.54463  1.0000
  H   H2046     1.0  0.99005  0.98187  0.86652  1.0000
  H   H2047     1.0  0.00069  0.61334  0.57896  1.0000
  H   H2048     1.0  0.98395  0.68857  0.01941  1.0000
