data_image0
_chemical_formula_structural       FeS2FeS2FeSFeS3FeS2FeS2FeSFeS3FeS2FeS2FeSFeS3FeS2FeS2FeSFeS3FeS2FeS2FeSFeS3FeS2FeS2FeSFeS3C6H4C6H4C6H4C6H4C6H4C6H4C6H4C6H4C6H4C6H4C6H4C6H4FeS2FeS2FeSFeS3FeS2FeS2FeSFeS3FeS2FeS2FeSFeS3FeS2FeS2FeSFeS3FeS2FeS2FeSFeS3FeS2FeS2FeSFeS3C6H4C6H4C6H4C6H4C6H4C6H4C6H4C6H4C6H4C6H4C6H4C6H4FeS2FeS2FeSFeS3FeS2FeS2FeSFeS3FeS2FeS2FeSFeS3FeS2FeS2FeSFeS3FeS2FeS2FeSFeS3FeS2FeS2FeSFeS3C6H4C6H4C6H4C6H4C6H4C6H4C6H4C6H4C6H4C6H4C6H4C6H4FeS2FeS2FeSFeS3FeS2FeS2FeSFeS3FeS2FeS2FeSFeS3FeS2FeS2FeSFeS3FeS2FeS2FeSFeS3FeS2FeS2FeSFeS3C6H4C6H4C6H4C6H4C6H4C6H4C6H4C6H4C6H4C6H4C6H4C6H4NC4H12NC4H12NC4H12NC4H12NC4H12NC4H12NC4H12NC4H12NC4H12NC4H12NC4H12NC4H12NC4H12NC4H12NC4H12NC4H12NC4H12NC4H12NC4H12NC4H12NC4H12NC4H12NC4H12NC4H12NC4H12NC4H12NC4H12NC4H12NC4H12NC4H12NC4H12NC4H12NC4H12NC4H12NC4H12NC4H12NC4H12NC4H12NC4H12NC4H12NC4H12NC4H12NC4H12NC4H12NC4H12NC4H12NC4H12NC4H12
_chemical_formula_sum              "Fe96 S192 C480 H768 N48"
_cell_length_a       49.241394910332296
_cell_length_b       49.44212639352169
_cell_length_c       36.684883550386964
_cell_angle_alpha    89.9580940986594
_cell_angle_beta     90.6343627167437
_cell_angle_gamma    120.1144275033525

_space_group_name_H-M_alt    "P 1"
_space_group_IT_number       1

loop_
  _space_group_symop_operation_xyz
  'x, y, z'

loop_
  _atom_site_type_symbol
  _atom_site_label
  _atom_site_symmetry_multiplicity
  _atom_site_fract_x
  _atom_site_fract_y
  _atom_site_fract_z
  _atom_site_occupancy
  Fe  Fe1       1.0  0.3616074243887637  0.22018921719155712  0.4670079572403046  1.0000
  S   S1        1.0  0.38640994785174787  0.2724699449556663  0.4624798836520023  1.0000
  S   S2        1.0  0.3419767235676873  0.18586570715223227  0.419983327890889  1.0000
  Fe  Fe2       1.0  0.3689520098022433  0.222273700927354  0.5495620165782483  1.0000
  S   S3        1.0  0.3939387530650097  0.27458739234686896  0.551516550333654  1.0000
  S   S4        1.0  0.36017786335426083  0.19120161242922978  0.5982923176119078  1.0000
  Fe  Fe3       1.0  0.3574513282815931  0.2699585605716255  0.5107436997690689  1.0000
  S   S5        1.0  0.3386278940722351  0.30315290126155175  0.5152234699448311  1.0000
  Fe  Fe4       1.0  0.420432088617868  0.2721206930272185  0.5035347080074861  1.0000
  S   S6        1.0  0.4726334996793094  0.30599202184019014  0.5008517174236986  1.0000
  S   S7        1.0  0.33012157308404194  0.217572035968204  0.5125554013965442  1.0000
  S   S8        1.0  0.39806495209697207  0.22002161147568491  0.5043213420623248  1.0000
  Fe  Fe5       1.0  0.32611952542209777  0.1777961779925149  0.135160838931923  1.0000
  S   S9        1.0  0.2734095977588823  0.14952207637024284  0.13342459709514323  1.0000
  S   S10       1.0  0.35681151150824925  0.175689862969568  0.09118316419951497  1.0000
  Fe  Fe6       1.0  0.32804170018179657  0.20012911046161044  0.21303341280984145  1.0000
  S   S11       1.0  0.2757680236436017  0.1730133356271926  0.21775546323275696  1.0000
  S   S12       1.0  0.3586306956193477  0.23360911820175856  0.25735477555158337  1.0000
  Fe  Fe7       1.0  0.2784678477748867  0.13407793158642844  0.189382400555144  1.0000
  S   S13       1.0  0.24841302631553952  0.0840250730222448  0.20833433015871253  1.0000
  Fe  Fe8       1.0  0.27553976767623334  0.19109224401782787  0.1616950745958693  1.0000
  S   S14       1.0  0.24097497439098947  0.20802672465030625  0.15183128880751226  1.0000
  S   S15       1.0  0.3310882315881886  0.15980264288793844  0.18979392398509637  1.0000
  S   S16       1.0  0.32796700384519145  0.22076543392334425  0.15845972021563381  1.0000
  Fe  Fe9       1.0  0.1865790300794925  0.35191486223539115  0.49668010657147715  1.0000
  S   S17       1.0  0.16300158347844818  0.29997505578663375  0.4905291238788457  1.0000
  S   S18       1.0  0.21612428198043732  0.3833040421968084  0.45121903672869945  1.0000
  Fe  Fe10      1.0  0.1662637558515061  0.3484507038245202  0.5751118841784432  1.0000
  S   S19       1.0  0.14173590640702488  0.29613754639147377  0.5758566161273814  1.0000
  S   S20       1.0  0.1616595127537579  0.376648618445182  0.6207141066072526  1.0000
  Fe  Fe11      1.0  0.18352083421379864  0.30109384706620496  0.5456936233625551  1.0000
  S   S21       1.0  0.19900164347641316  0.26543091611710995  0.5551350332654802  1.0000
  Fe  Fe12      1.0  0.12290439643195493  0.29851329198614324  0.520784789541554  1.0000
  S   S22       1.0  0.07256267044192605  0.26061484849486183  0.5099096915508019  1.0000
  S   S23       1.0  0.21022826132329195  0.35357488010721305  0.5502307836411364  1.0000
  S   S24       1.0  0.1444925385240618  0.3506726244132499  0.5216894221477351  1.0000
  Fe  Fe13      1.0  0.25364286324236557  0.36941888901893954  0.19317602562954414  1.0000
  S   S25       1.0  0.20099844021436325  0.3422213372071498  0.19070555734058553  1.0000
  S   S26       1.0  0.2860935463109407  0.35151026322921963  0.17701949503867226  1.0000
  Fe  Fe14      1.0  0.25542706451921404  0.4293569084127046  0.2187057907457488  1.0000
  S   S27       1.0  0.20307381979066777  0.4066276055543181  0.21875960158913388  1.0000
  S   S28       1.0  0.28842525020307747  0.48026998993061615  0.23249787865520274  1.0000
  Fe  Fe15      1.0  0.20412099840370534  0.36586080760583345  0.24426801560261854  1.0000
  S   S29       1.0  0.17037939415091094  0.33902887193735914  0.2892362767897992  1.0000
  Fe  Fe16      1.0  0.20501275127811724  0.3854622156517513  0.16546418553228584  1.0000
  S   S30       1.0  0.1735155955561858  0.3842117467675566  0.1194950550475232  1.0000
  S   S31       1.0  0.25669128228296567  0.390248026469337  0.2485792438602291  1.0000
  S   S32       1.0  0.25754750744410965  0.4110311192973416  0.1635524906366985  1.0000
  Fe  Fe17      1.0  0.1955838524326696  0.4016049698471564  0.9113693554863161  1.0000
  S   S33       1.0  0.16803953876836947  0.4266480118967701  0.9115462945608387  1.0000
  S   S34       1.0  0.22331929564977046  0.3982496336624843  0.9588013768683356  1.0000
  Fe  Fe18      1.0  0.18734135384652234  0.38940904756505496  0.8295756540986453  1.0000
  S   S35       1.0  0.15960502799633286  0.4136576655796393  0.8231246088293318  1.0000
  S   S36       1.0  0.19913261006859356  0.36662550387996734  0.7837703051931175  1.0000
  Fe  Fe19      1.0  0.1950702178158196  0.45006204341220407  0.8610754231986667  1.0000
  S   S37       1.0  0.210999253251525  0.5004500085262371  0.8476332327996209  1.0000
  Fe  Fe20      1.0  0.13487640307195833  0.38796214853881317  0.8736890670726374  1.0000
  S   S38       1.0  0.08236895250826995  0.3681446603901196  0.8718921292276621  1.0000
  S   S39       1.0  0.22507574139490416  0.4278822167109438  0.8634570764380094  1.0000
  S   S40       1.0  0.1601462321533799  0.3608051872317926  0.8776195089706187  1.0000
  Fe  Fe21      1.0  0.3934117105739757  0.2205670106928637  0.8040626569716777  1.0000
  S   S41       1.0  0.4194970640328958  0.19408291122231067  0.8052863972649483  1.0000
  S   S42       1.0  0.3949014224904977  0.2502942649775607  0.7565928907415463  1.0000
  Fe  Fe22      1.0  0.37527861819701136  0.20760102545889259  0.8839609871118277  1.0000
  S   S43       1.0  0.40053817606424935  0.1809801302578779  0.8913938223157531  1.0000
  S   S44       1.0  0.34796092501956044  0.2142708271575695  0.9286919915526751  1.0000
  Fe  Fe23      1.0  0.43896172565296593  0.2188487341444155  0.8587029183138377  1.0000
  S   S45       1.0  0.48911450809033546  0.23585926716092964  0.8763817910671984  1.0000
  Fe  Fe24      1.0  0.37841692614667743  0.15864454277194068  0.8377567094005935  1.0000
  S   S46       1.0  0.35905725660820165  0.10643026226958362  0.8368677157673152  1.0000
  S   S47       1.0  0.41553564700246715  0.24762076776319966  0.8556243399626563  1.0000
  S   S48       1.0  0.3505308242923862  0.18305982110256735  0.8320597084433918  1.0000
  C   C1        1.0  0.2545745810584178  0.03603834091385854  0.8197153622011359  1.0000
  C   C2        1.0  0.2742255743886737  0.027286287614661866  0.837428164248367  1.0000
  C   C3        1.0  0.3062269304362518  0.04915314745433996  0.8424742926153556  1.0000
  C   C4        1.0  0.31868790951582754  0.08003682935745486  0.8304965642558618  1.0000
  C   C5        1.0  0.29894233534568243  0.08902029709512312  0.8133822602506807  1.0000
  C   C6        1.0  0.2669849894542253  0.06697365527482717  0.8077818646638759  1.0000
  H   H1        1.0  0.24245427103956727  0.5667534019275464  0.8379813634008675  1.0000
  H   H2        1.0  0.3214308088346933  0.04211828035208745  0.8557675704760003  1.0000
  H   H3        1.0  0.3084330747565888  0.11272843176824744  0.8037459023097986  1.0000
  H   H4        1.0  0.25188755566578974  0.07384343815293813  0.7939100145359684  1.0000
  C   C7        1.0  0.05665045227158426  0.3275029809948824  0.8709827640967535  1.0000
  C   C8        1.0  0.06530013730547524  0.3068889959475268  0.8860194199066858  1.0000
  C   C9        1.0  0.04398695123831964  0.2745255360866708  0.885299461457552  1.0000
  C   C10       1.0  0.5167478511801555  0.2760871161342344  0.8791776095048855  1.0000
  C   C11       1.0  0.5077300146169381  0.2986836618492764  0.8759302596533075  1.0000
  C   C12       1.0  0.026789256126907305  0.3156311831940082  0.8549956064321785  1.0000
  H   H5        1.0  0.08816089101025108  0.3159363720165398  0.8988141364359797  1.0000
  H   H6        1.0  0.5554144233818082  0.26815996881746723  0.8891381405601247  1.0000
  H   H7        1.0  0.48353152366105956  0.29175151420437007  0.8702127503531043  1.0000
  H   H8        1.0  0.02004764706538999  0.3315338925673202  0.8432503359696737  1.0000
  C   C13       1.0  0.18807792013156396  0.3906654568078407  0.07491807193819258  1.0000
  C   C14       1.0  0.21961655569709115  0.40062077530949364  0.06850438561639673  1.0000
  C   C15       1.0  0.23030916576271895  0.40344372167681797  0.032673154159608586  1.0000
  C   C16       1.0  0.20968576059200017  0.3970597649095799  0.0030762684694023434  1.0000
  C   C17       1.0  0.17844535701637357  0.38849686867598743  0.009410314843583789  1.0000
  C   C18       1.0  0.16764508457545546  0.38520113538306083  0.04534418271938281  1.0000
  H   H9        1.0  0.2356694927908471  0.4056060325677983  0.09103958830853431  1.0000
  H   H10       1.0  0.25459135759525175  0.41040624558200384  0.02779187443538933  1.0000
  H   H11       1.0  0.16243012006177568  0.383584568838364  0.9866503225430114  1.0000
  H   H12       1.0  0.14324228584504964  0.3777545488015453  0.05018554693376699  1.0000
  C   C19       1.0  0.17238433812889678  0.37355727689939267  0.6656883576448128  1.0000
  C   C20       1.0  0.1652175151758407  0.38809617782531775  0.6937742622562479  1.0000
  C   C21       1.0  0.17353226336849464  0.38630105516783875  0.7300152568268544  1.0000
  C   C22       1.0  0.18939338353301008  0.37023597267326136  0.7383776233495122  1.0000
  C   C23       1.0  0.19657832225076466  0.3556795879723228  0.7102983836926187  1.0000
  C   C24       1.0  0.1879846620764946  0.357210661333489  0.6739974186302842  1.0000
  H   H13       1.0  0.15303457001704135  0.40066489581687603  0.6873860149794497  1.0000
  H   H14       1.0  0.16754198912806756  0.3972677029384812  0.7513501827245339  1.0000
  H   H15       1.0  0.20875076527805644  0.34309094573504767  0.7166157754288479  1.0000
  H   H16       1.0  0.19364981450415175  0.3460128109097966  0.6524123670926475  1.0000
  C   C25       1.0  0.20346565318679258  0.3681019253216078  0.40705778610722804  1.0000
  C   C26       1.0  0.2254279043373532  0.3775851172430548  0.37900077009186567  1.0000
  C   C27       1.0  0.21554796459463108  0.3679090178493986  0.342931915457274  1.0000
  C   C28       1.0  0.18360725708758058  0.34911649870804623  0.33464177484809604  1.0000
  C   C29       1.0  0.16171786777678415  0.3387780915888279  0.36288268021191283  1.0000
  C   C30       1.0  0.17161893102189482  0.348163413268429  0.3990837103019653  1.0000
  H   H17       1.0  0.2501496045059385  0.39240789280342736  0.3852419195592534  1.0000
  H   H18       1.0  0.23263062943283982  0.375086838256273  0.32156693628706656  1.0000
  H   H19       1.0  0.13698203484202623  0.3240401431960991  0.3566392150020756  1.0000
  H   H20       1.0  0.15454281570089165  0.34080152181670753  0.4206186888988464  1.0000
  C   C31       1.0  0.2794290820798031  0.01184579645214115  0.19064126301606163  1.0000
  C   C32       1.0  0.25050352730440534  0.0030226831206312532  0.2065996366932215  1.0000
  C   C33       1.0  0.24076502859693039  0.02516832098361268  0.21092989737096102  1.0000
  C   C34       1.0  0.2596316760204759  0.05604467917109556  0.19887201284105985  1.0000
  C   C35       1.0  0.28794343766979197  0.06445995310367415  0.18162637806775975  1.0000
  C   C36       1.0  0.2979595182088398  0.04253245651662386  0.17797071914512413  1.0000
  H   H21       1.0  0.22685383683141008  0.475050692635184  0.23542414251278626  1.0000
  H   H22       1.0  0.218819273412969  0.018505935798095098  0.22432607040524993  1.0000
  H   H23       1.0  0.30255318441910534  0.0881019419577239  0.17194169317019  1.0000
  H   H24       1.0  0.3203358845709312  0.04946269746875054  0.1655124946935184  1.0000
  C   C37       1.0  0.2535348389504752  0.2480083814247899  0.15766427164176053  1.0000
  C   C38       1.0  0.23141487051274615  0.25713114422390454  0.16555043910476872  1.0000
  C   C39       1.0  0.24104386344775336  0.2887907994715588  0.1719256927940342  1.0000
  C   C40       1.0  0.2727830093730297  0.31156169591331756  0.169438999876058  1.0000
  C   C41       1.0  0.2947202435795306  0.3024886975545102  0.16062559918169075  1.0000
  C   C42       1.0  0.28522131409311147  0.2708159587594795  0.15517460187529247  1.0000
  H   H25       1.0  0.20684890275459789  0.23953977682678712  0.16763003365917914  1.0000
  H   H26       1.0  0.22394667099052792  0.2954887182287135  0.17891814118078272  1.0000
  H   H27       1.0  0.319285765079945  0.32004347632558805  0.15833267544243582  1.0000
  H   H28       1.0  0.3023942006298194  0.2641172715250444  0.14861621574192876  1.0000
  C   C43       1.0  0.353139657391027  0.185670302259045  0.04614799074241996  1.0000
  C   C44       1.0  0.36966030662961413  0.18065019769654383  0.018605529178116274  1.0000
  C   C45       1.0  0.36801684283502173  0.18912526610996708  0.982493239744072  1.0000
  C   C46       1.0  0.3500335056184834  0.20291609977691608  0.9736963015691833  1.0000
  C   C47       1.0  0.33315082079155095  0.20755188026302332  0.0011511864354221135  1.0000
  C   C48       1.0  0.3346244440270943  0.1988909363172631  0.0373350260113509  1.0000
  H   H29       1.0  0.38381217979676685  0.17019129474857977  0.025338277109804935  1.0000
  H   H30       1.0  0.3806969278598082  0.18498137959861777  0.9616117941036656  1.0000
  H   H31       1.0  0.3190789852607545  0.21811954762444907  0.9945213015051912  1.0000
  H   H32       1.0  0.32179278171241876  0.20281344092861228  0.05846909625919082  1.0000
  C   C49       1.0  0.3694978221112177  0.20772046538369687  0.6422938648000308  1.0000
  C   C50       1.0  0.3637278339760397  0.18829963635438063  0.6725589398223079  1.0000
  C   C51       1.0  0.37182946194049804  0.20110674501076714  0.7078844670080809  1.0000
  C   C52       1.0  0.3855076209638837  0.23338197269270672  0.7129558107802049  1.0000
  C   C53       1.0  0.3915232326061311  0.25279091265090914  0.6826816090052379  1.0000
  C   C54       1.0  0.38366737893378844  0.24001223194959773  0.6474548220923529  1.0000
  H   H33       1.0  0.35297410732749496  0.16328401571476836  0.6687127372794592  1.0000
  H   H34       1.0  0.36716951226650246  0.18602297219211936  0.731195764156523  1.0000
  H   H35       1.0  0.4023414929499731  0.27780492582415306  0.6866102172678682  1.0000
  H   H36       1.0  0.3887064646981635  0.25519026624781876  0.6244006811127534  1.0000
  C   C55       1.0  0.5004101187486382  0.2935007562101261  0.5043857916231109  1.0000
  C   C56       1.0  0.49172167534647304  0.2620993655538833  0.49964133132601907  1.0000
  C   C57       1.0  0.012921565990848196  0.2515632183047858  0.5061272542514543  1.0000
  C   C58       1.0  0.045033938085691706  0.27287224192229287  0.5017348857752307  1.0000
  C   C59       1.0  0.054543779153244355  0.30324943129327264  0.49012424826064793  1.0000
  C   C60       1.0  0.03204152824059466  0.31204563045267153  0.48225511464818266  1.0000
  H   H37       1.0  0.46749381078863433  0.24476201116072097  0.49431344706400643  1.0000
  H   H38       1.0  0.005415202085258694  0.22801426234946387  0.5150975077969193  1.0000
  H   H39       1.0  0.07921094986409882  0.31980529854763684  0.4863847930560476  1.0000
  H   H40       1.0  0.5389882949702649  0.3401126434580605  0.5143996434501705  1.0000
  C   C61       1.0  0.23706698733721124  0.27551173279766555  0.5409281863449339  1.0000
  C   C62       1.0  0.25922633790369726  0.30639743818307985  0.5325623299704391  1.0000
  C   C63       1.0  0.28997824857016113  0.314265598046369  0.5234759124421619  1.0000
  C   C64       1.0  0.2987264976530859  0.2912993387087703  0.5220622499047178  1.0000
  C   C65       1.0  0.2762365783592368  0.2601420514203361  0.5291522005104953  1.0000
  C   C66       1.0  0.24560609074773096  0.2523676270534699  0.5390165353156785  1.0000
  H   H41       1.0  0.25290726600270635  0.32441125738720666  0.5338232819316948  1.0000
  H   H42       1.0  0.3072056296752089  0.3384094565615195  0.5180165903441868  1.0000
  H   H43       1.0  0.28252792410657307  0.24214246446276655  0.527645882862774  1.0000
  H   H44       1.0  0.22850163531352982  0.22838021319703894  0.545243793296978  1.0000
  C   C67       1.0  0.34501358133759363  0.19977433114892143  0.37519430066926646  1.0000
  C   C68       1.0  0.32861276632163405  0.17852175799332493  0.3468673159931856  1.0000
  C   C69       1.0  0.33212789442125473  0.18871718045711147  0.3105481127051864  1.0000
  C   C70       1.0  0.3526282427118729  0.2201429300117685  0.3024718475207968  1.0000
  C   C71       1.0  0.36845200424154473  0.24151800396708742  0.33084843266628755  1.0000
  C   C72       1.0  0.3643150159719313  0.23141434810599523  0.3671658958525603  1.0000
  H   H45       1.0  0.3129780480589915  0.15420280143447315  0.3532317685445809  1.0000
  H   H46       1.0  0.3191321668411003  0.17237162807197107  0.28882082497655387  1.0000
  H   H47       1.0  0.38377310542190196  0.2659828751354125  0.3246911031382869  1.0000
  H   H48       1.0  0.37614083191172715  0.24800353583146675  0.38890954500788805  1.0000
  Fe  Fe25      1.0  0.3811360002835254  0.7335055578947514  0.4893221648648468  1.0000
  S   S49       1.0  0.4041146627507248  0.7857467375965476  0.48508451194991387  1.0000
  S   S50       1.0  0.3594235208298281  0.6973925989116713  0.4443370321358167  1.0000
  Fe  Fe26      1.0  0.39517336635329725  0.7358823661036007  0.5709032064727307  1.0000
  S   S51       1.0  0.4196271697001827  0.7881179587871386  0.573065629548298  1.0000
  S   S52       1.0  0.3893972684200603  0.7048613019696075  0.6187847666019151  1.0000
  Fe  Fe27      1.0  0.3796147276911651  0.7826155030325275  0.537618765552485  1.0000
  S   S53       1.0  0.35986071920132534  0.8137718612895746  0.5520793094034653  1.0000
  Fe  Fe28      1.0  0.44195865944929724  0.7864431692744083  0.5207479519187557  1.0000
  S   S54       1.0  0.4928891253743518  0.821081839274516  0.509137206316095  1.0000
  S   S55       1.0  0.353439244487241  0.7301540885072411  0.5390496416528002  1.0000
  S   S56       1.0  0.42071490197157957  0.7344159321088898  0.5213158055543246  1.0000
  Fe  Fe29      1.0  0.3311370110421625  0.6762841631978758  0.1581743419904909  1.0000
  S   S57       1.0  0.2788435432500817  0.6493259992001233  0.15198763218291264  1.0000
  S   S58       1.0  0.3641943912469414  0.6799894740359178  0.11369613214790229  1.0000
  Fe  Fe30      1.0  0.32858334411888723  0.6972300489387655  0.23593280237250175  1.0000
  S   S59       1.0  0.27580762827158123  0.6713668508656595  0.23575987965896494  1.0000
  S   S60       1.0  0.35862577627864145  0.7332530296534489  0.2786755852122292  1.0000
  Fe  Fe31      1.0  0.27958590458445265  0.6323590123122014  0.20867744449707065  1.0000
  S   S61       1.0  0.24517003601912932  0.5812579326241876  0.2207208101204872  1.0000
  Fe  Fe32      1.0  0.2800075924036888  0.6905693828616473  0.17939832164776648  1.0000
  S   S62       1.0  0.25041643434059735  0.7103141098807526  0.1573552534618399  1.0000
  S   S63       1.0  0.3323031608158091  0.6568498965767992  0.21334909174835887  1.0000
  S   S64       1.0  0.3324092526535813  0.7188633057806986  0.18097455550494904  1.0000
  Fe  Fe33      1.0  0.19816774508180918  0.8464048117305095  0.4820654921737794  1.0000
  S   S65       1.0  0.1714542881859109  0.793919897896264  0.48190288102006235  1.0000
  S   S66       1.0  0.2283150846884859  0.8761800243738098  0.4356739142855061  1.0000
  Fe  Fe34      1.0  0.1849844827752737  0.8506301270233461  0.5625385347808075  1.0000
  S   S67       1.0  0.15854649489386965  0.7986060223247673  0.5686777128716823  1.0000
  S   S68       1.0  0.1852766120102288  0.8837176040355427  0.6054979623670526  1.0000
  Fe  Fe35      1.0  0.19647532112807656  0.7988068064619452  0.5351668997386475  1.0000
  S   S69       1.0  0.21402626265478342  0.7648836309459546  0.5440149231460203  1.0000
  Fe  Fe36      1.0  0.13578729115315322  0.7983465660117697  0.5152255269923558  1.0000
  S   S70       1.0  0.08326018238573613  0.7653064773296294  0.5147070684971455  1.0000
  S   S71       1.0  0.22539543734413706  0.8511709489747413  0.5337091920656668  1.0000
  S   S72       1.0  0.1602389719519639  0.8505494183366296  0.5106050468178449  1.0000
  Fe  Fe37      1.0  0.2654732254161588  0.8732057989654167  0.17879449074936501  1.0000
  S   S73       1.0  0.2131226159178055  0.8430050225802866  0.1773448049090787  1.0000
  S   S74       1.0  0.2992672112375082  0.8547680822612758  0.17930390748466388  1.0000
  Fe  Fe38      1.0  0.26246584227003755  0.9331475548000971  0.18899584061178826  1.0000
  S   S75       1.0  0.20979007087103704  0.9071480051381438  0.18978253025198505  1.0000
  S   S76       1.0  0.2939907636522309  0.9858542188704696  0.1876142215693029  1.0000
  Fe  Fe39      1.0  0.21431086679288583  0.8722109395374227  0.22488499246565707  1.0000
  S   S77       1.0  0.18206915737237242  0.844451149377255  0.2709769231014667  1.0000
  Fe  Fe40      1.0  0.21344990488930263  0.8804651042162216  0.1423360557321433  1.0000
  S   S78       1.0  0.17957741786462234  0.871006302527248  0.0953916580161451  1.0000
  S   S79       1.0  0.266878329730913  0.9005343500764844  0.22838963362948467  1.0000
  S   S80       1.0  0.26596692276317746  0.9083286996368312  0.13949410603595902  1.0000
  Fe  Fe41      1.0  0.19801447129248118  0.9175388997563184  0.8914837646937804  1.0000
  S   S81       1.0  0.17252096278678344  0.9445024239045644  0.8873048648281572  1.0000
  S   S82       1.0  0.23002130134555038  0.9178330009519482  0.9362357522315613  1.0000
  Fe  Fe42      1.0  0.18270837352392094  0.8941669225707912  0.8130529866491399  1.0000
  S   S83       1.0  0.15594731337115011  0.9190337522599713  0.8018871493320724  1.0000
  S   S84       1.0  0.1935895353646251  0.864818150133246  0.7753488579819139  1.0000
  Fe  Fe43      1.0  0.19508697463321897  0.9594751693369208  0.8325108967447757  1.0000
  S   S85       1.0  0.21491413703876358  0.008535041051767944  0.8104728864717718  1.0000
  Fe  Fe44      1.0  0.13525201715716942  0.9019123040815599  0.8572062630038675  1.0000
  S   S86       1.0  0.08359475705887313  0.8841287739041214  0.8658356866131756  1.0000
  S   S87       1.0  0.223509283015454  0.9359505116513531  0.8388967652879685  1.0000
  S   S88       1.0  0.15900821793089187  0.8737669657178095  0.8661832249035919  1.0000
  Fe  Fe45      1.0  0.38514160837257544  0.7176801979255107  0.82658276504281  1.0000
  S   S89       1.0  0.4110009656762487  0.6911021690582404  0.8253462265165405  1.0000
  S   S90       1.0  0.38441390405916953  0.7473940913421905  0.7800363374584608  1.0000
  Fe  Fe46      1.0  0.36995849620069815  0.704546260278905  0.9070903789333855  1.0000
  S   S91       1.0  0.3956801987043341  0.6779733067593038  0.9123903320074297  1.0000
  S   S92       1.0  0.3405558594984104  0.7081468487666165  0.9517728659901897  1.0000
  Fe  Fe47      1.0  0.4326452702892559  0.7158994898765473  0.8780785086546395  1.0000
  S   S93       1.0  0.4842684083250163  0.7328820488017064  0.8860808583921098  1.0000
  Fe  Fe48      1.0  0.3717819486312829  0.6554903788008541  0.8594522050124944  1.0000
  S   S94       1.0  0.35503264957933356  0.6038953505362261  0.8545295735372556  1.0000
  S   S95       1.0  0.4092277932810374  0.7447940056438479  0.8774998968919299  1.0000
  S   S96       1.0  0.3435891041312097  0.6796968045603601  0.8559696271994065  1.0000
  C   C73       1.0  0.25100055888400696  0.5290781908234665  0.8507342217959976  1.0000
  C   C74       1.0  0.260115478200997  0.560447211599425  0.8441173674589666  1.0000
  C   C75       1.0  0.2919888240871186  0.5837160124708376  0.8451685196650489  1.0000
  C   C76       1.0  0.3149007161943406  0.5755966700001911  0.8525034305445106  1.0000
  C   C77       1.0  0.30577972499042494  0.5442141394275141  0.8589526015061708  1.0000
  C   C78       1.0  0.2739084549323716  0.5210338976309659  0.8583978829895326  1.0000
  H   H49       1.0  0.26491912814437407  0.003625086843504599  0.8469766939202747  1.0000
  H   H50       1.0  0.29882703272812833  0.6078177882909838  0.8398404789201906  1.0000
  H   H51       1.0  0.3234603590198586  0.5378549774189809  0.8647222237023469  1.0000
  H   H52       1.0  0.267171270580731  0.4969947375864787  0.8637701541366579  1.0000
  C   C79       1.0  0.05681461486723363  0.844576074737539  0.8554403891796605  1.0000
  C   C80       1.0  0.06700656055949299  0.822977175164938  0.8515074385946779  1.0000
  C   C81       1.0  0.045136720714530384  0.7912623588138143  0.8452638969095104  1.0000
  C   C82       1.0  0.5123111706133764  0.7728981422394979  0.883395873491282  1.0000
  C   C83       1.0  0.5038863535623082  0.7958826111585005  0.8869749014163065  1.0000
  C   C84       1.0  0.02462562707287825  0.8343250047645365  0.8521976555273714  1.0000
  H   H53       1.0  0.09167697099416736  0.8305724463461198  0.8539261269321583  1.0000
  H   H54       1.0  0.55035862814901  0.7641072999172591  0.8742964576661473  1.0000
  H   H55       1.0  0.4798031039738263  0.7891841568423202  0.8925616221267675  1.0000
  H   H56       1.0  0.016650942255857226  0.8510087849905682  0.8549632303400024  1.0000
  C   C85       1.0  0.1936802476170577  0.8831703127783456  0.050982085009638335  1.0000
  C   C86       1.0  0.22521866517113956  0.894588768122213  0.042688909519046504  1.0000
  C   C87       1.0  0.23602524012900264  0.9051194734147143  0.007335383389103667  1.0000
  C   C88       1.0  0.21541775714400102  0.9043321897013147  0.9800980021189033  1.0000
  C   C89       1.0  0.18383872409365085  0.892801344850524  0.9882594329720465  1.0000
  C   C90       1.0  0.17301576967953058  0.8822059195014778  0.023649624772436893  1.0000
  H   H57       1.0  0.24126018289743856  0.8951498561286537  0.06341091527810294  1.0000
  H   H58       1.0  0.2604780235949272  0.9139443081657225  0.0011037941966050013  1.0000
  H   H59       1.0  0.16777337466099596  0.892074481795005  0.9673842349476379  1.0000
  H   H60       1.0  0.1485631306117065  0.8733520718441222  0.0299314973490877  1.0000
  C   C91       1.0  0.18563433562557613  0.8762160105582016  0.6523736888976815  1.0000
  C   C92       1.0  0.17769861012936472  0.8926314999674481  0.6771652757735541  1.0000
  C   C93       1.0  0.17951200990134147  0.8888209670607583  0.714870570814383  1.0000
  C   C94       1.0  0.18932923454514025  0.8685475509705136  0.7280889552185905  1.0000
  C   C95       1.0  0.19656332580491567  0.8515315127648988  0.7032721003418074  1.0000
  C   C96       1.0  0.19459480385594904  0.855235605625303  0.6654446191264489  1.0000
  H   H61       1.0  0.17031171193537428  0.9085387440529665  0.6671303366607707  1.0000
  H   H62       1.0  0.1734262730490245  0.9016603978487635  0.733666231408114  1.0000
  H   H63       1.0  0.20403492217421937  0.8356847594068908  0.7133057709136256  1.0000
  H   H64       1.0  0.20069149815953632  0.8424210265437582  0.646483792956331  1.0000
  C   C97       1.0  0.21510843160593077  0.8667588014329899  0.39010399681948815  1.0000
  C   C98       1.0  0.23498231713801962  0.8849814771759918  0.36197652863253804  1.0000
  C   C99       1.0  0.22515008120273908  0.8783254759383522  0.32533652628756127  1.0000
  C   C100      1.0  0.19528654522752678  0.8534323150271782  0.31662708299987796  1.0000
  C   C101      1.0  0.17557118109176534  0.8349224134378982  0.34473520291522886  1.0000
  C   C102      1.0  0.18545763341642266  0.8414926072563347  0.38140380048523376  1.0000
  H   H65       1.0  0.2579144352822085  0.904618686070672  0.368566139024615  1.0000
  H   H66       1.0  0.2404598049996191  0.8928073018879649  0.30394219331962313  1.0000
  H   H67       1.0  0.152400396436605  0.8156556842488346  0.33816120117753073  1.0000
  H   H68       1.0  0.16994795082540973  0.8273498925348048  0.40290234511201545  1.0000
  C   C103      1.0  0.27608485529709653  0.5080825784649388  0.2290968721875364  1.0000
  C   C104      1.0  0.244396161674728  0.4992998088482869  0.2316598722220533  1.0000
  C   C105      1.0  0.2353547774915147  0.5220912731546583  0.22982721007069684  1.0000
  C   C106      1.0  0.25779672585084673  0.5537176481582672  0.22466559386350768  1.0000
  C   C107      1.0  0.28946118991247993  0.5624717864656703  0.22202344489344505  1.0000
  C   C108      1.0  0.2985768890334727  0.539741912319872  0.22463297246345018  1.0000
  H   H69       1.0  0.2361366309445274  0.9794674258239406  0.21666957919391283  1.0000
  H   H70       1.0  0.21082571213463158  0.5152312541559215  0.2320347899289959  1.0000
  H   H71       1.0  0.3069643130691726  0.5867691338848855  0.2181843838010534  1.0000
  H   H72       1.0  0.32317998888298555  0.5467537660235506  0.22291413709467395  1.0000
  C   C109      1.0  0.2634210153528839  0.7501347303609534  0.16517199459310503  1.0000
  C   C110      1.0  0.24617316864753733  0.7632333128311398  0.15054897903183687  1.0000
  C   C111      1.0  0.2566277627056481  0.7952184882269905  0.15529831330781943  1.0000
  C   C112      1.0  0.2846573199908407  0.8143451936561594  0.17428776730653792  1.0000
  C   C113      1.0  0.3017010171314837  0.8011755856602784  0.1892793071413388  1.0000
  C   C114      1.0  0.2909404212597246  0.7690887848453647  0.18510874188345852  1.0000
  H   H73       1.0  0.22479584721919196  0.7486325107863411  0.13518784118087507  1.0000
  H   H74       1.0  0.2434304444955511  0.8052184822945723  0.14347442475530722  1.0000
  H   H75       1.0  0.3232812818357954  0.8158332958103522  0.20428216654492334  1.0000
  H   H76       1.0  0.3040766196229597  0.759110259366568  0.19713049685698647  1.0000
  C   C115      1.0  0.35632165052264564  0.6856889056155464  0.06835834514921357  1.0000
  C   C116      1.0  0.3278679007722756  0.6836456449922693  0.05827708040140059  1.0000
  C   C117      1.0  0.32308069718086824  0.6902232182925053  0.022242297969721214  1.0000
  C   C118      1.0  0.3465696239293651  0.6985819454039498  0.996159313518586  1.0000
  C   C119      1.0  0.3745746489467871  0.6996187049470539  0.005966510611864262  1.0000
  C   C120      1.0  0.3794258645335178  0.6932287500624792  0.04199977422797785  1.0000
  H   H77       1.0  0.3098029399368799  0.6774803883679026  0.0783684103019793  1.0000
  H   H78       1.0  0.30120261204028376  0.6889946327248029  0.014576889488896239  1.0000
  H   H79       1.0  0.39288086749519235  0.7061770145726645  0.98608853195148  1.0000
  H   H80       1.0  0.401453553157554  0.6947608741786179  0.049682606221241384  1.0000
  C   C121      1.0  0.3893332371958576  0.717570313017921  0.6635354207338332  1.0000
  C   C122      1.0  0.3840105104896669  0.6971226720384588  0.6926031411186307  1.0000
  C   C123      1.0  0.3827980461212767  0.7061650287016346  0.7285522691158626  1.0000
  C   C124      1.0  0.386661056226507  0.735664499872597  0.7355173211886784  1.0000
  C   C125      1.0  0.3924206213164703  0.7563351556350894  0.706550977486176  1.0000
  C   C126      1.0  0.39397500277488134  0.7473960038567019  0.670626635941133  1.0000
  H   H81       1.0  0.38051936360755084  0.6740524433048204  0.6872403269077857  1.0000
  H   H82       1.0  0.37830406756734497  0.690061749569934  0.7507260503066118  1.0000
  H   H83       1.0  0.39577031537166285  0.779327922948111  0.7119701035323989  1.0000
  H   H84       1.0  0.39859967261244383  0.7634449953129264  0.6484214486944877  1.0000
  C   C127      1.0  0.5204286638989372  0.8085028524944988  0.5049804875136078  1.0000
  C   C128      1.0  0.5118726413508482  0.7771933712634338  0.5099845058128741  1.0000
  C   C129      1.0  0.025131131989070892  0.7590861110878921  0.5077529911325102  1.0000
  C   C130      1.0  0.05695468277325853  0.777147618315296  0.498834985155378  1.0000
  C   C131      1.0  0.06709585221662329  0.804261728036919  0.47817091569224196  1.0000
  C   C132      1.0  0.04530617584304775  0.8128841589486077  0.4660055415571147  1.0000
  H   H85       1.0  0.48805123674554535  0.7602221265174584  0.5169598118884429  1.0000
  H   H86       1.0  0.017161575255349795  0.7381110225461126  0.5238036013961244  1.0000
  H   H87       1.0  0.09157965943085714  0.8182704952698248  0.47102468983892504  1.0000
  H   H88       1.0  0.5583954813763211  0.8546892313249688  0.4927327346977961  1.0000
  C   C133      1.0  0.2545932753037586  0.7788188376051254  0.5458881621291863  1.0000
  C   C134      1.0  0.27570163855458374  0.8092117665956939  0.5577295766722509  1.0000
  C   C135      1.0  0.3079944793668139  0.8196660492376013  0.5593818260381085  1.0000
  C   C136      1.0  0.3193420961964884  0.7999023888696696  0.5489059451086258  1.0000
  C   C137      1.0  0.2982500452128313  0.7695795240887603  0.5367087570186351  1.0000
  C   C138      1.0  0.2659028641982694  0.7589716548406725  0.535616360992465  1.0000
  H   H89       1.0  0.2670840617418108  0.8244866206191543  0.5661549122890275  1.0000
  H   H90       1.0  0.3242481132270951  0.8431325693627882  0.5689236424161638  1.0000
  H   H91       1.0  0.3067885117479956  0.7542864747664912  0.5281191101423085  1.0000
  H   H92       1.0  0.24958998175874897  0.735416713047354  0.5263684490093707  1.0000
  C   C139      1.0  0.35690460385165185  0.707694326698217  0.3989316320639994  1.0000
  C   C140      1.0  0.3429667860417667  0.6840242195543952  0.37237641815860895  1.0000
  C   C141      1.0  0.34261413308538563  0.6915049050167754  0.33544993034848  1.0000
  C   C142      1.0  0.35665744589260345  0.7227829767992747  0.32486120642308924  1.0000
  C   C143      1.0  0.3704358349059152  0.7464587640483648  0.35144142084827984  1.0000
  C   C144      1.0  0.37025345230145285  0.7389641391987523  0.38843311033049094  1.0000
  H   H93       1.0  0.3326231595275095  0.6597852307503309  0.38033167634835635  1.0000
  H   H94       1.0  0.3319916592514146  0.6731249507270098  0.31511181450792  1.0000
  H   H95       1.0  0.3812188852958185  0.7706897070936097  0.3433196105545692  1.0000
  H   H96       1.0  0.3807040335869516  0.7573878323245263  0.40864743476582677  1.0000
  Fe  Fe49      1.0  0.8574452529174131  0.220008529398059  0.46424919947370435  1.0000
  S   S97       1.0  0.8824826239885397  0.27204975962277705  0.4583691822613512  1.0000
  S   S98       1.0  0.8310914121234249  0.18551295105637572  0.4188889256439818  1.0000
  Fe  Fe50      1.0  0.8772206940259238  0.22396955592886342  0.5440288886601077  1.0000
  S   S99       1.0  0.9031920976087684  0.2764056206801072  0.5444337898253624  1.0000
  S   S100      1.0  0.8815055387208742  0.19573345837864756  0.5898250942169246  1.0000
  Fe  Fe51      1.0  0.8615017247313506  0.2715319953800239  0.5126859193814746  1.0000
  S   S101      1.0  0.8442105914157639  0.3059608508808961  0.5191513715240065  1.0000
  Fe  Fe52      1.0  0.9214755818811106  0.2718665792416122  0.4905087860948759  1.0000
  S   S102      1.0  0.9724106084932282  0.30243350914601563  0.4756620084955695  1.0000
  S   S103      1.0  0.8337383953884622  0.21908183766887881  0.5167697367399549  1.0000
  S   S104      1.0  0.8982053004823931  0.21985074837664648  0.4917729425241306  1.0000
  Fe  Fe53      1.0  0.838455689404118  0.17339335160905545  0.13123655767928571  1.0000
  S   S105      1.0  0.7859527420248827  0.14627325469489894  0.12633313135234753  1.0000
  S   S106      1.0  0.8700345087637619  0.1724257905749652  0.08768640990988512  1.0000
  Fe  Fe54      1.0  0.8372917317538894  0.1924397590553235  0.20972323224211997  1.0000
  S   S107      1.0  0.7846956339640154  0.166144713377472  0.2114320256051734  1.0000
  S   S108      1.0  0.8678467610385718  0.22494280194321675  0.25480825259888235  1.0000
  Fe  Fe55      1.0  0.7877766021390732  0.12797371488331152  0.18173764527666916  1.0000
  S   S109      1.0  0.7540273389287876  0.07653315408201342  0.19157527196055626  1.0000
  Fe  Fe56      1.0  0.787437966079291  0.1867567237511428  0.15616230420579166  1.0000
  S   S110      1.0  0.7534411462606047  0.20393628298794933  0.14418063947905907  1.0000
  S   S111      1.0  0.8403749171139765  0.15252365209310761  0.18502804354221106  1.0000
  S   S112      1.0  0.8400115308937851  0.21565525275825068  0.15608273868013678  1.0000
  Fe  Fe57      1.0  0.6890365525650779  0.3451008900139638  0.49213254742940676  1.0000
  S   S113      1.0  0.6626861298656682  0.2926916263285132  0.4930173392230575  1.0000
  S   S114      1.0  0.7212284634309509  0.3729068556732706  0.446127659626706  1.0000
  Fe  Fe58      1.0  0.6729660277740173  0.34988647227307307  0.5712165456820111  1.0000
  S   S115      1.0  0.645710975222098  0.2978658799657643  0.578204185883628  1.0000
  S   S116      1.0  0.6822024134907956  0.385603565901875  0.6151676583400832  1.0000
  Fe  Fe59      1.0  0.6852518084878728  0.298004623368426  0.5479261448642813  1.0000
  S   S117      1.0  0.7056981219934526  0.26793760162793556  0.5652677901562896  1.0000
  Fe  Fe60      1.0  0.6255000877014754  0.29750015640905864  0.5227934607934317  1.0000
  S   S118      1.0  0.5741121772030495  0.2629076325619743  0.510935726382004  1.0000
  S   S119      1.0  0.7140794767172122  0.35003724559343735  0.5453962492393828  1.0000
  S   S120      1.0  0.6502509278926832  0.34988486826419557  0.5175238274407085  1.0000
  Fe  Fe61      1.0  0.7643017101593038  0.3638701589589326  0.18737356116972034  1.0000
  S   S121      1.0  0.7117641492250749  0.33556019686643773  0.1839348979867966  1.0000
  S   S122      1.0  0.7978031728634415  0.34623700569203947  0.17606192916814994  1.0000
  Fe  Fe62      1.0  0.7641928369759242  0.42361861822911906  0.20805362814042108  1.0000
  S   S123      1.0  0.7117082014923557  0.3999408806544236  0.2064396879447659  1.0000
  S   S124      1.0  0.7964731460488643  0.4744718223120552  0.22226683333816538  1.0000
  Fe  Fe63      1.0  0.7132505185889472  0.3607828922801599  0.2356699263400829  1.0000
  S   S125      1.0  0.6796659776008825  0.33513447323487733  0.2814065728500558  1.0000
  Fe  Fe64      1.0  0.7153729073047624  0.377355936411798  0.1551132585503136  1.0000
  S   S126      1.0  0.6840642379397711  0.3726335573985063  0.10723827396356372  1.0000
  S   S127      1.0  0.7656866743101427  0.38617221789088985  0.24125193128794403  1.0000
  S   S128      1.0  0.7679302278912555  0.4039669118871266  0.15449606647928696  1.0000
  Fe  Fe65      1.0  0.705650184058406  0.4105671025741051  0.9027609036750737  1.0000
  S   S129      1.0  0.6810457020745729  0.4383837015459872  0.9047889059174471  1.0000
  S   S130      1.0  0.7380738251860411  0.412580765552657  0.9482190055912192  1.0000
  Fe  Fe66      1.0  0.68238911843046  0.38688731288490197  0.8255360886590969  1.0000
  S   S131      1.0  0.6567758688635134  0.4135117012824481  0.8213604669528723  1.0000
  S   S132      1.0  0.6765629413323326  0.3515125176627109  0.7824085658578238  1.0000
  Fe  Fe67      1.0  0.6994255834577883  0.45310199784670374  0.8481891950437496  1.0000
  S   S133      1.0  0.7151599058751716  0.5025808963599849  0.8303323544809179  1.0000
  Fe  Fe68      1.0  0.640586428208254  0.39636790936531474  0.8779417036129025  1.0000
  S   S134      1.0  0.5896358225754231  0.38014903969398905  0.8894861638657302  1.0000
  S   S135      1.0  0.7268044124299077  0.42794455967083334  0.8474654373822601  1.0000
  S   S136      1.0  0.6635691027242703  0.367108910355518  0.8808632571792806  1.0000
  Fe  Fe69      1.0  0.8919350296893489  0.20960384420914094  0.7993935515948293  1.0000
  S   S137      1.0  0.9180005460173741  0.18330922334686764  0.7962082039481607  1.0000
  S   S138      1.0  0.8860384525076743  0.23698555320256592  0.7536666036729371  1.0000
  Fe  Fe70      1.0  0.8747421400816405  0.19255838863981606  0.8791263472205831  1.0000
  S   S139      1.0  0.8992471566735263  0.16475477597939672  0.8822420432780741  1.0000
  S   S140      1.0  0.8489635745579299  0.20038775979943754  0.9246426184679493  1.0000
  Fe  Fe71      1.0  0.9376238996903995  0.2045579544001195  0.8512011457208305  1.0000
  S   S141      1.0  0.9878604401634515  0.2221479661706479  0.869127768116617  1.0000
  Fe  Fe72      1.0  0.8772210577942856  0.1459735859972575  0.827317936421887  1.0000
  S   S142      1.0  0.8583874972711575  0.09523895738894189  0.8122639348859805  1.0000
  S   S143      1.0  0.9146954877496863  0.23388887330089508  0.8521733311926871  1.0000
  S   S144      1.0  0.8495862294693717  0.17076224991755554  0.8264485180099514  1.0000
  C   C145      1.0  0.753294144648053  0.02353788355688027  0.8129661031675196  1.0000
  C   C146      1.0  0.7754530904124304  0.013850694869985065  0.8160417241633995  1.0000
  C   C147      1.0  0.8076740902499904  0.036072413663174666  0.8163044911109202  1.0000
  C   C148      1.0  0.8178988227366245  0.06814226962423002  0.8152630830241974  1.0000
  C   C149      1.0  0.7956943620612497  0.07786434619308208  0.8143738824006825  1.0000
  C   C150      1.0  0.7635021325517345  0.05561350364845852  0.8123314856597157  1.0000
  H   H97       1.0  0.7715281332264431  0.4982538478244434  0.841457467938943  1.0000
  H   H98       1.0  0.8247748025318516  0.02845075986000968  0.817662536857082  1.0000
  H   H99       1.0  0.80332189266877  0.10246482577337541  0.8147369828558305  1.0000
  H   H100      1.0  0.746409850066605  0.06322569747971886  0.8105752758129217  1.0000
  C   C151      1.0  0.5618774149102441  0.3399969191720192  0.8866241259207742  1.0000
  C   C152      1.0  0.570910723736676  0.31742860370222437  0.889603290913802  1.0000
  C   C153      1.0  0.5483302165338438  0.28555143580513925  0.8862972327371823  1.0000
  C   C154      1.0  0.014102322413065416  0.26267767624956706  0.8692976646529599  1.0000
  C   C155      1.0  0.005685699338515926  0.2832841594931135  0.8537667809191609  1.0000
  C   C156      1.0  0.5301523592879672  0.33050707387334355  0.8803906216485682  1.0000
  H   H101      1.0  0.5952267148068693  0.32448642914032994  0.8948623429585031  1.0000
  H   H102      1.0  0.05058431374103067  0.2586323164359125  0.8973755764170391  1.0000
  H   H103      1.0  0.9829237292579043  0.2743689092191295  0.840848242541107  1.0000
  H   H104      1.0  0.5230698542261952  0.3479320033794448  0.8780315399108072  1.0000
  C   C157      1.0  0.699629404191791  0.3851978975104854  0.0634759884160784  1.0000
  C   C158      1.0  0.6793611175758136  0.3817344819986561  0.03442790698543957  1.0000
  C   C159      1.0  0.6909457854547839  0.39044752572221353  0.9989380477338929  1.0000
  C   C160      1.0  0.7228620815822187  0.4024365202883256  0.9923705931322541  1.0000
  C   C161      1.0  0.7431922463891726  0.4062208979234217  0.021491029444087983  1.0000
  C   C162      1.0  0.7316577163999111  0.3978392581002283  0.05700220626509007  1.0000
  H   H105      1.0  0.6545330456053349  0.37197909361268966  0.03926787125275806  1.0000
  H   H106      1.0  0.675131613179922  0.38748728705169305  0.9765764664804427  1.0000
  H   H107      1.0  0.7679630978516936  0.4157361441028834  0.01647494808370853  1.0000
  H   H108      1.0  0.7475469128211238  0.40113208775806936  0.07922536254281874  1.0000
  C   C163      1.0  0.678919020121288  0.3755015816514891  0.6615967086473417  1.0000
  C   C164      1.0  0.6887647540374332  0.39909812116450316  0.6881553458116445  1.0000
  C   C165      1.0  0.6879740933971907  0.3920149177283022  0.725379176346586  1.0000
  C   C166      1.0  0.6775451893505733  0.36126615992784444  0.736163736979268  1.0000
  C   C167      1.0  0.6672424120662861  0.33756085812449316  0.709672674556506  1.0000
  C   C168      1.0  0.6676497190261226  0.34460586159051354  0.6724859130183976  1.0000
  H   H109      1.0  0.6973907069983731  0.4230445120575755  0.6798780931441148  1.0000
  H   H110      1.0  0.695844833010387  0.41042039440843464  0.7456578484292409  1.0000
  H   H111      1.0  0.6587765185894627  0.3136630301186679  0.7179928874271674  1.0000
  H   H112      1.0  0.6595285948307396  0.3262307286866633  0.652258069641984  1.0000
  C   C169      1.0  0.7093945316601127  0.36108997528364967  0.400781855079263  1.0000
  C   C170      1.0  0.7319375603873127  0.3734074896016785  0.37327743211710895  1.0000
  C   C171      1.0  0.7231741863685622  0.36514634032902316  0.3366165587092749  1.0000
  C   C172      1.0  0.6917492213792243  0.3446749233691606  0.3272583298669625  1.0000
  C   C173      1.0  0.6693596015803955  0.3317092218646462  0.35491357162445025  1.0000
  C   C174      1.0  0.6781363289502264  0.33984563883575314  0.3916386470263071  1.0000
  H   H113      1.0  0.7562406476950256  0.38945837236195024  0.3804075800620863  1.0000
  H   H114      1.0  0.7406567758160603  0.37466793866210124  0.3155873276902275  1.0000
  H   H115      1.0  0.645024505983448  0.31568526356728543  0.3478349166789558  1.0000
  H   H116      1.0  0.6606189664698529  0.33016176669899  0.41273442421765  1.0000
  C   C175      1.0  0.7879111500863891  0.005903949952816401  0.18187495898828815  1.0000
  C   C176      1.0  0.7559373254774732  0.9960616952686178  0.17897172788573693  1.0000
  C   C177      1.0  0.7457261431129267  0.0178602321112337  0.18270212507684094  1.0000
  C   C178      1.0  0.7674832583455656  0.049689164045852385  0.18842560453597598  1.0000
  C   C179      1.0  0.7994595004941684  0.05954531041341593  0.19087016069005755  1.0000
  C   C180      1.0  0.8095912694175165  0.03767073215919355  0.18781598991094153  1.0000
  H   H117      1.0  0.7348354702109284  0.4677829474009704  0.21135308476348882  1.0000
  H   H118      1.0  0.7209590923037423  0.010180918080889423  0.18045845513830494  1.0000
  H   H119      1.0  0.816373528536444  0.08394734199259662  0.1955940785293002  1.0000
  H   H120      1.0  0.8343665382236702  0.04539240132887546  0.1901975924259747  1.0000
  C   C181      1.0  0.7658990057243434  0.24367566864464768  0.15145786212303067  1.0000
  C   C182      1.0  0.7434499697103406  0.25272892884007875  0.1573766133971761  1.0000
  C   C183      1.0  0.7528584288862  0.2840579507757883  0.16546058063232888  1.0000
  C   C184      1.0  0.7847838629908948  0.30663282252917373  0.16657330052705857  1.0000
  C   C185      1.0  0.8071366236519552  0.29763931149435796  0.1599290988570198  1.0000
  C   C186      1.0  0.7977716449772184  0.2662326651057183  0.15272990550682802  1.0000
  H   H121      1.0  0.7187361073610682  0.23527175773240674  0.1566979178596495  1.0000
  H   H122      1.0  0.7354145528082229  0.2906166619009447  0.17098706694364407  1.0000
  H   H123      1.0  0.8318751136014094  0.31503991759749517  0.16055004759874406  1.0000
  H   H124      1.0  0.8152320722094165  0.25955869196402126  0.14785871708410037  1.0000
  C   C187      1.0  0.8634705823912854  0.17976874392917658  0.042513596187800755  1.0000
  C   C188      1.0  0.8425657540404379  0.1903005907968312  0.03431209048225149  1.0000
  C   C189      1.0  0.8379006908280628  0.19608257236102655  0.997924044436202  1.0000
  C   C190      1.0  0.8536999712206527  0.19089777209780315  0.9696109387068717  1.0000
  C   C191      1.0  0.8740508057495169  0.17967044489844802  0.9778195663380715  1.0000
  C   C192      1.0  0.8791840386345194  0.17445237959405355  0.01422467765069313  1.0000
  H   H125      1.0  0.8302950782283065  0.1943773831692327  0.055995714744075414  1.0000
  H   H126      1.0  0.8221203188190566  0.20477482373972392  0.9917024129514963  1.0000
  H   H127      1.0  0.8860970566924589  0.17535819962655513  0.9561986871336302  1.0000
  H   H128      1.0  0.8951928234482028  0.16605052043824883  0.020476463897207083  1.0000
  C   C193      1.0  0.8851949659752104  0.20942893315197125  0.6347366463371779  1.0000
  C   C194      1.0  0.8955570304436838  0.19679093308483958  0.6620953635206867  1.0000
  C   C195      1.0  0.8974848656189485  0.2062853411176103  0.6985314164340357  1.0000
  C   C196      1.0  0.888358685108099  0.22795617485882425  0.7078639514763776  1.0000
  C   C197      1.0  0.878992471844155  0.2413571159831852  0.6803003908034951  1.0000
  C   C198      1.0  0.8774287071205232  0.23214525039679731  0.6437558320756042  1.0000
  H   H129      1.0  0.9018418767214926  0.17938055745816256  0.6551134255957245  1.0000
  H   H130      1.0  0.9053883867120526  0.19633273321473266  0.7194574443952103  1.0000
  H   H131      1.0  0.8720069079963321  0.2582317051064565  0.6873843669348546  1.0000
  H   H132      1.0  0.8693880770434542  0.2419765991780785  0.6227617156955526  1.0000
  C   C199      1.0  0.9999630733971896  0.29078031584524344  0.48666352336494356  1.0000
  C   C200      1.0  0.990476908743214  0.26061610016043824  0.49914285157664645  1.0000
  C   C201      1.0  0.5146195895747238  0.2530858221917919  0.5014453401572357  1.0000
  C   C202      1.0  0.5462710806024534  0.27531163899016603  0.5082747004433334  1.0000
  C   C203      1.0  0.5549027449064108  0.30666752767578365  0.513124034358725  1.0000
  C   C204      1.0  0.5320503289192723  0.31572788978991134  0.5109269273690287  1.0000
  H   H133      1.0  0.9658629115499956  0.24409382412436734  0.502927137639148  1.0000
  H   H134      1.0  0.5078749140490103  0.22879851877425966  0.4975608195057492  1.0000
  H   H135      1.0  0.5792069857188481  0.3239836307134709  0.5184032922584233  1.0000
  H   H136      1.0  0.03958862516549133  0.3354575773855534  0.472669700156635  1.0000
  C   C205      1.0  0.7442268817967065  0.27860553553305817  0.5525438111158584  1.0000
  C   C206      1.0  0.7651324988361381  0.30875401681181763  0.5402890789930506  1.0000
  C   C207      1.0  0.7958469897210051  0.3168525183205587  0.5307783459655863  1.0000
  C   C208      1.0  0.8056587327344986  0.29468717351090107  0.5323766232488935  1.0000
  C   C209      1.0  0.7846798812315245  0.264412240253709  0.5442765888145414  1.0000
  C   C210      1.0  0.7541498724878646  0.2565256624182341  0.5547228685423601  1.0000
  H   H137      1.0  0.7577792163631454  0.32592038347565  0.5382717575195064  1.0000
  H   H138      1.0  0.8120878749041185  0.3403703411957129  0.5218141560905851  1.0000
  H   H139      1.0  0.7920584187393812  0.24718683246732825  0.5457615241597399  1.0000
  H   H140      1.0  0.738082777818574  0.23312786442380232  0.564172173663698  1.0000
  C   C211      1.0  0.8403060885477379  0.19709009835698163  0.3732382502818263  1.0000
  C   C212      1.0  0.8266407795771382  0.1746021085165981  0.3453984321677734  1.0000
  C   C213      1.0  0.8347105656288614  0.18290694620988632  0.3088244710279858  1.0000
  C   C214      1.0  0.8567068977674283  0.21374581240426385  0.30005301510348753  1.0000
  C   C215      1.0  0.8699449925748324  0.23638222505805753  0.3277650263037574  1.0000
  C   C216      1.0  0.8615732390513596  0.2281271353006222  0.364267576715963  1.0000
  H   H141      1.0  0.8100396143625964  0.15056700026036546  0.3522058824038715  1.0000
  H   H142      1.0  0.8242965138898433  0.16534598636483663  0.287537020322569  1.0000
  H   H143      1.0  0.8866078839580848  0.26037705697622116  0.32091614001110813  1.0000
  H   H144      1.0  0.8717806227733144  0.24567262578490418  0.38545140480645146  1.0000
  Fe  Fe73      1.0  0.8700261350849272  0.7266058224437802  0.4585449226498839  1.0000
  S   S145      1.0  0.896667902139706  0.7785546253213781  0.45080164079229507  1.0000
  S   S146      1.0  0.8386958157918254  0.6919192390151938  0.4154872840958932  1.0000
  Fe  Fe74      1.0  0.8952283175859798  0.731072526437304  0.5360035795856735  1.0000
  S   S147      1.0  0.9235013679084579  0.7834147442712031  0.5344920387214599  1.0000
  S   S148      1.0  0.9016635736323261  0.7057912740788589  0.5836088694476752  1.0000
  Fe  Fe75      1.0  0.8808133537130898  0.7803744897722973  0.50746109065309  1.0000
  S   S149      1.0  0.8670556967545542  0.8162139906041789  0.5226496772393694  1.0000
  Fe  Fe76      1.0  0.9367222962975084  0.7767476247008568  0.47844708210505205  1.0000
  S   S150      1.0  0.9863000720643611  0.8050251017014276  0.4578733025875129  1.0000
  S   S151      1.0  0.8511606274520241  0.7282815554350502  0.5137952319971808  1.0000
  S   S152      1.0  0.9113512202518876  0.7245245020414373  0.4813993534405462  1.0000
  Fe  Fe77      1.0  0.8379026359390066  0.6692821893196726  0.12332970728395361  1.0000
  S   S153      1.0  0.785266024547611  0.6438481532461788  0.12162560408465771  1.0000
  S   S154      1.0  0.8667401672497982  0.668631307767441  0.07613585275206963  1.0000
  Fe  Fe78      1.0  0.8411278076684519  0.6866648121387685  0.20366920386666346  1.0000
  S   S155      1.0  0.7887300363968921  0.6619632921650815  0.20826703886759088  1.0000
  S   S156      1.0  0.8747123944866193  0.7169061642345901  0.24863992662390813  1.0000
  Fe  Fe79      1.0  0.7886307864816288  0.623621978478854  0.1751962562209973  1.0000
  S   S157      1.0  0.7532720109080321  0.5724788893422507  0.18496793908526585  1.0000
  Fe  Fe80      1.0  0.7898805525790112  0.6843536585272542  0.15454533440350285  1.0000
  S   S158      1.0  0.7563859874627252  0.7030314986402932  0.14778730605878204  1.0000
  S   S159      1.0  0.8411902999056652  0.6464861869548403  0.17504994880255006  1.0000
  S   S160      1.0  0.8424754944026995  0.7116768059203373  0.1517296548510492  1.0000
  Fe  Fe81      1.0  0.707874585369613  0.86104783151723  0.4698846378181563  1.0000
  S   S161      1.0  0.6810993401669134  0.8086081044236503  0.46755552479958107  1.0000
  S   S162      1.0  0.737605046349138  0.8911963394982402  0.42349921981723804  1.0000
  Fe  Fe82      1.0  0.6948280022054538  0.8625374639482255  0.5505071559605936  1.0000
  S   S163      1.0  0.6681303652194168  0.8102101979773227  0.5547206788243222  1.0000
  S   S164      1.0  0.6983757711850976  0.8953293061812667  0.5956959054880895  1.0000
  Fe  Fe83      1.0  0.7061892070431914  0.8116438755673112  0.5201547065790462  1.0000
  S   S165      1.0  0.7232393017019056  0.7770969899911011  0.5265818311994818  1.0000
  Fe  Fe84      1.0  0.6454241718428076  0.8118363465245694  0.5020087732354105  1.0000
  S   S166      1.0  0.5934181815115381  0.7774182088253357  0.49608447928791666  1.0000
  S   S167      1.0  0.7351888777532024  0.863965333060534  0.5207174618755939  1.0000
  S   S168      1.0  0.6698378466264998  0.8642035082949614  0.49960321745996117  1.0000
  Fe  Fe85      1.0  0.7695927584028227  0.8661494337577561  0.1638354927275842  1.0000
  S   S169      1.0  0.7172212797768458  0.8369179913255355  0.16650783601488048  1.0000
  S   S170      1.0  0.8029003478126023  0.8481470760146683  0.152478201421158  1.0000
  Fe  Fe86      1.0  0.7686014717954387  0.9271328331349709  0.1737143717340357  1.0000
  S   S171      1.0  0.7160554263875142  0.9025265017766287  0.17697045563358188  1.0000
  S   S172      1.0  0.801693285703385  0.9793115219255579  0.17853304410868728  1.0000
  Fe  Fe87      1.0  0.7214784611894849  0.868555788752611  0.212822921312826  1.0000
  S   S173      1.0  0.6904233589459307  0.8480121533824551  0.261775187694805  1.0000
  Fe  Fe88      1.0  0.716710512848584  0.8733520767618427  0.13041515661789158  1.0000
  S   S174      1.0  0.6819972007130632  0.8567766837095575  0.08327287151014712  1.0000
  S   S175      1.0  0.7741123129686412  0.8952359119104989  0.21311470591220094  1.0000
  S   S176      1.0  0.7689862517379981  0.9005495233852114  0.12431637408356165  1.0000
  Fe  Fe89      1.0  0.7000323675971328  0.9035487276794261  0.880853172497753  1.0000
  S   S177      1.0  0.6759991200539942  0.931880445873619  0.8820741776802404  1.0000
  S   S178      1.0  0.7335338423089783  0.9080994396857722  0.926050932037898  1.0000
  Fe  Fe90      1.0  0.6772233353549119  0.880444737805305  0.8034110451009849  1.0000
  S   S179      1.0  0.6516673217530982  0.9071181148213192  0.7984215552072746  1.0000
  S   S180      1.0  0.6786902941338028  0.8496042433054749  0.758985822739485  1.0000
  Fe  Fe91      1.0  0.6944454055195619  0.9464362558984494  0.8256021382396957  1.0000
  S   S181      1.0  0.713015475722008  0.9962340768547374  0.8071101229953311  1.0000
  Fe  Fe92      1.0  0.6354518386459624  0.890053819467798  0.8551533555340473  1.0000
  S   S182      1.0  0.5860761153252968  0.8763833853807755  0.871734235002657  1.0000
  S   S183      1.0  0.721446420650656  0.9210828086752888  0.8260214656642157  1.0000
  S   S184      1.0  0.6580369158750107  0.8603057414658561  0.8586149229060812  1.0000
  Fe  Fe93      1.0  0.8773749378830572  0.7108775299699769  0.788134330604617  1.0000
  S   S185      1.0  0.90757302764857  0.6889223837497784  0.7845660497662077  1.0000
  S   S186      1.0  0.8568687819800995  0.7220135725848289  0.7388184043178968  1.0000
  Fe  Fe94      1.0  0.874764868037092  0.7068422134701914  0.8710224805422785  1.0000
  S   S187      1.0  0.9044731728723986  0.6843840588411079  0.8736272213183188  1.0000
  S   S188      1.0  0.8538992029606907  0.7166233198597469  0.9203142076984403  1.0000
  Fe  Fe95      1.0  0.9340262390051534  0.720121198150264  0.83202578173207  1.0000
  S   S189      1.0  0.9863870190719866  0.740508712322479  0.8378231213536665  1.0000
  Fe  Fe96      1.0  0.875251929417439  0.6554552934627865  0.8262545996908685  1.0000
  S   S190      1.0  0.8597353998930553  0.6041561124254011  0.8229013761114233  1.0000
  S   S191      1.0  0.9063436183623843  0.7449621504134427  0.8325561904226465  1.0000
  S   S192      1.0  0.8430270439958244  0.6750365416444841  0.826762121454969  1.0000
  C   C217      1.0  0.7554086335944201  0.530261438100258  0.8279029059884782  1.0000
  C   C218      1.0  0.7783763452553141  0.5221340644758384  0.8347939618108405  1.0000
  C   C219      1.0  0.8103435774487706  0.5449689929325527  0.8328956034843527  1.0000
  C   C220      1.0  0.8194809739613019  0.5760789873735479  0.824737043237892  1.0000
  C   C221      1.0  0.7964925201988399  0.5842157048378652  0.8179812413280629  1.0000
  C   C222      1.0  0.7645725363680085  0.5613155220299478  0.819322021914396  1.0000
  H   H145      1.0  0.7678047141852686  0.9892772521360159  0.8177011401376295  1.0000
  H   H146      1.0  0.8280176061906187  0.5384960884908259  0.8380938153386024  1.0000
  H   H147      1.0  0.803125556757339  0.6080267818235634  0.8115947507496739  1.0000
  H   H148      1.0  0.746818688190654  0.5676363416333187  0.8138771996214513  1.0000
  C   C223      1.0  0.5581035465231718  0.8364989402546866  0.8764840226701314  1.0000
  C   C224      1.0  0.5665309471944457  0.8135206692730169  0.8732095067416055  1.0000
  C   C225      1.0  0.5437242873599993  0.7818355338382155  0.8769246808831607  1.0000
  C   C226      1.0  0.012975979466688603  0.7809449403086903  0.8422546004530126  1.0000
  C   C227      1.0  0.0027594187872310716  0.8026528856196639  0.8451163347550896  1.0000
  C   C228      1.0  0.5267998537361978  0.8276438041451258  0.8837141504457497  1.0000
  H   H149      1.0  0.5905432710552816  0.8200286398792794  0.867728570569738  1.0000
  H   H150      1.0  0.053177258403572125  0.774593706290291  0.8430257675624863  1.0000
  H   H151      1.0  0.9780947057262348  0.7950945580251467  0.8422644047937459  1.0000
  H   H152      1.0  0.5202043411976801  0.8453685296836361  0.8865773980329941  1.0000
  C   C229      1.0  0.6968972170373247  0.8704780122987205  0.03962842000298503  1.0000
  C   C230      1.0  0.7266628162613998  0.8966579362361691  0.03524550836268119  1.0000
  C   C231      1.0  0.7377983079876701  0.9077203233204997  0.0001837626530774017  1.0000
  C   C232      1.0  0.7189704442037061  0.8931331182481623  0.9693814142272553  1.0000
  C   C233      1.0  0.6893511631196095  0.8666633323050392  0.9736371841991972  1.0000
  C   C234      1.0  0.6784350985556623  0.8552101164083021  0.008761568717686297  1.0000
  H   H153      1.0  0.7408753180469669  0.9088368361008288  0.05882997518822189  1.0000
  H   H154      1.0  0.760823013134327  0.9281074913970758  0.9969151857775838  1.0000
  H   H155      1.0  0.6751399056158595  0.8548385491442293  0.9498316681500822  1.0000
  H   H156      1.0  0.6555829357263476  0.8346085586094156  0.012092082704617148  1.0000
  C   C235      1.0  0.6896126448923193  0.8802139025146617  0.6400403417259405  1.0000
  C   C236      1.0  0.6800892811765483  0.8945565775612473  0.6658867437930751  1.0000
  C   C237      1.0  0.6749977098433309  0.8842347968272404  0.7021622944394227  1.0000
  C   C238      1.0  0.6803258962637203  0.8601353926009782  0.7129268297848089  1.0000
  C   C239      1.0  0.6885525457524642  0.8449546546000519  0.6867080528501383  1.0000
  C   C240      1.0  0.6930575505656175  0.8548632319888898  0.6502678959536973  1.0000
  H   H157      1.0  0.6769767694759986  0.913919462645995  0.6578976858792467  1.0000
  H   H158      1.0  0.6676606524112366  0.8953976747000706  0.7219500561358871  1.0000
  H   H159      1.0  0.6923617858678417  0.8260459462349475  0.6948398927201039  1.0000
  H   H160      1.0  0.7003310768010486  0.8436307123197323  0.6304446132832937  1.0000
  C   C241      1.0  0.7250378777412685  0.8767920739073579  0.3790684393260237  1.0000
  C   C242      1.0  0.6937894096777787  0.8543304252853853  0.3717428358916912  1.0000
  C   C243      1.0  0.683732086999428  0.8449218656517002  0.33563855758231637  1.0000
  C   C244      1.0  0.7049321481904817  0.8574536127856339  0.306803951820426  1.0000
  C   C245      1.0  0.736591965274814  0.8786642946915373  0.31437870092142883  1.0000
  C   C246      1.0  0.7465102443237838  0.8886717224777434  0.3504120177600069  1.0000
  H   H161      1.0  0.6770896304870387  0.845043332582594  0.393711787988875  1.0000
  H   H162      1.0  0.6592310740679299  0.8283973162366048  0.32993806332014247  1.0000
  H   H163      1.0  0.7532722319143261  0.8879019027084363  0.2924674796433559  1.0000
  H   H164      1.0  0.7708026037617958  0.9058628609458461  0.35608355670024316  1.0000
  C   C247      1.0  0.7842722270862376  0.501585254025522  0.2121794917164586  1.0000
  C   C248      1.0  0.752438628862662  0.4920883552648834  0.2083512384975768  1.0000
  C   C249      1.0  0.7432560388608774  0.5142169969876216  0.20077953717288635  1.0000
  C   C250      1.0  0.7658137562875499  0.5459019238466916  0.196562339557063  1.0000
  C   C251      1.0  0.7976296997857043  0.555452192984786  0.20080725571829747  1.0000
  C   C252      1.0  0.8067940929024625  0.5333582234716896  0.20893612490976018  1.0000
  H   H165      1.0  0.7391423098066148  0.9717433746263467  0.1736298598779186  1.0000
  H   H166      1.0  0.718581192310082  0.5067815489553015  0.19787666614456761  1.0000
  H   H167      1.0  0.8151837400093751  0.5798302031089783  0.1978211150442718  1.0000
  H   H168      1.0  0.8314688407480275  0.540910427128092  0.21223562289165485  1.0000
  C   C253      1.0  0.7694664053462181  0.7433983107061406  0.14714725078525812  1.0000
  C   C254      1.0  0.7480114892476638  0.7534620025831182  0.1544499597625671  1.0000
  C   C255      1.0  0.7580054520243057  0.7855060385413276  0.15656221003789475  1.0000
  C   C256      1.0  0.7894919055811235  0.8077301617546803  0.15078368335181241  1.0000
  C   C257      1.0  0.8108316649870824  0.7976797644160563  0.14271009863548506  1.0000
  C   C258      1.0  0.8008669355912788  0.765618351730422  0.14081931692207064  1.0000
  H   H169      1.0  0.7236412983922735  0.7363564277043879  0.15925361906562352  1.0000
  H   H170      1.0  0.7413305608041416  0.7928938043631121  0.16288489641559106  1.0000
  H   H171      1.0  0.8351906460464842  0.8147679937137248  0.13785768519691802  1.0000
  H   H172      1.0  0.8174937575388789  0.7581005950009357  0.13456617322507639  1.0000
  C   C259      1.0  0.8630000244623156  0.6824017743378986  0.03329357099115128  1.0000
  C   C260      1.0  0.8451502716020586  0.6969578318734798  0.028324631400967977  1.0000
  C   C261      1.0  0.8429132373043029  0.7078551865445286  0.9936215904927853  1.0000
  C   C262      1.0  0.8582045239573284  0.7039438043359884  0.963767051294279  1.0000
  C   C263      1.0  0.8759008501467216  0.6892518563371478  0.9688321881950962  1.0000
  C   C264      1.0  0.8783948328406889  0.6786452496426874  0.003482378199277436  1.0000
  H   H173      1.0  0.8332280325894993  0.6999494491866947  0.051249854586305446  1.0000
  H   H174      1.0  0.8290909575654163  0.7191334002162824  0.9898912339973593  1.0000
  H   H175      1.0  0.8875738997264353  0.6858892775627576  0.9461499761939005  1.0000
  H   H176      1.0  0.8921632985652247  0.6673140351967335  0.007277964794934145  1.0000
  C   C265      1.0  0.8893674532728385  0.7109225512803496  0.6264381031453286  1.0000
  C   C266      1.0  0.8611442778573127  0.7108941200043132  0.6301371414546824  1.0000
  C   C267      1.0  0.8510638644723993  0.7136589221856894  0.6648935987461221  1.0000
  C   C268      1.0  0.8695288561512492  0.7172988343279104  0.6958840312840329  1.0000
  C   C269      1.0  0.8976422637732935  0.7170993198765173  0.6921656207137737  1.0000
  C   C270      1.0  0.9073153858691201  0.713490430802459  0.6575480012802228  1.0000
  H   H177      1.0  0.8467796888489193  0.7079400822892703  0.6062646694960556  1.0000
  H   H178      1.0  0.8287759476033544  0.7127195136355303  0.6678741762993332  1.0000
  H   H179      1.0  0.9122400061928554  0.7202805795645599  0.7158092872995911  1.0000
  H   H180      1.0  0.9290840601978129  0.7133083578343836  0.6547482007610066  1.0000
  C   C271      1.0  0.013490084466617258  0.7948367085747443  0.47509349106034865  1.0000
  C   C272      1.0  0.003558677009342537  0.7681617107455587  0.49647090427822654  1.0000
  C   C273      1.0  0.5343818756398929  0.7678696390722755  0.5064280893756383  1.0000
  C   C274      1.0  0.5656784086736387  0.789859180887341  0.4985350802969711  1.0000
  C   C275      1.0  0.5742693722387033  0.8211783163345604  0.49358721617727275  1.0000
  C   C276      1.0  0.5516602421501597  0.8304282358174188  0.4967209678898001  1.0000
  H   H181      1.0  0.9791703625912659  0.7542264660296634  0.5039361362837386  1.0000
  H   H182      1.0  0.5276579889790814  0.743610938113044  0.5104244794389062  1.0000
  H   H183      1.0  0.5982563260397318  0.8382405325576264  0.4870799782800653  1.0000
  H   H184      1.0  0.053112824014695637  0.8335320358997705  0.4494012315781731  1.0000
  C   C277      1.0  0.7633534860240763  0.788575141696425  0.5256181634514073  1.0000
  C   C278      1.0  0.7868515547547886  0.8196112664796237  0.5316879443452853  1.0000
  C   C279      1.0  0.8186274873855163  0.8278976159853332  0.5302943170026219  1.0000
  C   C280      1.0  0.8270619544067287  0.8052866549097591  0.5226308392033466  1.0000
  C   C281      1.0  0.8035680113342968  0.7743207780589072  0.5163655379445528  1.0000
  C   C282      1.0  0.7718268376193006  0.7659806245674625  0.5181477725811761  1.0000
  H   H185      1.0  0.7805394559277792  0.8371404256453889  0.5378060916789836  1.0000
  H   H186      1.0  0.8367312066338335  0.8518975600795782  0.5352646471558246  1.0000
  H   H187      1.0  0.8097763981727808  0.7567010415997242  0.5104481761200472  1.0000
  H   H188      1.0  0.7537258033493703  0.7419057107829847  0.5135233805018746  1.0000
  C   C283      1.0  0.8479247872556136  0.6996718933149757  0.3689916605973123  1.0000
  C   C284      1.0  0.830790669831828  0.6761676019451619  0.3430139579576044  1.0000
  C   C285      1.0  0.8384710064067897  0.6812551610334859  0.3058754345013296  1.0000
  C   C286      1.0  0.8634221635496269  0.7099225770763997  0.29459319028421976  1.0000
  C   C287      1.0  0.8801450647644042  0.7336476560731384  0.32044351020227624  1.0000
  C   C288      1.0  0.8723382292424835  0.7286202081964634  0.3575308508954874  1.0000
  H   H189      1.0  0.8117943625494077  0.6537481366965994  0.35173829055885597  1.0000
  H   H190      1.0  0.8254732421121423  0.6628024673318023  0.2861205475633215  1.0000
  H   H191      1.0  0.8992212511916825  0.755986604682757  0.3116846498750466  1.0000
  H   H192      1.0  0.8853306203987358  0.7469940955564647  0.3772770358192311  1.0000
  N   N1        1.0  0.21843481843717483  0.837500831664307  0.8817815899102648  1.0000
  C   C289      1.0  0.23682455253296336  0.8697960680902787  0.8680083664477674  1.0000
  C   C290      1.0  0.23937683323890102  0.8244038982701377  0.8869138802882124  1.0000
  C   C291      1.0  0.19335929058117013  0.8181607550217463  0.8550706956487529  1.0000
  C   C292      1.0  0.20431304633997527  0.8377492148878555  0.9170872786260552  1.0000
  H   H193      1.0  0.22170516711941085  0.8802855337533042  0.8640790203940604  1.0000
  H   H194      1.0  0.24752312011494013  0.8706170574092967  0.8411571613459283  1.0000
  H   H195      1.0  0.2558582317499176  0.8852629763651354  0.8875037633650129  1.0000
  H   H196      1.0  0.22627745304423533  0.8000237492526209  0.8973294931320561  1.0000
  H   H197      1.0  0.25047412005930253  0.8239595316624092  0.8608029192410316  1.0000
  H   H198      1.0  0.25858655359957783  0.8385585684234917  0.9068609484903257  1.0000
  H   H199      1.0  0.17899771538984557  0.7935481184610136  0.8643273129359678  1.0000
  H   H200      1.0  0.20319457523055254  0.8179707947595276  0.8279172380064092  1.0000
  H   H201      1.0  0.17712842715740587  0.8273868270353123  0.8504725907427532  1.0000
  H   H202      1.0  0.19015811693959134  0.8138046614951434  0.9283961285085567  1.0000
  H   H203      1.0  0.18860300233531613  0.8477940593839457  0.9143895496653965  1.0000
  H   H204      1.0  0.22261993994930226  0.8524021212921075  0.9377581734599902  1.0000
  N   N2        1.0  0.24096461860286328  0.46508809520027034  0.34029432327937814  1.0000
  C   C293      1.0  0.23755216840538151  0.4527311982299334  0.3777348371248806  1.0000
  C   C294      1.0  0.27286071837197495  0.4922856757030588  0.33587111319773844  1.0000
  C   C295      1.0  0.21742872285302334  0.47480249495077564  0.33365506435604664  1.0000
  C   C296      1.0  0.23600003111631565  0.440496645883217  0.3137757540705018  1.0000
  H   H205      1.0  0.21399014311085957  0.43166888207779  0.38177028702219595  1.0000
  H   H206      1.0  0.24053894314969562  0.4703951921933502  0.39856646902352405  1.0000
  H   H207      1.0  0.2552789262757992  0.4456407072492467  0.38395351027758623  1.0000
  H   H208      1.0  0.2761697369170387  0.5021697698602934  0.3078833014998074  1.0000
  H   H209      1.0  0.277573724317339  0.5113542406867242  0.3554908397427844  1.0000
  H   H210      1.0  0.2912004249999007  0.4856787267493286  0.34019916615643464  1.0000
  H   H211      1.0  0.19309225527193744  0.4547298985801556  0.3364733145201483  1.0000
  H   H212      1.0  0.21949268276787484  0.4844164059752816  0.30570760054187873  1.0000
  H   H213      1.0  0.22041651196690598  0.4933097724583856  0.35325507893764885  1.0000
  H   H214      1.0  0.2385802955080458  0.4490597259769981  0.28532563702407593  1.0000
  H   H215      1.0  0.21210596696862463  0.4195818998230998  0.31605708934836135  1.0000
  H   H216      1.0  0.25344735960513515  0.4327023726571741  0.3178828603990953  1.0000
  N   N3        1.0  0.22232352091199972  0.3166736870097177  0.06873216832401785  1.0000
  C   C297      1.0  0.24364216898608734  0.3408689047348283  0.0950526679771655  1.0000
  C   C298      1.0  0.21791594708586237  0.28598047436308094  0.07985405321613492  1.0000
  C   C299      1.0  0.23617113300854325  0.32461833198784446  0.031987939546242794  1.0000
  C   C300      1.0  0.19158389371461607  0.3152389500041388  0.06811190301989489  1.0000
  H   H217      1.0  0.24814843087227917  0.36445447747059895  0.08724026485564984  1.0000
  H   H218      1.0  0.26684316414384596  0.3421069670583446  0.0969605965655087  1.0000
  H   H219      1.0  0.2337348982842394  0.3360197064763892  0.12296779069117036  1.0000
  H   H220      1.0  0.24079022860962027  0.2865939656952675  0.0826660238307586  1.0000
  H   H221      1.0  0.2060706295820804  0.27869416880761877  0.10666349357038318  1.0000
  H   H222      1.0  0.20321376669745042  0.26731290461250257  0.05976012209293158  1.0000
  H   H223      1.0  0.2594032861900391  0.32591233869876995  0.03149668798914229  1.0000
  H   H224      1.0  0.23978727797959615  0.3477041147771878  0.022797881017639243  1.0000
  H   H225      1.0  0.22067734731543753  0.3069549924977491  0.01132628866502583  1.0000
  H   H226      1.0  0.17438644844654752  0.2961185387139587  0.049993813671208365  1.0000
  H   H227      1.0  0.19369039415978315  0.33734445181421185  0.0578206123515721  1.0000
  H   H228      1.0  0.18130525147189974  0.3113077475764353  0.09585665717730607  1.0000
  N   N4        1.0  0.6183060985277656  0.8897169271546064  0.9787198397859987  1.0000
  C   C301      1.0  0.651610931944471  0.9109573531313533  0.9888103244748546  1.0000
  C   C302      1.0  0.6062167719800835  0.9073797566286587  0.9583631550832274  1.0000
  C   C303      1.0  0.5997478976998661  0.8765199125237485  0.012102156313801737  1.0000
  C   C304      1.0  0.6155494947375618  0.8639603722910958  0.9555824868334744  1.0000
  H   H229      1.0  0.666789649677173  0.9194241706056984  0.964316898342702  1.0000
  H   H230      1.0  0.6608725594651073  0.8991379297296033  0.006575721355196684  1.0000
  H   H231      1.0  0.6547845006351914  0.9317998550997005  0.004064837681668099  1.0000
  H   H232      1.0  0.5813900274244317  0.891909514389802  0.9493443935203475  1.0000
  H   H233      1.0  0.6072130195660081  0.926606364973721  0.975095780399941  1.0000
  H   H234      1.0  0.620078845290065  0.9180261195777772  0.9332907325580828  1.0000
  H   H235      1.0  0.5745005747503715  0.8603526580645062  0.005406224711901109  1.0000
  H   H236      1.0  0.6012726421990459  0.8952381547623789  0.030311692035365434  1.0000
  H   H237      1.0  0.6083069728748562  0.8629798385069749  0.028039773442874116  1.0000
  H   H238      1.0  0.6236958162121016  0.8496148320125948  0.9702496187356383  1.0000
  H   H239      1.0  0.6296261696312048  0.8729752371496067  0.9303565976480604  1.0000
  H   H240      1.0  0.5907858137513016  0.8479565732240417  0.9467877371833595  1.0000
  N   N5        1.0  0.7658428475053881  0.9550046615102988  0.7247662220157329  1.0000
  C   C305      1.0  0.7357425853950589  0.951639890053688  0.7367016501441432  1.0000
  C   C306      1.0  0.7797508464938231  0.9457017813113465  0.7547261958004868  1.0000
  C   C307      1.0  0.7875316959740435  0.9879575005860549  0.715018988261141  1.0000
  C   C308      1.0  0.7602419334645703  0.9346375567991551  0.6927174911983862  1.0000
  H   H241      1.0  0.7234624301672758  0.9564676367580058  0.7141831933305978  1.0000
  H   H242      1.0  0.739173531991779  0.9679602309212807  0.7594319714457438  1.0000
  H   H243      1.0  0.7196602997134863  0.9276156197930105  0.7466757453415184  1.0000
  H   H244      1.0  0.763826126682077  0.9209153095720982  0.7628155292687229  1.0000
  H   H245      1.0  0.8025017036590846  0.9479116277878276  0.7467247221721618  1.0000
  H   H246      1.0  0.7842023276619206  0.9604638909705916  0.7794486909371686  1.0000
  H   H247      1.0  0.81055550855667  0.9914535736144352  0.7059076554289007  1.0000
  H   H248      1.0  0.792178058632371  0.0038688432911642145  0.7387443062932119  1.0000
  H   H249      1.0  0.7775898368396762  0.9956472282697362  0.6925730643516415  1.0000
  H   H250      1.0  0.7824575678124479  0.9368372533598784  0.6825593355384546  1.0000
  H   H251      1.0  0.7490769984212289  0.9403872770802157  0.6696949764545764  1.0000
  H   H252      1.0  0.7443131873271829  0.9095717995892498  0.6994630591118634  1.0000
  N   N6        1.0  0.794741874390451  0.2491101233282938  0.267246969109147  1.0000
  C   C309      1.0  0.7659709226201501  0.23565133411325895  0.24438463455403822  1.0000
  C   C310      1.0  0.8224481319129865  0.2601226933947735  0.24367627271201014  1.0000
  C   C311      1.0  0.7930910820519959  0.22497382335142202  0.29239292081169815  1.0000
  C   C312      1.0  0.7974877662142739  0.27580636551334375  0.2884420291862892  1.0000
  H   H253      1.0  0.7658338443630753  0.2537383139815198  0.22655037345381862  1.0000
  H   H254      1.0  0.7444084516671591  0.22570805851098186  0.2611179239700892  1.0000
  H   H255      1.0  0.7640025458465193  0.21657154045324267  0.2263693133504725  1.0000
  H   H256      1.0  0.8207037855252773  0.2408936403029852  0.2261903787850173  1.0000
  H   H257      1.0  0.8250757009978029  0.2791178285681618  0.22521818881918132  1.0000
  H   H258      1.0  0.8445392547303402  0.2692761528519129  0.2600308305842223  1.0000
  H   H259      1.0  0.8136804935675218  0.23472812420341463  0.3112862455618509  1.0000
  H   H260      1.0  0.7928233631768336  0.20533845035733744  0.27722915599271264  1.0000
  H   H261      1.0  0.7716544425549585  0.21490396278309293  0.30936177220937755  1.0000
  H   H262      1.0  0.7987796661951463  0.2944186418758548  0.27009074993512533  1.0000
  H   H263      1.0  0.8191170775430806  0.28661853969741213  0.3058201254911358  1.0000
  H   H264      1.0  0.7769543812667027  0.26838272926415285  0.3064728345357646  1.0000
  N   N7        1.0  0.4860372858754176  0.790181748645714  0.7743317958579481  1.0000
  C   C313      1.0  0.4738394577683485  0.8075779668922403  0.7946731178415882  1.0000
  C   C314      1.0  0.4693622559366755  0.7571746580358488  0.7859336595403106  1.0000
  C   C315      1.0  0.5200035873027858  0.8040306522449274  0.7819367466834698  1.0000
  C   C316      1.0  0.48075036679789257  0.7917726946787534  0.7348455799127203  1.0000
  H   H265      1.0  0.48611538374708996  0.8327180699893171  0.7870906281240979  1.0000
  H   H266      1.0  0.4768598228776112  0.8062951258621299  0.8245980677174302  1.0000
  H   H267      1.0  0.4482638468868135  0.7977805332000499  0.789353392146303  1.0000
  H   H268      1.0  0.44376014263154273  0.7459359092987341  0.7798946947142107  1.0000
  H   H269      1.0  0.4782093671523934  0.7432432100526418  0.7718483469502343  1.0000
  H   H270      1.0  0.4721968546247381  0.7550481752644542  0.8157875086031073  1.0000
  H   H271      1.0  0.5333681808846003  0.8292237966587167  0.7745545870183492  1.0000
  H   H272      1.0  0.5300510244187308  0.7916529804162852  0.7668037820632381  1.0000
  H   H273      1.0  0.5245523496086917  0.8024314438807539  0.811353889125572  1.0000
  H   H274      1.0  0.48915703373876473  0.7784060886183518  0.7187167134947021  1.0000
  H   H275      1.0  0.49301399024344433  0.816343318350923  0.7250482749155307  1.0000
  H   H276      1.0  0.4552992539540326  0.7815378194210844  0.728402100652109  1.0000
  N   N8        1.0  0.8456486824553556  0.6174098506822008  0.7096331399259747  1.0000
  C   C317      1.0  0.8354559415890345  0.633718944088776  0.7349428134876874  1.0000
  C   C318      1.0  0.8797610557810068  0.6298684539988046  0.7143283387149659  1.0000
  C   C319      1.0  0.8388683981640618  0.6225647430610937  0.6717038469512427  1.0000
  C   C320      1.0  0.8285637267243359  0.5835784054625208  0.7177671450582792  1.0000
  H   H277      1.0  0.8097543341058941  0.624673272774848  0.7326875404842055  1.0000
  H   H278      1.0  0.8475937236267463  0.6592259464502102  0.7294824513427951  1.0000
  H   H279      1.0  0.8408535242145869  0.6308342009873942  0.7636641887280591  1.0000
  H   H280      1.0  0.8883361908489523  0.6181725363024255  0.6955779385483514  1.0000
  H   H281      1.0  0.8933747097661204  0.6554156014608062  0.7086574816456557  1.0000
  H   H282      1.0  0.8856696612401029  0.6263061655621616  0.7427207338871729  1.0000
  H   H283      1.0  0.8464583581237142  0.610803148981172  0.6517376031059345  1.0000
  H   H284      1.0  0.8513881248334851  0.6479379317760263  0.6648912826414047  1.0000
  H   H285      1.0  0.8133345534419942  0.6134867718018626  0.6671899965809284  1.0000
  H   H286      1.0  0.8354095331330842  0.5703868494574174  0.6990300184099368  1.0000
  H   H287      1.0  0.8026861458297002  0.5734430921251568  0.7152343178356895  1.0000
  H   H288      1.0  0.833563028940153  0.5790447905603153  0.7461511314411089  1.0000
  N   N9        1.0  0.9689819257061076  0.7623951467577081  0.9495740976645731  1.0000
  C   C321      1.0  0.957591425385445  0.7652700546746655  0.9856941459560774  1.0000
  C   C322      1.0  0.969043190577985  0.7325617831424319  0.9473721399084369  1.0000
  C   C323      1.0  0.0012506939289314062  0.7887223207992136  0.944237980225131  1.0000
  C   C324      1.0  0.9480218443185988  0.7629737131554545  0.9208331887495267  1.0000
  H   H289      1.0  0.9332036274464335  0.7458486026760327  0.9904967319922539  1.0000
  H   H290      1.0  0.9573008326137998  0.7875640348214659  0.9881853964943897  1.0000
  H   H291      1.0  0.9726617266818374  0.7646570936604171  0.008150036416314068  1.0000
  H   H292      1.0  0.9770948288612147  0.7295151232237691  0.9201443109562307  1.0000
  H   H293      1.0  0.9849371289730703  0.7314262598692016  0.9683404421187787  1.0000
  H   H294      1.0  0.9451581905985579  0.7121790096149249  0.9515686005584102  1.0000
  H   H295      1.0  0.002032249473898467  0.8116265423318862  0.9439446961956393  1.0000
  H   H296      1.0  0.010950308693128833  0.7865328485211217  0.9178543385041489  1.0000
  H   H297      1.0  0.01754140857318802  0.7896965361368956  0.9661316754671689  1.0000
  H   H298      1.0  0.94826959704273  0.7856055197002476  0.9205310509612995  1.0000
  H   H299      1.0  0.9232673605558229  0.7441625231917275  0.9247486217462458  1.0000
  H   H300      1.0  0.955185378178314  0.7595055604167732  0.893400692952517  1.0000
  N   N10       1.0  0.7502882661077127  0.46002354235682863  0.32319432961293976  1.0000
  C   C325      1.0  0.7292086348926483  0.43915685035330293  0.2940974013760626  1.0000
  C   C326      1.0  0.7602479886755789  0.4928325241075135  0.31407724371416607  1.0000
  C   C327      1.0  0.778290961412601  0.45644164023553935  0.3261877245171565  1.0000
  C   C328      1.0  0.7334722711494555  0.4516880766851453  0.3582231232146345  1.0000
  H   H301      1.0  0.7082214595589924  0.44181205981508986  0.29023910715107465  1.0000
  H   H302      1.0  0.7206291123093626  0.414111654666983  0.3002312659900385  1.0000
  H   H303      1.0  0.7415362803909575  0.4443473144898288  0.267631741424528  1.0000
  H   H304      1.0  0.7758303933037708  0.5092684426080807  0.33567283637773687  1.0000
  H   H305      1.0  0.7735518762716858  0.4999652210082907  0.2881149827893683  1.0000
  H   H306      1.0  0.7397587156442113  0.4963789713832421  0.3105974625692941  1.0000
  H   H307      1.0  0.7946991783844364  0.471741570258662  0.3479890651724351  1.0000
  H   H308      1.0  0.7915761715894611  0.4626963254901313  0.3001948530076955  1.0000
  H   H309      1.0  0.7717244200346252  0.4319442723249206  0.3325270419828886  1.0000
  H   H310      1.0  0.7487641777007962  0.46666494270825515  0.38097594211607555  1.0000
  H   H311      1.0  0.7253180264953287  0.426943284385199  0.3656699444438048  1.0000
  H   H312      1.0  0.71235022930049  0.4543753820442244  0.3569459564690425  1.0000
  N   N11       1.0  0.11730188527672449  0.20410904135638314  0.495770431159209  1.0000
  C   C329      1.0  0.10137883055019231  0.21365825044723516  0.4685481945011152  1.0000
  C   C330      1.0  0.11689759188054569  0.21723654920634664  0.5318086692912826  1.0000
  C   C331      1.0  0.15017647112772015  0.21585187342241818  0.4848422855448499  1.0000
  C   C332      1.0  0.10070427879545851  0.1696413549686295  0.4980090103555362  1.0000
  H   H313      1.0  0.1011758507540059  0.20424205014366503  0.44096183955943363  1.0000
  H   H314      1.0  0.11318458056074282  0.2395530181146243  0.4662704699525054  1.0000
  H   H315      1.0  0.07665421672165368  0.2055833212415289  0.47625349936567335  1.0000
  H   H316      1.0  0.12888841946129018  0.21077187725749977  0.553110232828664  1.0000
  H   H317      1.0  0.12942167894661477  0.24313508724520572  0.5310832048558782  1.0000
  H   H318      1.0  0.09253906396708295  0.20942838776107575  0.5407639064536032  1.0000
  H   H319      1.0  0.16304623997558076  0.20953169134013258  0.5051389311279763  1.0000
  H   H320      1.0  0.16348528825468883  0.24181623710736835  0.48297749237386484  1.0000
  H   H321      1.0  0.15151918586225263  0.20643579193131162  0.45782636560751666  1.0000
  H   H322      1.0  0.11215495663663338  0.1617319750929235  0.5183815043364542  1.0000
  H   H323      1.0  0.1005371731198874  0.15891731200506648  0.47127229743818744  1.0000
  H   H324      1.0  0.07585590078527753  0.16006279316408709  0.5062936795315138  1.0000
  N   N12       1.0  0.28867885905629687  0.1108030483387775  0.9269408177645325  1.0000
  C   C333      1.0  0.3193553354051332  0.12507004633862048  0.9086855760989992  1.0000
  C   C334      1.0  0.27402365936007184  0.13015949421254416  0.9201610069443534  1.0000
  C   C335      1.0  0.29335414209258537  0.10921099312141515  0.9665981878296731  1.0000
  C   C336      1.0  0.26813395297481346  0.07894862732611142  0.9121932606887405  1.0000
  H   H325      1.0  0.33135260837130726  0.1112749530735621  0.9129969503946505  1.0000
  H   H326      1.0  0.33527228621706034  0.14920171818473427  0.9188816894276516  1.0000
  H   H327      1.0  0.316708490880812  0.12659939926885783  0.8787531198942825  1.0000
  H   H328      1.0  0.25064219435217455  0.1200093726067659  0.9331804435957551  1.0000
  H   H329      1.0  0.2888896138682777  0.15431816483310543  0.9312085879680164  1.0000
  H   H330      1.0  0.27077630172396366  0.13240805900884753  0.8904354302486114  1.0000
  H   H331      1.0  0.27065946227092724  0.09832150237029191  0.9812771587663557  1.0000
  H   H332      1.0  0.3083955721160119  0.13296033405123744  0.978581799771756  1.0000
  H   H333      1.0  0.30501614295660767  0.095364206309341  0.9726578850186357  1.0000
  H   H334      1.0  0.2635365782195281  0.07951350823871838  0.8825128728706092  1.0000
  H   H335      1.0  0.2449591060356538  0.06705078725964121  0.9258472453595217  1.0000
  H   H336      1.0  0.27904184038320834  0.06405501861671216  0.9155728203415967  1.0000
  N   N13       1.0  0.806932138800037  0.07634301859454841  0.07582594747877418  1.0000
  C   C337      1.0  0.8324852737241272  0.09194228962057138  0.10318967019964008  1.0000
  C   C338      1.0  0.8114170001932571  0.053292762833062605  0.05505694364622025  1.0000
  C   C339      1.0  0.8074682518911424  0.09993741611346428  0.05060589258914961  1.0000
  C   C340      1.0  0.77641431500004  0.06018746420573852  0.09452240699847099  1.0000
  H   H337      1.0  0.8558219340929922  0.1054466174452858  0.09004488565721684  1.0000
  H   H338      1.0  0.833439140079443  0.07478775101254474  0.1220228998429438  1.0000
  H   H339      1.0  0.8293182152511623  0.10882508156197919  0.12009923595237615  1.0000
  H   H340      1.0  0.8343229287678608  0.06475954405264625  0.04073461873310938  1.0000
  H   H341      1.0  0.8111235069618777  0.0351284578553089  0.07334520622113852  1.0000
  H   H342      1.0  0.7925715905098946  0.04108762282906712  0.03409702244151931  1.0000
  H   H343      1.0  0.7882325738311057  0.08921049212799491  0.029877254042708766  1.0000
  H   H344      1.0  0.8300645448890122  0.11231357694227183  0.03575870071611157  1.0000
  H   H345      1.0  0.804910752848112  0.11813105652624148  0.06550732016178845  1.0000
  H   H346      1.0  0.7564557721238877  0.04892413315350929  0.07477537115142709  1.0000
  H   H347      1.0  0.7727334426328987  0.07672240494129974  0.11155672478341153  1.0000
  H   H348      1.0  0.7749591515300743  0.04161771875317841  0.11292255875613573  1.0000
  N   N14       1.0  0.806235912387048  0.7503641935076731  0.2544585469224534  1.0000
  C   C341      1.0  0.8295983913695254  0.7721554828176252  0.281256429699189  1.0000
  C   C342      1.0  0.8225249656701904  0.7502206495240038  0.22099230113907198  1.0000
  C   C343      1.0  0.7833322772692985  0.7604520491982919  0.24543999256042526  1.0000
  C   C344      1.0  0.7895622803799969  0.718514697448993  0.26988111187918146  1.0000
  H   H349      1.0  0.8471578724970878  0.76495743406174  0.2883003598577428  1.0000
  H   H350      1.0  0.8182794653168898  0.7728295275307567  0.30703026447740583  1.0000
  H   H351      1.0  0.8427232913841144  0.796350968659739  0.27028447637971376  1.0000
  H   H352      1.0  0.8059182169597735  0.7327063345825288  0.20101921114284343  1.0000
  H   H353      1.0  0.8341943715380656  0.773471486262615  0.20754600186757047  1.0000
  H   H354      1.0  0.8409487392662087  0.7441278543822363  0.22680114224195735  1.0000
  H   H355      1.0  0.7651383755748608  0.7439236986463194  0.22577757465815876  1.0000
  H   H356      1.0  0.7948820922731112  0.7839611969836348  0.23246515364838397  1.0000
  H   H357      1.0  0.7709215236560831  0.7614568669532945  0.27007079593358285  1.0000
  H   H358      1.0  0.7710386838560396  0.7016947765573348  0.250733633820223  1.0000
  H   H359      1.0  0.7779928721593854  0.7178430133418192  0.2959935511696195  1.0000
  H   H360      1.0  0.8059608637576432  0.709606358698534  0.2753175466304582  1.0000
  N   N15       1.0  0.4573887182323262  0.7408699459022204  0.4112430560260001  1.0000
  C   C345      1.0  0.4485124087950243  0.7626597069611418  0.42738143463123807  1.0000
  C   C346      1.0  0.44896716104323237  0.7145961364721592  0.43653806846312243  1.0000
  C   C347      1.0  0.4916106654520161  0.7576194264966731  0.40497392685361794  1.0000
  C   C348      1.0  0.44034228274838677  0.7286054196954636  0.3762323234565518  1.0000
  H   H361      1.0  0.4535095817501559  0.7823362578553946  0.40872086297915877  1.0000
  H   H362      1.0  0.46150584454617555  0.7729863184112666  0.4533599587119528  1.0000
  H   H363      1.0  0.42305809684533746  0.7504815391358062  0.43356402175010184  1.0000
  H   H364      1.0  0.45501631994385583  0.6974558713574833  0.42517064986341635  1.0000
  H   H365      1.0  0.46145053067366093  0.722964503521274  0.4632111836287428  1.0000
  H   H366      1.0  0.423265554925094  0.7017228553497843  0.44214717207465365  1.0000
  H   H367      1.0  0.4992950482295637  0.7418663600905329  0.3931239048749988  1.0000
  H   H368      1.0  0.5051045904502083  0.7673752702920563  0.43088413116820345  1.0000
  H   H369      1.0  0.49867032128265687  0.7775597867814815  0.38596901723574245  1.0000
  H   H370      1.0  0.447085786811187  0.712742238266837  0.36269571169474785  1.0000
  H   H371      1.0  0.444958108978889  0.7477870313577318  0.3569011105597838  1.0000
  H   H372      1.0  0.41449527717505963  0.7149655983122013  0.38029802403254925  1.0000
  N   N16       1.0  0.8582853917669083  0.7969805829506023  0.6333883188042798  1.0000
  C   C349      1.0  0.8316161691540025  0.7708651175751111  0.6138089280074754  1.0000
  C   C350      1.0  0.8546483257653864  0.7914697986656227  0.6731318834138788  1.0000
  C   C351      1.0  0.8589335995401776  0.8265288126897536  0.6248418017956688  1.0000
  C   C352      1.0  0.8879536536927999  0.7991555845696169  0.621653419332199  1.0000
  H   H373      1.0  0.8343569246444733  0.7737767800289177  0.5837680291106553  1.0000
  H   H374      1.0  0.8088658170216494  0.7691801851282409  0.6207346930985681  1.0000
  H   H375      1.0  0.8297783590480096  0.748083286745742  0.6203469484140818  1.0000
  H   H376      1.0  0.8548912295502746  0.7698370716899845  0.6808701679732535  1.0000
  H   H377      1.0  0.8740846947483045  0.811015067042461  0.6887436367040835  1.0000
  H   H378      1.0  0.8321051451321306  0.7888684769994172  0.6827618271920477  1.0000
  H   H379      1.0  0.8619091165165212  0.8315537354888605  0.5951287220569669  1.0000
  H   H380      1.0  0.8787168386169124  0.8467767352345685  0.6391453804951198  1.0000
  H   H381      1.0  0.8367053903676036  0.825550484136511  0.6327825829832209  1.0000
  H   H382      1.0  0.8914738013890543  0.8035729800108214  0.5918081395014738  1.0000
  H   H383      1.0  0.8881887804947214  0.7771392655364558  0.6272970993493283  1.0000
  H   H384      1.0  0.908630310013441  0.8184907832046013  0.6359271630539078  1.0000
  N   N17       1.0  0.4634528085929062  0.2800061229635276  0.3908937312250428  1.0000
  C   C353      1.0  0.4970180838827762  0.29464619838439615  0.401352556097669  1.0000
  C   C354      1.0  0.44466000854376153  0.25281230663521137  0.4145762333412802  1.0000
  C   C355      1.0  0.4591538482729815  0.26948231517076515  0.3524725686819669  1.0000
  C   C356      1.0  0.4530231913484247  0.3031288766783997  0.39525557077301415  1.0000
  H   H385      1.0  0.5056022746471025  0.27770142300640743  0.3997494923408775  1.0000
  H   H386      1.0  0.5011802416823622  0.30374255836643405  0.4298338618570036  1.0000
  H   H387      1.0  0.5120292816146456  0.31477974083125615  0.3834772380705933  1.0000
  H   H388      1.0  0.45280493856975756  0.23552233573257494  0.4133156083916956  1.0000
  H   H389      1.0  0.44627464570213293  0.2601600325207995  0.44348411201399385  1.0000
  H   H390      1.0  0.4193453822904551  0.24037868802687903  0.40671202769848397  1.0000
  H   H391      1.0  0.4340271983695787  0.2580981341901547  0.3437929245384279  1.0000
  H   H392      1.0  0.4670194639002502  0.2521841139419337  0.34823557495691054  1.0000
  H   H393      1.0  0.47275909411863754  0.28941566692887055  0.3337229431070225  1.0000
  H   H394      1.0  0.4668959025501829  0.32410160390568754  0.378041904935143  1.0000
  H   H395      1.0  0.4557973928080041  0.31140598891787563  0.42406687584566105  1.0000
  H   H396      1.0  0.4278630969437635  0.2930547741589083  0.38754065111162  1.0000
  N   N18       1.0  0.3131877060074165  0.08829862225704144  0.29595714383909305  1.0000
  C   C357      1.0  0.3077313326346341  0.05703713519536491  0.28559071931026997  1.0000
  C   C358      1.0  0.32852268975963045  0.11031638472917238  0.2656233958641655  1.0000
  C   C359      1.0  0.3336809168373492  0.09963593972105289  0.3287446374712166  1.0000
  C   C360      1.0  0.28278823981243834  0.08619523781665817  0.3037972168627944  1.0000
  H   H397      1.0  0.29582171285490083  0.03964824715985027  0.3076069012281803  1.0000
  H   H398      1.0  0.3300765541252894  0.05757761695112662  0.2793688672278128  1.0000
  H   H399      1.0  0.29258576551287685  0.04796807149202764  0.2607875532045207  1.0000
  H   H400      1.0  0.35055863034691265  0.11108686955047009  0.2572824232018027  1.0000
  H   H401      1.0  0.31284786913417756  0.10351952308574464  0.24121523788683058  1.0000
  H   H402      1.0  0.33453883888775965  0.1345125265767111  0.2730837039690425  1.0000
  H   H403      1.0  0.33826671267616154  0.12318227665877846  0.33733854897665605  1.0000
  H   H404      1.0  0.35682018351800404  0.10152649383669576  0.3236812001864703  1.0000
  H   H405      1.0  0.3228159917381822  0.08359835681777628  0.35222060818688916  1.0000
  H   H406      1.0  0.2857619100525518  0.10956935033530191  0.30996824632998765  1.0000
  H   H407      1.0  0.27100061931788444  0.0706653688148775  0.3273856244052958  1.0000
  H   H408      1.0  0.2663166211785419  0.07651649919028225  0.28005546072323645  1.0000
  N   N19       1.0  0.32308427043152105  0.2758653141898872  0.6303191438051663  1.0000
  C   C361      1.0  0.31812092489862415  0.2632777156654893  0.667757375099058  1.0000
  C   C362      1.0  0.35572521391486883  0.30192435946297513  0.6267617766937794  1.0000
  C   C363      1.0  0.301185233224042  0.2875027888852469  0.6226398465766398  1.0000
  C   C364      1.0  0.3173419082830662  0.2508406651375866  0.6040113696423074  1.0000
  H   H409      1.0  0.3226743705172921  0.28159527962915337  0.6884408807861238  1.0000
  H   H410      1.0  0.33404776177341666  0.253999356378064  0.674385667991113  1.0000
  H   H411      1.0  0.29361342683929664  0.24376654118059748  0.6713371640363842  1.0000
  H   H412      1.0  0.37296949258369777  0.29421346834712125  0.632739867798614  1.0000
  H   H413      1.0  0.36025918942588775  0.3116127455219592  0.5985512450910824  1.0000
  H   H414      1.0  0.36077628522828653  0.32145832447625394  0.6458047789632734  1.0000
  H   H415      1.0  0.30558088035684255  0.29880850456237823  0.5954501304523468  1.0000
  H   H416      1.0  0.3037868210186204  0.3053286282407564  0.6430297273247345  1.0000
  H   H417      1.0  0.2762472881819129  0.2682765745596855  0.62271190095467  1.0000
  H   H418      1.0  0.33224984381626  0.24032663542164664  0.610096508829864  1.0000
  H   H419      1.0  0.3227016303560942  0.2600060417206463  0.5757558166224932  1.0000
  H   H420      1.0  0.2924425778392362  0.23159187242483717  0.6042362684466975  1.0000
  N   N20       1.0  0.7468532544306288  0.33743336588265677  0.6562960131189889  1.0000
  C   C365      1.0  0.7675315013426453  0.3405302474699767  0.6257534801429063  1.0000
  C   C366      1.0  0.7147287518429528  0.31152172947382806  0.648383968826223  1.0000
  C   C367      1.0  0.7463861276270298  0.36693369865522124  0.6607324436123284  1.0000
  C   C368      1.0  0.7587265276246494  0.3306678757575495  0.6902537943392927  1.0000
  H   H421      1.0  0.7921616619950554  0.3594384735448407  0.6308900809614194  1.0000
  H   H422      1.0  0.7594022040956678  0.3461402876617051  0.5999351763069215  1.0000
  H   H423      1.0  0.7678182719100218  0.3184070345907918  0.6210060054532208  1.0000
  H   H424      1.0  0.6985691399641469  0.30792139686821424  0.6711732709677157  1.0000
  H   H425      1.0  0.7048027860549682  0.3161416081072168  0.6233200159611004  1.0000
  H   H426      1.0  0.7143306438713051  0.289049929785441  0.6437599541042318  1.0000
  H   H427      1.0  0.7321776078854324  0.36597037867177734  0.6846134222971146  1.0000
  H   H428      1.0  0.7360474908017186  0.37202000703509935  0.6362863848646652  1.0000
  H   H429      1.0  0.7704081773236667  0.38724349939523267  0.6650868802909369  1.0000
  H   H430      1.0  0.7435310850207648  0.32812992852401024  0.7138291681767572  1.0000
  H   H431      1.0  0.7829203962940511  0.34977496238754424  0.69711468799797  1.0000
  H   H432      1.0  0.7593849205349258  0.3085519163430861  0.6877861796185091  1.0000
  N   N21       1.0  0.31183813040663166  0.7495970694494729  0.6480043536018529  1.0000
  C   C369      1.0  0.3070704205490711  0.7305919490883516  0.6810025814806289  1.0000
  C   C370      1.0  0.28276505687347697  0.7502064511751061  0.6391840653947203  1.0000
  C   C371      1.0  0.319749106492009  0.7357432703947139  0.6171566874200256  1.0000
  C   C372      1.0  0.33784028772920593  0.7818911676493384  0.6544147064121925  1.0000
  H   H433      1.0  0.3016803763552584  0.7406415548916685  0.7051196955293944  1.0000
  H   H434      1.0  0.3283767537469842  0.7291442214673309  0.6879572124318681  1.0000
  H   H435      1.0  0.2874128312979633  0.7061803795936105  0.6770696719313175  1.0000
  H   H436      1.0  0.28578124520700454  0.7647551354951455  0.6147124994642661  1.0000
  H   H437      1.0  0.2627679971086923  0.7263418985001916  0.6331867634627797  1.0000
  H   H438      1.0  0.2758063177296573  0.7601566188367077  0.6620244755631467  1.0000
  H   H439      1.0  0.32449448728972313  0.7501621706806855  0.5922450201850032  1.0000
  H   H440      1.0  0.3003728885739541  0.7117141064112426  0.6105294957666212  1.0000
  H   H441      1.0  0.3411239525784999  0.73411288872244  0.6230775219895279  1.0000
  H   H442      1.0  0.3602458603500781  0.782379152899586  0.6605304733729161  1.0000
  H   H443      1.0  0.33289885139090664  0.7931338167099847  0.6776677697296665  1.0000
  H   H444      1.0  0.34194402213018227  0.7967970998617032  0.6299248590261884  1.0000
  N   N22       1.0  0.4615657102915253  0.2598385473744499  0.9793409016789986  1.0000
  C   C373      1.0  0.4603768543947281  0.22935565647568337  0.9800421132989079  1.0000
  C   C374      1.0  0.44681055356920246  0.26340573821196755  0.012499773646369672  1.0000
  C   C375      1.0  0.44443100882891234  0.26128719383331594  0.9467776368826507  1.0000
  C   C376      1.0  0.49467896049306304  0.28528752883075914  0.9778309569708769  1.0000
  H   H445      1.0  0.471019164923577  0.22582568438685735  0.9550938492761443  1.0000
  H   H446      1.0  0.4358019856839614  0.20959852464914852  0.9813156731119753  1.0000
  H   H447      1.0  0.47334249868990674  0.22750367996971546  0.004051744678977842  1.0000
  H   H448      1.0  0.4588282921787341  0.2619978719101282  0.037702622667752816  1.0000
  H   H449      1.0  0.44750831176176253  0.28626208631606476  0.012859972240969242  1.0000
  H   H450      1.0  0.4216813646412361  0.24477471530562092  0.014220770534219218  1.0000
  H   H451      1.0  0.45442869839387673  0.2576921897394231  0.9214665269041444  1.0000
  H   H452      1.0  0.4455796134615762  0.2842907827000365  0.9445527876104819  1.0000
  H   H453      1.0  0.4191645262359637  0.24297168656890641  0.947287887221679  1.0000
  H   H454      1.0  0.5066451848750959  0.28276237033671364  0.9535651271234704  1.0000
  H   H455      1.0  0.508245115745177  0.28538534650112174  0.0023408457853948406  1.0000
  H   H456      1.0  0.4965775974785963  0.3086594866188819  0.9760090334432171  1.0000
  N   N23       1.0  0.4634576318776876  0.23515626580015533  0.6056091125099018  1.0000
  C   C377      1.0  0.45281297461626646  0.22474447635485167  0.6432215511069004  1.0000
  C   C378      1.0  0.4509749218477728  0.25517392068207195  0.5927545759760984  1.0000
  C   C379      1.0  0.4516996614347024  0.20750254493973141  0.5814417696283798  1.0000
  C   C380      1.0  0.4981614467845226  0.2531345648737828  0.6049751709285087  1.0000
  H   H457      1.0  0.46264766554591497  0.21044879030346256  0.6543146539786355  1.0000
  H   H458      1.0  0.4267864215024338  0.21004129780042552  0.6442804964034701  1.0000
  H   H459      1.0  0.4598176967321669  0.24490617141495538  0.6620393103007847  1.0000
  H   H460      1.0  0.4591382819595595  0.264108853138474  0.5648385179466527  1.0000
  H   H461      1.0  0.4249104525176681  0.24196784205504404  0.5916835967715949  1.0000
  H   H462      1.0  0.4584390616111417  0.27582035409943384  0.6108784960749416  1.0000
  H   H463      1.0  0.45936817040673783  0.21441013516497265  0.5528778645248256  1.0000
  H   H464      1.0  0.42550218176864557  0.19365717064921092  0.5810509430562547  1.0000
  H   H465      1.0  0.46041875127785653  0.19168092125401429  0.5904315387547785  1.0000
  H   H466      1.0  0.5069653467199897  0.2617693606381695  0.5770915722692015  1.0000
  H   H467      1.0  0.5084893373864872  0.2386233524025874  0.6137591525713071  1.0000
  H   H468      1.0  0.5077552774737912  0.2739981748269378  0.6231778165695323  1.0000
  N   N24       1.0  0.7420836196253122  0.48549911970489307  0.09283735766436903  1.0000
  C   C381      1.0  0.7252961666209823  0.45673253200497616  0.11475404226048255  1.0000
  C   C382      1.0  0.725953967239317  0.5038270742908412  0.09576667786423529  1.0000
  C   C383      1.0  0.7423649237663007  0.4769305791829594  0.054280742166671794  1.0000
  C   C384      1.0  0.7747282685421003  0.5044771810624246  0.10657117380517062  1.0000
  H   H469      1.0  0.7236418536929429  0.4621486742436511  0.14372515855105947  1.0000
  H   H470      1.0  0.7373697713245736  0.4428170419634881  0.11423708160751467  1.0000
  H   H471      1.0  0.7008833934080866  0.4412609465179017  0.10440801909521234  1.0000
  H   H472      1.0  0.7255681005621495  0.5109126495013947  0.12452202303681262  1.0000
  H   H473      1.0  0.7380015668495078  0.5257604131879581  0.0796423679273995  1.0000
  H   H474      1.0  0.7011855069524003  0.4901709806825377  0.08587104840624155  1.0000
  H   H475      1.0  0.7554792905773627  0.4641980052445994  0.051015839967516054  1.0000
  H   H476      1.0  0.753765642922974  0.497935053840812  0.03658059517877365  1.0000
  H   H477      1.0  0.7181428679717988  0.4613507431934047  0.043405896296753885  1.0000
  H   H478      1.0  0.7754033351782332  0.5118979834832027  0.1353147405700495  1.0000
  H   H479      1.0  0.788261999256316  0.5261636504718585  0.09034256144539031  1.0000
  H   H480      1.0  0.7874491448828961  0.4911687236282502  0.10575705320522559  1.0000
  N   N25       1.0  0.9585775009059315  0.2655716316567381  0.9626926903374851  1.0000
  C   C385      1.0  0.9753415663058072  0.2750998800473852  0.9981792908991495  1.0000
  C   C386      1.0  0.926932529368604  0.26165394255627333  0.9664404475961158  1.0000
  C   C387      1.0  0.9557338193064138  0.23565534514940037  0.9509096770640769  1.0000
  C   C388      1.0  0.976322515456337  0.28985872371591925  0.9352383982874203  1.0000
  H   H481      1.0  0.9993285788744758  0.27826761260654703  0.9962667976037183  1.0000
  H   H482      1.0  0.9625225910519214  0.2571967398306687  0.01949938246884564  1.0000
  H   H483      1.0  0.977874967449621  0.29757919974159525  0.007937650337120239  1.0000
  H   H484      1.0  0.9132969207155179  0.24439369815099093  0.987968708178989  1.0000
  H   H485      1.0  0.9280965804655577  0.28401111333955814  0.9739221867382829  1.0000
  H   H486      1.0  0.9130612601515556  0.25315142464536666  0.9405543836022892  1.0000
  H   H487      1.0  0.979174058455232  0.2378835630935113  0.9469583823531467  1.0000
  H   H488      1.0  0.9428188044662243  0.22750283663033943  0.9244644297779837  1.0000
  H   H489      1.0  0.9428620205786425  0.21684890158549733  0.9711890822539048  1.0000
  H   H490      1.0  0.9642666132477881  0.2833052565795602  0.908141491433803  1.0000
  H   H491      1.0  0.0003348584961655465  0.2934114008328635  0.9316462727675454  1.0000
  H   H492      1.0  0.9790122002255175  0.3128158749121486  0.9431140648519206  1.0000
  N   N26       1.0  0.5918984698457956  0.815337885955451  0.6087630677657733  1.0000
  C   C389      1.0  0.5877549164572619  0.7840746567224912  0.601357610030816  1.0000
  C   C390      1.0  0.6012866742218996  0.8238986392540526  0.6473518246990609  1.0000
  C   C391      1.0  0.5621045909734617  0.8148376879182347  0.6011781218067657  1.0000
  C   C392      1.0  0.6166324326758482  0.8385988624818742  0.5850344245529923  1.0000
  H   H493      1.0  0.6099651325426196  0.783758941795164  0.6062023930464663  1.0000
  H   H494      1.0  0.5805940531448726  0.7768279380164516  0.5724875118785104  1.0000
  H   H495      1.0  0.56939093848887  0.7658521362764379  0.618873334065898  1.0000
  H   H496      1.0  0.6234274049287009  0.8238862260625911  0.6539653650548014  1.0000
  H   H497      1.0  0.6056148873458005  0.8477847339454652  0.6536276162793712  1.0000
  H   H498      1.0  0.5829987652555356  0.807179675013986  0.6661683734637438  1.0000
  H   H499      1.0  0.5644016769192739  0.8380939949871682  0.6062621194260535  1.0000
  H   H500      1.0  0.5426993176140565  0.7972963974563407  0.6182237429902783  1.0000
  H   H501      1.0  0.5546672148024289  0.8086723792011532  0.5721908473277447  1.0000
  H   H502      1.0  0.6201703325345049  0.862471649013059  0.5891062536223809  1.0000
  H   H503      1.0  0.6110536185919383  0.8323784426967427  0.5557211751550788  1.0000
  H   H504      1.0  0.639486346518621  0.8400985770859865  0.5907947492481919  1.0000
  N   N27       1.0  0.3128903420422053  0.6011033282823521  0.9626684811290096  1.0000
  C   C393      1.0  0.31486689148775154  0.6255041639347242  0.937789343001147  1.0000
  C   C394      1.0  0.2851816402264986  0.5707351462288731  0.9526373806185561  1.0000
  C   C395      1.0  0.3099766849553643  0.6094128874900138  0.0005724697285001135  1.0000
  C   C396      1.0  0.3416691855389401  0.5989499619388364  0.9595509039109053  1.0000
  H   H505      1.0  0.33499951242371007  0.6487464460298944  0.9452389559082489  1.0000
  H   H506      1.0  0.2933991287352874  0.6275773101144384  0.9386629339514834  1.0000
  H   H507      1.0  0.31823816392225573  0.6206837473097397  0.9090903184193984  1.0000
  H   H508      1.0  0.2830400483680705  0.5516016998267101  0.9705167905265982  1.0000
  H   H509      1.0  0.2630621808342526  0.5715638099394107  0.9545166090990528  1.0000
  H   H510      1.0  0.2867034839602569  0.5640513306389181  0.9240848334492089  1.0000
  H   H511      1.0  0.30777805531084534  0.5912634832074368  0.020158041543919758  1.0000
  H   H512      1.0  0.2891857289832772  0.6124409872302083  0.0036587556392488896  1.0000
  H   H513      1.0  0.3309681089777715  0.6318635471770786  0.009136657513878932  1.0000
  H   H514      1.0  0.3412080462832968  0.5809258797752985  0.9780948749632307  1.0000
  H   H515      1.0  0.36308266387846067  0.6216558027715369  0.9663846901671586  1.0000
  H   H516      1.0  0.3445990985208773  0.5926524550427442  0.9312907412659741  1.0000
  N   N28       1.0  0.7588834943599139  0.8288655122796889  0.04594564820272121  1.0000
  C   C397      1.0  0.7725069262196562  0.8081847989737866  0.047633886681489844  1.0000
  C   C398      1.0  0.7842862548946253  0.8618203344608582  0.049266510073967436  1.0000
  C   C399      1.0  0.7367241072077202  0.8212804073785474  0.07623540715680642  1.0000
  C   C400      1.0  0.7420092399686782  0.8242425633231465  0.010847140534969268  1.0000
  H   H517      1.0  0.7858915360508011  0.8116924795753635  0.07357708332824985  1.0000
  H   H518      1.0  0.7889882565913415  0.8128188635337273  0.02484982459084479  1.0000
  H   H519      1.0  0.7539522497181957  0.783064058416357  0.04628884418097011  1.0000
  H   H520      1.0  0.7748343253680805  0.8780741637097661  0.0478192872006098  1.0000
  H   H521      1.0  0.797202031086132  0.8662326640308106  0.07576438223650173  1.0000
  H   H522      1.0  0.8016929247109505  0.8683148226244702  0.027107201204462285  1.0000
  H   H523      1.0  0.7261298087236032  0.836520993534239  0.07599168468135048  1.0000
  H   H524      1.0  0.7487090930943218  0.8246048447262964  0.10307458349999994  1.0000
  H   H525      1.0  0.7171504943496397  0.7966170411216504  0.07478167881039127  1.0000
  H   H526      1.0  0.7314360441933448  0.8395418160765117  0.008889684529459041  1.0000
  H   H527      1.0  0.7225766048542905  0.7996505252354306  0.00750032042192772  1.0000
  H   H528      1.0  0.7580129888268918  0.8299048941576285  0.9872989562741666  1.0000
  N   N29       1.0  0.9494660281509133  0.23902571794589866  0.380912524088044  1.0000
  C   C401      1.0  0.9427562281902354  0.2643826402299397  0.38891547436867235  1.0000
  C   C402      1.0  0.9661011273163038  0.23511604345063988  0.4124195179374501  1.0000
  C   C403      1.0  0.9693859115298014  0.2472274304161522  0.3482836603033832  1.0000
  C   C404      1.0  0.9197001354763016  0.2094642840280033  0.37416867755742717  1.0000
  H   H529      1.0  0.9308426713633032  0.26857973921475586  0.36551011058801214  1.0000
  H   H530      1.0  0.9646691467166544  0.2868366648573597  0.3951906396077098  1.0000
  H   H531      1.0  0.9273704542110811  0.25877724330460294  0.4130657476290093  1.0000
  H   H532      1.0  0.9885290549875464  0.2571079476480901  0.41854593027487025  1.0000
  H   H533      1.0  0.9515373142188558  0.22884228500882628  0.43735862535822145  1.0000
  H   H534      1.0  0.9718686672436071  0.21637800001220822  0.4074977465224004  1.0000
  H   H535      1.0  0.9749351344357886  0.22861500586731495  0.34142468008645555  1.0000
  H   H536      1.0  0.9920496680779559  0.2694277689687271  0.3525323173609354  1.0000
  H   H537      1.0  0.9574820842978131  0.25042712026488845  0.32400412863992023  1.0000
  H   H538      1.0  0.9237529517984978  0.18949228611308508  0.369985528681752  1.0000
  H   H539      1.0  0.9073366839411365  0.2109399774638096  0.3493389572868022  1.0000
  H   H540      1.0  0.9032650275979729  0.20345594523260951  0.39743315862771966  1.0000
  N   N30       1.0  0.806798531837836  0.13588988850257736  0.7226751357456447  1.0000
  C   C405      1.0  0.7925632881773985  0.14593111334314202  0.7510514177851837  1.0000
  C   C406      1.0  0.837165411639106  0.1403544060397615  0.7362454393831389  1.0000
  C   C407      1.0  0.8119708096422336  0.15488933180439934  0.6895633825567834  1.0000
  C   C408      1.0  0.7855664520646937  0.10248893242021323  0.7138904506091128  1.0000
  H   H541      1.0  0.8082855309856491  0.17100842027228166  0.7586134455119341  1.0000
  H   H542      1.0  0.7880965542579431  0.13201133107604154  0.7763959733307049  1.0000
  H   H543      1.0  0.7697726980837469  0.14323906729987915  0.741642009586694  1.0000
  H   H544      1.0  0.8496263826810053  0.13492947372781414  0.7148921845757368  1.0000
  H   H545      1.0  0.8529566922736191  0.16486841270380845  0.7453799350302149  1.0000
  H   H546      1.0  0.834097755384926  0.12507427723067863  0.7599534242388739  1.0000
  H   H547      1.0  0.8268171302404453  0.180280825961014  0.6957230227364206  1.0000
  H   H548      1.0  0.7894762804400196  0.15126486554346727  0.6777310113358855  1.0000
  H   H549      1.0  0.8240859045425928  0.14916596576221994  0.6679981943213351  1.0000
  H   H550      1.0  0.7956850011322333  0.09430278211654665  0.692502055111608  1.0000
  H   H551      1.0  0.7623146220237107  0.09816234286684208  0.7037830290844839  1.0000
  H   H552      1.0  0.7813073137336424  0.08752903798374508  0.7383373253441486  1.0000
  N   N31       1.0  0.29402046822973965  0.2654890436511937  0.2705890962709354  1.0000
  C   C409      1.0  0.26325722068769486  0.25108525407256727  0.2515878225029747  1.0000
  C   C410      1.0  0.29846984434861323  0.29272317979728657  0.2921243577975316  1.0000
  C   C411      1.0  0.3192740557392069  0.27589698698541354  0.2434617825619198  1.0000
  C   C412      1.0  0.2950828032578206  0.24229134678023073  0.29508954859718217  1.0000
  H   H553      1.0  0.2595378839103903  0.23114996766420354  0.23387668518009294  1.0000
  H   H554      1.0  0.2614035108872618  0.26835321106977095  0.23388887379671733  1.0000
  H   H555      1.0  0.24351757720595427  0.24208283741538902  0.27111702978866964  1.0000
  H   H556      1.0  0.279824727794118  0.2857517233492273  0.3128942053522486  1.0000
  H   H557      1.0  0.3215579058591316  0.3042758242256251  0.3066877384580314  1.0000
  H   H558      1.0  0.29768065038619307  0.3106342662640953  0.27433266828841546  1.0000
  H   H559      1.0  0.342760631691673  0.2855353730834149  0.2568274499182042  1.0000
  H   H560      1.0  0.3200399871965877  0.2943773867122916  0.22547836010019  1.0000
  H   H561      1.0  0.31592827822961783  0.25618289543223993  0.225644299634898  1.0000
  H   H562      1.0  0.3178127568034468  0.2525726732129214  0.31028500901508543  1.0000
  H   H563      1.0  0.29261144145434587  0.22184186564286182  0.2794819353058436  1.0000
  H   H564      1.0  0.27600558710329953  0.233391733857499  0.3155068561781108  1.0000
  N   N32       1.0  0.7384313075920035  0.29400120398757035  0.4313577201386444  1.0000
  C   C413      1.0  0.7611196952420238  0.29155906837382817  0.40752388454223143  1.0000
  C   C414      1.0  0.7271771613659063  0.2691354786862813  0.459180857123912  1.0000
  C   C415      1.0  0.7115453073014458  0.29046208677055185  0.4092136565566547  1.0000
  C   C416      1.0  0.754023962072602  0.32493457165296297  0.44951826226284874  1.0000
  H   H565      1.0  0.7702881244449316  0.3101873326464509  0.3864354174453748  1.0000
  H   H566      1.0  0.7501215829786089  0.2685048368539415  0.3933536134299331  1.0000
  H   H567      1.0  0.7816580548332287  0.2940584197325796  0.4235562608767608  1.0000
  H   H568      1.0  0.710993342310558  0.27097703740888124  0.47871422807059977  1.0000
  H   H569      1.0  0.7142963325121992  0.24541731664574218  0.44664201922610125  1.0000
  H   H570      1.0  0.7470533526283459  0.2704639542352124  0.4754247095636974  1.0000
  H   H571      1.0  0.6946729476851069  0.2935464445003763  0.42614080808909205  1.0000
  H   H572      1.0  0.6984123024809853  0.26699139769606606  0.3961028601708655  1.0000
  H   H573      1.0  0.7193075508930774  0.30825924244568836  0.38721077118506614  1.0000
  H   H574      1.0  0.7381867191858636  0.3269805859636355  0.46937253990189176  1.0000
  H   H575      1.0  0.7611074878755388  0.3442378137609441  0.42954534382727655  1.0000
  H   H576      1.0  0.7755113917978209  0.32926476851280395  0.46468648637887766  1.0000
  N   N33       1.0  0.08415760694013885  0.8217215460932891  0.6056711734764567  1.0000
  C   C417      1.0  0.0978990294867601  0.8389881519993809  0.5716227925442005  1.0000
  C   C418      1.0  0.10072711557708258  0.8050414420543917  0.6169361444669381  1.0000
  C   C419      1.0  0.050547821397135095  0.7987939179580963  0.5994008612139495  1.0000
  C   C420      1.0  0.08758894983952015  0.8440331586222859  0.6346202119067396  1.0000
  H   H577      1.0  0.09710707876911862  0.8230846260930549  0.5497549509758867  1.0000
  H   H578      1.0  0.1229628438756083  0.857260831535829  0.5756094104557884  1.0000
  H   H579      1.0  0.08509839563497357  0.850687735490266  0.561222287434294  1.0000
  H   H580      1.0  0.09147921448040597  0.792276119168475  0.6429593562155554  1.0000
  H   H581      1.0  0.09799269972353764  0.7875180905126151  0.5959461253105344  1.0000
  H   H582      1.0  0.12633599259178685  0.8215350396532255  0.6209700304513895  1.0000
  H   H583      1.0  0.03919380102170811  0.7857212971818522  0.6246796028922423  1.0000
  H   H584      1.0  0.04749018141763739  0.781232323384829  0.5783340464150308  1.0000
  H   H585      1.0  0.0373546113530403  0.8102997799957989  0.5896262425551072  1.0000
  H   H586      1.0  0.07758575154315084  0.83186281271985  0.6608081331964614  1.0000
  H   H587      1.0  0.07545802044036165  0.8571168505592675  0.6269442645264166  1.0000
  H   H588      1.0  0.11281457969217379  0.8614989142230052  0.6398470794464742  1.0000
  N   N34       1.0  0.735606270095403  0.31444285146803136  0.06303890937380112  1.0000
  C   C421      1.0  0.7563672059884478  0.3367609160802461  0.09130605880373861  1.0000
  C   C422      1.0  0.7033267281303462  0.30872558764640645  0.06746288153614025  1.0000
  C   C423      1.0  0.7355338341552995  0.28463389105412795  0.06692845511661655  1.0000
  C   C424      1.0  0.747186233248387  0.3276773199300324  0.026544670462551073  1.0000
  H   H589      1.0  0.7806724183968171  0.34065412207856594  0.09007641570182649  1.0000
  H   H590      1.0  0.7475884786379405  0.3281919160035539  0.11913597777659052  1.0000
  H   H591      1.0  0.7579785930542383  0.3598694772061641  0.08840465023174793  1.0000
  H   H592      1.0  0.6868934578444736  0.29179944417220094  0.04678782171608787  1.0000
  H   H593      1.0  0.6940073312199079  0.29929682945345215  0.09497043059351079  1.0000
  H   H594      1.0  0.7024413167104704  0.33064214205861664  0.06438782059207379  1.0000
  H   H595      1.0  0.7209556176273094  0.2675268067994779  0.04531118115559865  1.0000
  H   H596      1.0  0.7258707319366837  0.27353289205955394  0.09366721424007306  1.0000
  H   H597      1.0  0.7596999518229942  0.28819305253404337  0.06532013806888795  1.0000
  H   H598      1.0  0.73212670812486  0.3114608401581679  0.00447034412786107  1.0000
  H   H599      1.0  0.7716010498241359  0.3325471727895851  0.022415351822770792  1.0000
  H   H600      1.0  0.7472799618772992  0.35007415321660623  0.022609824395480427  1.0000
  N   N35       1.0  0.7260270615605927  0.9531589438917368  0.28042346142367225  1.0000
  C   C425      1.0  0.7151218159217098  0.9379912474120043  0.31625054105254347  1.0000
  C   C426      1.0  0.6986163723188705  0.9436852705656869  0.25595689318000436  1.0000
  C   C427      1.0  0.7470422804400915  0.9432835566488327  0.26425174534983054  1.0000
  C   C428      1.0  0.7432840671305254  0.987523470879812  0.285110382528246  1.0000
  H   H601      1.0  0.7010714437640498  0.9120734671674476  0.31341487841972543  1.0000
  H   H602      1.0  0.6999773269502927  0.9456326488977975  0.32981679838631356  1.0000
  H   H603      1.0  0.7351557080913793  0.9434344711787087  0.3350741777162558  1.0000
  H   H604      1.0  0.7059174022776201  0.9548103541412921  0.22874183306178866  1.0000
  H   H605      1.0  0.685393386429664  0.9178458588029517  0.2515069600659966  1.0000
  H   H606      1.0  0.6820185494496412  0.950448896249196  0.26739833232186905  1.0000
  H   H607      1.0  0.7564881440454054  0.954995834082732  0.2377369781662005  1.0000
  H   H608      1.0  0.7343844533974817  0.9176584621335142  0.25900638463090236  1.0000
  H   H609      1.0  0.767496116746132  0.9489720630899433  0.282411697233431  1.0000
  H   H610      1.0  0.7521778865709878  0.9996651194357403  0.2586046677150301  1.0000
  H   H611      1.0  0.7639838821251027  0.9953398612184879  0.3036291326139446  1.0000
  H   H612      1.0  0.7280646330094984  0.9959564862579018  0.2967558057796634  1.0000
  N   N36       1.0  0.2829393684072168  0.8354415647793647  0.446382952484431  1.0000
  C   C429      1.0  0.2923632050017202  0.8607119541830768  0.47364180802970746  1.0000
  C   C430      1.0  0.24938432156557  0.8119779290732949  0.4508551059232092  1.0000
  C   C431      1.0  0.3020555787398904  0.820314586311143  0.45173635411500546  1.0000
  C   C432      1.0  0.2878951041578397  0.848780460991205  0.4093417352800813  1.0000
  H   H613      1.0  0.3176028310511605  0.8787380587005545  0.471293167131404  1.0000
  H   H614      1.0  0.28857558567405417  0.8514785624362976  0.5018819952988548  1.0000
  H   H615      1.0  0.2784725668478374  0.8727119418504347  0.4703182821544358  1.0000
  H   H616      1.0  0.24157848521400394  0.7920382511658969  0.4315470123821664  1.0000
  H   H617      1.0  0.24452210389692475  0.8021692393617723  0.4788809198085751  1.0000
  H   H618      1.0  0.23423089627407445  0.8223953865152853  0.4460150641748054  1.0000
  H   H619      1.0  0.2958495113400055  0.8013049740865263  0.4314414112851072  1.0000
  H   H620      1.0  0.2983617346767917  0.8096173942842506  0.4792157276295418  1.0000
  H   H621      1.0  0.3276080193348887  0.8373753836000492  0.4493681987657308  1.0000
  H   H622      1.0  0.28073919717498796  0.830356252324729  0.38805053567318293  1.0000
  H   H623      1.0  0.3129788996400853  0.8665551707077808  0.40497830747290114  1.0000
  H   H624      1.0  0.27386904841791515  0.8605290062102403  0.4046487445477848  1.0000
  N   N37       1.0  0.25365343793296796  0.9865195229305155  0.7187836330585291  1.0000
  C   C433      1.0  0.23786634785999433  0.9698496657177167  0.6846887880114577  1.0000
  C   C434      1.0  0.2529065028339582  0.01599150202229016  0.7212693292710922  1.0000
  C   C435      1.0  0.28661213098502264  0.9936171117670008  0.7190647712871124  1.0000
  C   C436      1.0  0.23723021122890292  0.9666113041229231  0.7503228542275179  1.0000
  H   H625      1.0  0.24954587630460787  0.9841332629646132  0.6602145319345298  1.0000
  H   H626      1.0  0.21289374328779678  0.9640203914391084  0.683788937540761  1.0000
  H   H627      1.0  0.23803198605677148  0.9474772517615175  0.6819737321146884  1.0000
  H   H628      1.0  0.2657215537598027  0.029664235581437624  0.7460041771743998  1.0000
  H   H629      1.0  0.2639521263363456  0.0311830169249855  0.6972290182591686  1.0000
  H   H630      1.0  0.2283920674420248  0.011452600269527716  0.7232352248295513  1.0000
  H   H631      1.0  0.2991128212117766  0.00612363345179201  0.7445844594254971  1.0000
  H   H632      1.0  0.2997962024059248  0.008729277631498802  0.695699025207561  1.0000
  H   H633      1.0  0.28798261990844287  0.97184151352146  0.7173176354452069  1.0000
  H   H634      1.0  0.24872374890423155  0.978536403640443  0.7764159599685608  1.0000
  H   H635      1.0  0.23689935503428364  0.943917933850366  0.7493564834058342  1.0000
  H   H636      1.0  0.21242206798461166  0.9612582791359384  0.7514428620171343  1.0000
  N   N38       1.0  0.2423474181304737  0.48092752189679544  0.7454021449264981  1.0000
  C   C437      1.0  0.24760756818378568  0.46835680317153255  0.7113108877150787  1.0000
  C   C438      1.0  0.2112272104561511  0.478609080983563  0.7437490853417124  1.0000
  C   C439      1.0  0.26700649206037647  0.5140682828346488  0.7501001582049122  1.0000
  C   C440      1.0  0.24351238196755612  0.4626823660454988  0.7766707009230649  1.0000
  H   H637      1.0  0.2709351764582048  0.4698522918418099  0.7116372453574222  1.0000
  H   H638      1.0  0.2465775656261617  0.48134541879994386  0.6870265221626443  1.0000
  H   H639      1.0  0.22953929837292972  0.443282308004012  0.7071645374206234  1.0000
  H   H640      1.0  0.19204119100895722  0.45395768359568067  0.7402369983511664  1.0000
  H   H641      1.0  0.20643464728367547  0.487680252444062  0.7692525198539898  1.0000
  H   H642      1.0  0.20952538740096147  0.4922790182403969  0.7206237352656392  1.0000
  H   H643      1.0  0.26340833978621514  0.5242701724832411  0.7754189621020442  1.0000
  H   H644      1.0  0.26709712771769356  0.5285876136156078  0.7268556304717667  1.0000
  H   H645      1.0  0.29080602336233446  0.5167303255866854  0.7522422739882498  1.0000
  H   H646      1.0  0.23929271214005465  0.4714454746579415  0.8026760105702078  1.0000
  H   H647      1.0  0.26675378967364705  0.46413221242159414  0.7791999298883826  1.0000
  H   H648      1.0  0.22541577324810233  0.4374882263407063  0.7740773879256004  1.0000
  N   N39       1.0  0.5809860284387326  0.3348275289072063  0.7709219679633801  1.0000
  C   C441      1.0  0.5543912846625163  0.3080996182285035  0.7520697110739968  1.0000
  C   C442      1.0  0.5693371157110124  0.35282829574336894  0.7909723999155062  1.0000
  C   C443      1.0  0.6043229220683218  0.35522889300113814  0.7438451513227367  1.0000
  C   C444      1.0  0.5957831689291366  0.32301933755121304  0.7968337262722079  1.0000
  H   H649      1.0  0.5426436766728664  0.31615157219402584  0.7323421722434221  1.0000
  H   H650      1.0  0.5363570864529081  0.29226599902847755  0.7718660315238853  1.0000
  H   H651      1.0  0.5623749609815806  0.2939256613284214  0.7368402866121762  1.0000
  H   H652      1.0  0.5507298037791245  0.33774256466822145  0.8104319314842109  1.0000
  H   H653      1.0  0.58840230774236  0.37226824945199405  0.8071546121356782  1.0000
  H   H654      1.0  0.5592190342867428  0.3632741286470621  0.7722571050409796  1.0000
  H   H655      1.0  0.6128649778239468  0.34213300471426894  0.7274566493454395  1.0000
  H   H656      1.0  0.6252809711592561  0.3749294936461184  0.7572970162852602  1.0000
  H   H657      1.0  0.5944270323098828  0.3655105904414501  0.7245539606455603  1.0000
  H   H658      1.0  0.5785254528542907  0.3064265482814133  0.8166267797145411  1.0000
  H   H659      1.0  0.6150370979951263  0.34239001109252554  0.8128678619982478  1.0000
  H   H660      1.0  0.6063140512901642  0.31069003914293697  0.7825175667952422  1.0000
  N   N40       1.0  0.3409222436802948  0.7708798672810702  0.08623198119042479  1.0000
  C   C445      1.0  0.30943502371894416  0.742661620740482  0.08812691953755776  1.0000
  C   C446      1.0  0.34628702655418403  0.7906540933171943  0.11875334433322154  1.0000
  C   C447      1.0  0.3427115370549856  0.7886448373299412  0.05304287039480526  1.0000
  C   C448      1.0  0.36519632814885367  0.7616393711500304  0.08492403019395545  1.0000
  H   H661      1.0  0.30404681563529024  0.7276820372825984  0.06349383299302286  1.0000
  H   H662      1.0  0.2906219262852654  0.7487742860020493  0.09068395681309227  1.0000
  H   H663      1.0  0.30740941397622507  0.7280483670914794  0.11214596779640142  1.0000
  H   H664      1.0  0.34507797749808145  0.7779291969240243  0.14427388222162288  1.0000
  H   H665      1.0  0.36974277254830296  0.8122532539368916  0.118347820717439  1.0000
  H   H666      1.0  0.32832435080424827  0.7979834555372451  0.12063531739609533  1.0000
  H   H667      1.0  0.3661551330556928  0.8101040901166584  0.050693358432522255  1.0000
  H   H668      1.0  0.32469069198467415  0.7959640521164709  0.053203809034518976  1.0000
  H   H669      1.0  0.33871380029900194  0.7743133188369674  0.027968907150970355  1.0000
  H   H670      1.0  0.3893007593822008  0.782314898278765  0.08596302530663848  1.0000
  H   H671      1.0  0.3632709658942335  0.7486143575302998  0.059420985846232975  1.0000
  H   H672      1.0  0.36316777853017895  0.7462180969079715  0.10817019410784462  1.0000
  N   N41       1.0  0.7633186772144702  0.8137179176195988  0.41568380943154015  1.0000
  C   C449      1.0  0.7924601782188854  0.81275915840774  0.4225767648996512  1.0000
  C   C450      1.0  0.7357879687293586  0.7823893868723718  0.42187042386417606  1.0000
  C   C451      1.0  0.7626214190781018  0.8233786709125385  0.3776784049287459  1.0000
  C   C452      1.0  0.762249748555439  0.8364603270807646  0.44078969713654587  1.0000
  H   H673      1.0  0.8137079937489341  0.8360564800509716  0.4183743798665422  1.0000
  H   H674      1.0  0.7940371856648732  0.7956223053449102  0.4043951077601004  1.0000
  H   H675      1.0  0.7935965873890147  0.805767346399114  0.45117756896671124  1.0000
  H   H676      1.0  0.7355352827749438  0.774409345438416  0.45033444727707295  1.0000
  H   H677      1.0  0.7133681906456458  0.7823910178381417  0.4174689797141658  1.0000
  H   H678      1.0  0.7356402653120517  0.7645315519206399  0.4033383589013852  1.0000
  H   H679      1.0  0.7407377266210493  0.8241566519205921  0.3718002205568522  1.0000
  H   H680      1.0  0.7635801161234589  0.8069418905060529  0.35777538615386467  1.0000
  H   H681      1.0  0.7826898841013201  0.8472291616084814  0.37232329445233137  1.0000
  H   H682      1.0  0.7409377022472452  0.8381282989149738  0.4356876902392025  1.0000
  H   H683      1.0  0.7827852350671797  0.8603947236907415  0.4375048808350302  1.0000
  H   H684      1.0  0.7615743242899623  0.8295405694804346  0.46970376172291695  1.0000
  N   N42       1.0  0.957947965906187  0.73242305988298  0.3778053125263753  1.0000
  C   C453      1.0  0.9755396730701481  0.7320981222845127  0.41056465279927323  1.0000
  C   C454      1.0  0.9550902850862711  0.7607819649454463  0.37846191984867933  1.0000
  C   C455      1.0  0.9262795985048091  0.7042990049306297  0.3774104073576317  1.0000
  C   C456      1.0  0.9749641276172961  0.7326329381733833  0.3447637704971838  1.0000
  H   H685      1.0  0.963423479128204  0.7321325807341846  0.43593891870448787  1.0000
  H   H686      1.0  0.9994704242395185  0.7531489829644302  0.4118924126862522  1.0000
  H   H687      1.0  0.9782866059463481  0.7111027027197016  0.4112125063218243  1.0000
  H   H688      1.0  0.9429195437344481  0.7624537677667576  0.35361304415535777  1.0000
  H   H689      1.0  0.9415950978699114  0.7609812418083438  0.40252095277400834  1.0000
  H   H690      1.0  0.9785340887071243  0.7824500380495533  0.3802359481512148  1.0000
  H   H691      1.0  0.9274903871586446  0.6824427743366285  0.3784148043025256  1.0000
  H   H692      1.0  0.9128193546733971  0.7031620909108557  0.35229903950895586  1.0000
  H   H693      1.0  0.9121753522534677  0.7040389082890864  0.40111679506607106  1.0000
  H   H694      1.0  0.9623010877806478  0.732903458150571  0.3195057054040481  1.0000
  H   H695      1.0  0.9776083290622442  0.71158005056931  0.3434028764338197  1.0000
  H   H696      1.0  0.9989224864961083  0.7536262051458901  0.34420708737702305  1.0000
  N   N43       1.0  0.22255587190277254  0.9741776340418481  0.09191489026084512  1.0000
  C   C457      1.0  0.24041923725897332  0.9616387922848881  0.11096907169833306  1.0000
  C   C458      1.0  0.23317037544445904  0.006210734998257475  0.10528196591696497  1.0000
  C   C459      1.0  0.1887265650235478  0.953885526839514  0.09928905025971962  1.0000
  C   C460      1.0  0.22790800580942128  0.9748171118244292  0.052272597038347496  1.0000
  H   H697      1.0  0.23278058967552323  0.9373888549858735  0.10185169599597013  1.0000
  H   H698      1.0  0.2369959403416946  0.9609465670820599  0.1409068383888776  1.0000
  H   H699      1.0  0.26612523479513817  0.9761692349776742  0.10626019951598316  1.0000
  H   H700      1.0  0.22086972304985406  0.01686388825878585  0.09084743106416127  1.0000
  H   H701      1.0  0.22851876920199307  0.006296837379165257  0.13488492273463656  1.0000
  H   H702      1.0  0.2588983278978846  0.02182509388734319  0.10164145469238119  1.0000
  H   H703      1.0  0.17441999347868195  0.9627966669266229  0.08585144997257983  1.0000
  H   H704      1.0  0.1839921531373249  0.9521819270718906  0.12907792449206773  1.0000
  H   H705      1.0  0.17990007650099246  0.9296068960403306  0.08914107280168806  1.0000
  H   H706      1.0  0.21478306459798996  0.9841316925175065  0.03692040216562447  1.0000
  H   H707      1.0  0.21996503375028156  0.9509300939958037  0.04143038123326422  1.0000
  H   H708      1.0  0.2532643929285692  0.9895157738476786  0.045818785545935756  1.0000
  N   N44       1.0  0.10052738033395753  0.3011381578298024  0.7838662549151446  1.0000
  C   C461      1.0  0.1136826802696747  0.2919972120266266  0.8147770284724133  1.0000
  C   C462      1.0  0.1136802840770297  0.29745207460946993  0.7494176188909195  1.0000
  C   C463      1.0  0.10890499611991726  0.3341310686394178  0.7884195701562378  1.0000
  C   C464      1.0  0.065975210609978  0.28110585193328913  0.7829402554124003  1.0000
  H   H709      1.0  0.1044613538753633  0.2946895745706188  0.8412484998428778  1.0000
  H   H710      1.0  0.13979009649570864  0.3068161145004452  0.8161994201100253  1.0000
  H   H711      1.0  0.10779980191765973  0.26720299656889357  0.8124036572662271  1.0000
  H   H712      1.0  0.10591922525870494  0.30596892095704853  0.7256048379990191  1.0000
  H   H713      1.0  0.13980190183409022  0.3110008068451541  0.7501416396314857  1.0000
  H   H714      1.0  0.10662228377907856  0.27259554124476265  0.7442498277051083  1.0000
  H   H715      1.0  0.13473946149381125  0.34971758666654995  0.7900007294290985  1.0000
  H   H716      1.0  0.0991533589141141  0.3377655227598419  0.8139590181404762  1.0000
  H   H717      1.0  0.09997491441235534  0.342238996426468  0.7653643560634095  1.0000
  H   H718      1.0  0.05538023404738494  0.28391825031834517  0.8082315386952744  1.0000
  H   H719      1.0  0.0586268254536928  0.25589469611561655  0.7805773484633838  1.0000
  H   H720      1.0  0.0553725269678906  0.28715351996382144  0.7596650345018444  1.0000
  N   N45       1.0  0.7954275670283911  0.6087079983737731  0.9260369390674931  1.0000
  C   C465      1.0  0.7955638498520995  0.6189768002162945  0.9639353633099466  1.0000
  C   C466      1.0  0.8277153866115189  0.6254150552126477  0.9118107414076637  1.0000
  C   C467      1.0  0.7750358749965257  0.6159476070018471  0.9030873062167499  1.0000
  C   C468      1.0  0.7834892659730976  0.574658749790792  0.9252188293741515  1.0000
  H   H721      1.0  0.7717349670743444  0.6062505212042055  0.9759749728056486  1.0000
  H   H722      1.0  0.8034862341754788  0.6443754353375358  0.9652276475603601  1.0000
  H   H723      1.0  0.8117324021388403  0.6151580685342809  0.9818694179141545  1.0000
  H   H724      1.0  0.8441411974823084  0.6215137547040771  0.9291029311334303  1.0000
  H   H725      1.0  0.828712513954115  0.6175609974383274  0.883744003150535  1.0000
  H   H726      1.0  0.8368719201800742  0.6510093219694026  0.9105959753981616  1.0000
  H   H727      1.0  0.7744127538068296  0.608576238240469  0.8743047266447519  1.0000
  H   H728      1.0  0.7835713455677525  0.6415451722658279  0.9029729025374754  1.0000
  H   H729      1.0  0.7504298427087532  0.6037388655458238  0.9129586934192172  1.0000
  H   H730      1.0  0.7589746861573562  0.561171760677705  0.9352565152684371  1.0000
  H   H731      1.0  0.7983545741667031  0.5684079412372416  0.942259196880645  1.0000
  H   H732      1.0  0.7833105310367752  0.5662348126835656  0.8970213282045569  1.0000
  N   N46       1.0  0.21603605808181844  0.7825912662979166  0.2620538502631042  1.0000
  C   C469      1.0  0.2412760184501862  0.8156874609132388  0.2605988008492149  1.0000
  C   C470      1.0  0.19969913410912016  0.7765851827144276  0.2972488016782778  1.0000
  C   C471      1.0  0.2297950485448977  0.762159245917025  0.2583552584508951  1.0000
  C   C472      1.0  0.19333845784807302  0.7759973115035954  0.23191675848326276  1.0000
  H   H733      1.0  0.25929308185410915  0.8214416072608588  0.28233518643720834  1.0000
  H   H734      1.0  0.23186428142774124  0.8318017707320269  0.2639181743696172  1.0000
  H   H735      1.0  0.2535055981065881  0.8212860161878996  0.23404339176960842  1.0000
  H   H736      1.0  0.18063225129043609  0.7517750851153072  0.29942931144501367  1.0000
  H   H737      1.0  0.21616722970507302  0.7818412878098405  0.3206651341085177  1.0000
  H   H738      1.0  0.18872430977410515  0.7914209350434577  0.3004565069493918  1.0000
  H   H739      1.0  0.21146148044822496  0.7369606084038957  0.25899210381631094  1.0000
  H   H740      1.0  0.2471495940181383  0.7664785685253059  0.28050913747003026  1.0000
  H   H741      1.0  0.24228466397224815  0.7662509747160094  0.23206116146262978  1.0000
  H   H742      1.0  0.17398101842778652  0.7512245307008348  0.23208554929387815  1.0000
  H   H743      1.0  0.2048846923993993  0.7804116609006584  0.20491453111707328  1.0000
  H   H744      1.0  0.1824841730180148  0.791035243985038  0.23388849562873  1.0000
  N   N47       1.0  0.9801698807796803  0.28279856850416696  0.60739619892461  1.0000
  C   C473      1.0  0.9577150139518982  0.2869502390388699  0.6297760221996993  1.0000
  C   C474      1.0  0.9927400050598776  0.30676175192961763  0.5784959863381969  1.0000
  C   C475      1.0  0.9639645815057513  0.25131097301572336  0.590570140966464  1.0000
  C   C476      1.0  0.006328818703620122  0.286124131793956  0.6307718447807679  1.0000
  H   H745      1.0  0.9480495710589113  0.2694452489002234  0.6521181598521617  1.0000
  H   H746      1.0  0.9373770917209653  0.2839951790569363  0.6131235976877285  1.0000
  H   H747      1.0  0.9689083600529805  0.31060836319017743  0.6425026926693826  1.0000
  H   H748      1.0  0.01055409421935962  0.3049235674666524  0.5619060982221328  1.0000
  H   H749      1.0  0.9738836478777133  0.30432489785959416  0.5593904732707863  1.0000
  H   H750      1.0  0.004273418445713818  0.3308575724404203  0.5900446442436847  1.0000
  H   H751      1.0  0.980436816425801  0.24682135490671844  0.5747336765258693  1.0000
  H   H752      1.0  0.9448553255377526  0.24837363466048892  0.5715773405848005  1.0000
  H   H753      1.0  0.952936521338002  0.2326192744966637  0.6114430418824383  1.0000
  H   H754      1.0  0.019099275172789667  0.3096608071861461  0.6438610828948842  1.0000
  H   H755      1.0  0.023746676350451863  0.28317347810645793  0.6146474637567245  1.0000
  H   H756      1.0  0.9976780604597475  0.2683218761504264  0.6528062522456435  1.0000
  N   N48       1.0  0.2277945818341338  0.487243168884029  0.11806066042994344  1.0000
  C   C477      1.0  0.1955342091677502  0.4713594231806332  0.10268664654875047  1.0000
  C   C478      1.0  0.23028511615975  0.4672096035727387  0.14620532030091635  1.0000
  C   C479      1.0  0.23496480029023317  0.5174220729635632  0.13462664246567888  1.0000
  C   C480      1.0  0.2503872950181673  0.49278700630328  0.08880243413457511  1.0000
  H   H757      1.0  0.18943901975966648  0.44853796985362837  0.08988026932818097  1.0000
  H   H758      1.0  0.1925932744197133  0.48583342990238354  0.08150938048640541  1.0000
  H   H759      1.0  0.17784791611909473  0.46626307340559187  0.12422116909804436  1.0000
  H   H760      1.0  0.25419540618625486  0.4784775150517273  0.15883187520287156  1.0000
  H   H761      1.0  0.21308378269971023  0.4618822576592522  0.16833609810439998  1.0000
  H   H762      1.0  0.2254695488511795  0.44450515433894905  0.13448086877121196  1.0000
  H   H763      1.0  0.2587462975173966  0.5295526452142635  0.1476792461001671  1.0000
  H   H764      1.0  0.21783986563466384  0.5141194267085075  0.15618987531165437  1.0000
  H   H765      1.0  0.23416552726980805  0.533587959129528  0.11410654193275356  1.0000
  H   H766      1.0  0.2749262599587918  0.5045048361994438  0.09966966966018649  1.0000
  H   H767      1.0  0.249201785531149  0.50781729681234  0.06700251972221558  1.0000
  H   H768      1.0  0.2455192083387099  0.4703834634976432  0.07579807260904309  1.0000
