data_image0
_chemical_formula_structural       FeSHFeS2FeSFeS3FeSCFeS2FeSFeS3C3H2CHSH2C2H5CHCH5C4H2C4HCNHCHC6H6C2NH7C5H2SHC2H7CHNH2NHCH2C3H2N2C4H12CHSHC2H2CH5CHFeCH3C2HSHC2HFeSHFeS2FeSFeS3FeSHFeS2FeSFeS3H3CH2NCH8C2HC3HCNHCHNHC7HC2HC6H6C2H6CSC4H4C2H7CH6CH4NHCHCH9CHCHCSHC2NCSH2CH2CH3SC3HCH9NC3SCHFeHSH2C3H2CFe2S4HFeS2FeS2FeS2C6H4C6H6NHCHCHCNC3H2NS2H6CH3CH2FeHCH3CHSCFeHFeH2C3HCH3CH2C2HC2H4CH2SH5C3HSH2C2H4CH3SH2SHSHCFeNHCHCHFeHCH6SHCHFeS2CSNHFe2S3C2HFeH2CH4SHC3SHC2NH2CH3FeHC2SHC5HC2SH3CH2CH3CH2CNCH6SCHCSFeS2FeS2FeSFeS3FeSHFeS2FeS2FeSHFeHFeS3HFeS2FeH2S2C6H5CHSNCFeC7H4C6H4C6H4CSH2SH2CHC2SC2H4CHCSH4C3FeH6NC4H12NC4H12CHCHCHNH3C2SH4NCNC2H7CFeC4H4CH5C2H7NHC2FeSHS2CFeS2FeS2FeHFeHS2H4SH2SHC4H2C2HC2H2C9H4C6H8NH2CFeSC2H2SCNH2C2HCSH2CH3C2FeNC4H13SCH2CH4FeCH3SH8C2FeSCHC2FeSHS2HFeS2FeS2FeHFeS3H4CHCH3C2H3CH2C2HSCH2C6H4C6H9SC2HNCH2CNHCH3FeC4NCHCH3C2H2SH3C2SH2CH2CH6NCH4SH2CHN2C4H2CHSHFeCH4CH2CHCH3C4H4SFeS2FeS2FeSFeS3FeS2FeS2FeSFeS3FeS2C2H2FeS3FeS2FeS2FeSFeS3C7H4C2HC3HCH2CH2CHCH4C6H4C6H4C6H4C6H3CH3CH4NH5CH4C2H4CHCHCNC3H8CNCH3CSHCH3CHNCNC4H12FeH8NCH5CH9CH3CH2CHCFeSHFeS2FeS2FeSFeS3FeS2FeS2FeSFeS3FeS2CHFeHFeS3FeS2FeS2FeSFeS3HC6H4C2H2C2H4CSH8C6H4C6H4C6H4C6H4NC4H14CHNC4H8NH3CH2NHCH9CHNCH2CHCH5C4HNH5CHFeCHSC2H3CH2C3H5CH2C3HNC2H8CH3C3SFeS2CH3CSFeS2FeS2FeSFeS3FeS2FeS2FeHSHSHS3CFeC4H4C3H2C2H2C7H4CH3C2H3C2HC2H4C7H4C6H4CH4CH3CHCH3CHC3HSHNC2HCNCHC3H3CFeHC2NHNCH6SHNH7CH2CH2FeH7CFeNCHCH4CSH5C2H2SNHCFeH2CHCSH4CNH6CH3FeH4SH5CH3CHC2HCH5FeHSFeS2CNHCS2FeS2FeS2FeSFeS3FeSFe2S2FeSH2SH2S2CHC4SH4CHCH4S2C2SHC2H4CHCHC3H2C6H2CHC6H4C6H5CH2CH2C4NC3H14CFeSCHCH5CH5SHCFeHCH3CNHCHSH2C2H3NC4H3CH3C2H2CNC4H8CHCH4C2H4NCHCH4C2SH2SH2CFeS2FeS2FeSFeS3HSCSHSHSCSH2FeS2H5CH2FeHC2H3C6H4C6HCH2C7HFeH4CHC2H4NH2CNC4H8CNH2SH2C2SCH5FeHSH3CH4FeCH3SHCHFe2S2FeS2FeSFeS3HSFeC2SHSCSCHFeS2CHNC2H2CHC3H3C6H4C6H4CSHC3NFeH2CHC3H5SCH3CH5CHCH3CNH8CH5CHNCH5CH2FeH3CHSCHC2HNHCH3FeS2FeS2FeSFeS3CSH3SFeS2FeSH2SFeSCS2H2CHCH3CHC2NC7H4C6H4C6H4C2HC3H2CHNHC2H2CNCHCH3CH2NH2CH2CHC3H3NC2H2CH4FeH2C2HCH2CH4CH2NCH2CH2SH3C2NHCH5SHFeH8NH4FeH3CH7CSCH5FeS2FeS2FeSFeS3CH2CNSFeSHFeSNHSFeSHS2C2HCSH3CHC3HC6H4C6H4C6H4C2H3CH4CH2SFeSHNCSH4CHCHC3HCH2CH3SCNCHCH3CHSHCH2FeH8CH3CH3NFeCHC3H6CH5CH9C3HFeSHFeSHS2Fe2S2FeS2FeHFeS3FeSFe2S2CHFeSHSHSFeS2FeSFeS3HC6H4C6H4C2H2C2HCH2SC5H3CSC6H4C6H4SH5CFeH3CHC2HN2H3CH4CHCHFeH3NC4H15SHCHNHNHCHCHCH6CH3C2H4CH5CH3NC2HSHNCH2CHSHCH2FeSCFeSCFeSCS2CFeS2FeS2FeNFeS3FeSHFeSH2CFeSCSHSFeS2FeSFeS3HC6H2C8H4C3H2CH2CH3CHCH5C7H4C6H8SH2NHCSH3CHC2H4FeSNH3CHFeH3CFeCH7C2H2CSHSCH5C2H2CHCNH2SNH2CHC2H16SC4FeHSFeS2FeHFeHS2FeS2FeS2FeSFeS5FeS2FeS2FeSFeS3C6H5C6H4C2H3CH5C2HSHC2H2C6H4C5H3C5H5CNC4H13CH2NH2CS2FeC2HC2H2C3H2CSH2C2HN2H7C2H13C3HNH2CSH3CH2CH3CNFeH2CHCH6C2FeHCNHC3H3CH2CH3CHCHFeS2FeS2FeHFeS3FeS2FeS2FeSFeS5FeS2FeS2FeSFeS3C6H5C6H4C2H3CHCH3CHCHCNHC8H4C5H3SC4H4CNH2CH3C2H2C2H4CNC3H3NC3H4NCHC2H7NH3CHCH4CH2CH8CFeH4C2H7CH4C2H4CHSCHNH2CH2CHC2HCHC3H2C2H3FeH2SH5SFeSHCSFeSHSFeCFeS2HFeS2HCH3S2H2SNC2SH3C6HCH2C7H3C2HC3H3CNC2H5NHCHCH9SCFeHSH5FeH3FeSH2FeSHFeSFeSHSFeSFeS3FeS2HCSCH2SCH5CSHC2HC4SNCHC7H3C6HCHCH2NCH2FeH5CH4NH2C2H5C2H10NHCH5CH7SFeH3S2FeS2FeS2FeSFeS4H3FeS2FeSFeS3C6H4C6H4C6H4C6H4C6H4FeC6HFeH3CHCHNCHNH2CH3C2HNC2H7NCHC2SCH4CH5NH4FeNHC2H6SH12CH4FeC3HNHC2H2CHSCNCH2SC2H4C2H9CH3CH2CH5CH5SFeS2FeS2FeSFeS4H2SFeS2FeSFeS3C6H4C6H4C6H4C6H4C6H5C5H2C2HCH2SH2CH2SHCH2NH4CSCFeCNFeH3SHNC4H12NC3H9FeH5CH2CH3CH5NC4H7SH2CHNHCH2FeHCFeS2HC2HCSCSFeSH2CFeSFeSH2FeS2FeS2FeSFeS3FeS2FeS2FeSFeS3CH2C4H4CHC3SH4C6H4CH3C2H4C6H4C4H2C2HC3HCSCH2NC3H10CH2CHCHCHC2H2CHNC4H6NH4NC4HCH11CHFeC2FeH2CS2NH7SHNHCSH3SH3CH2C2HCH3C2H5CHFeS2HCFeHFeSCHFeS2HCFeSFeSHCFeS2FeS2FeSFeS3FeS2FeS2FeSFeS3H3C3H5CH2C2H5C6H4CHCHC2H4C6H4C6H2SC3HCHCHN2CH3CH2NH3CH2CHNHCHCH2CH2CHC3SFeHNC4H12NHCHCH5SNC4H11CHS2H2CH6C2H3SHSC4HC3S2H3NH4CH3C
_chemical_formula_sum              "Fe288 S576 H2304 C1440 N144"
_cell_length_a       75.9019
_cell_length_b       76.1363
_cell_length_c       49.6908
_cell_angle_alpha    89.9837
_cell_angle_beta     91.6288
_cell_angle_gamma    113.096

_space_group_name_H-M_alt    "P 1"
_space_group_IT_number       1

loop_
  _space_group_symop_operation_xyz
  'x, y, z'

loop_
  _atom_site_type_symbol
  _atom_site_label
  _atom_site_symmetry_multiplicity
  _atom_site_fract_x
  _atom_site_fract_y
  _atom_site_fract_z
  _atom_site_occupancy
  Fe  Fe1       1.0  0.30077  0.18577  0.10309  1.0000
  S   S1        1.0  0.28877  0.15399  0.10662  1.0000
  H   H1        1.0  0.07299  0.24116  0.47413  1.0000
  Fe  Fe2       1.0  0.26264  0.18832  0.11532  1.0000
  S   S2        1.0  0.24749  0.15642  0.12002  1.0000
  S   S3        1.0  0.25245  0.21268  0.11432  1.0000
  Fe  Fe3       1.0  0.27431  0.15870  0.14351  1.0000
  S   S4        1.0  0.27762  0.14151  0.17957  1.0000
  Fe  Fe4       1.0  0.26330  0.15444  0.08299  1.0000
  S   S5        1.0  0.24967  0.13351  0.04827  1.0000
  S   S6        1.0  0.28836  0.19076  0.14132  1.0000
  S   S7        1.0  0.27641  0.18590  0.07687  1.0000
  Fe  Fe5       1.0  0.31347  0.13462  0.35627  1.0000
  S   S8        1.0  0.29717  0.15273  0.36480  1.0000
  C   C1        1.0  0.25580  0.13851  0.01411  1.0000
  Fe  Fe6       1.0  0.27726  0.09723  0.36194  1.0000
  S   S9        1.0  0.25884  0.11354  0.37122  1.0000
  S   S10       1.0  0.26724  0.06534  0.35147  1.0000
  Fe  Fe7       1.0  0.27422  0.13271  0.33718  1.0000
  S   S11       1.0  0.26038  0.14431  0.30412  1.0000
  Fe  Fe8       1.0  0.28395  0.13203  0.39818  1.0000
  S   S12       1.0  0.28795  0.14736  0.43901  1.0000
  S   S13       1.0  0.29128  0.11568  0.32677  1.0000
  S   S14       1.0  0.30153  0.11461  0.39064  1.0000
  C   C2        1.0  0.21612  0.16921  0.01736  1.0000
  C   C3        1.0  0.26569  0.15718  0.00536  1.0000
  C   C4        1.0  0.05766  0.23315  0.46799  1.0000
  H   H2        1.0  0.26948  0.16899  0.01945  1.0000
  H   H3        1.0  0.14138  0.22415  0.23436  1.0000
  C   C5        1.0  0.30799  0.18069  0.29797  1.0000
  H   H4        1.0  0.32173  0.17814  0.46653  1.0000
  S   S15       1.0  0.16991  0.21475  0.12390  1.0000
  H   H5        1.0  0.17527  0.22709  0.18028  1.0000
  H   H6        1.0  0.30470  0.11892  0.00490  1.0000
  C   C6        1.0  0.01389  0.24576  0.36233  1.0000
  C   C7        1.0  0.19296  0.21438  0.12156  1.0000
  H   H7        1.0  0.22634  0.16249  0.01239  1.0000
  H   H8        1.0  0.19434  0.17856  0.05263  1.0000
  H   H9        1.0  0.24707  0.20601  0.05565  1.0000
  H   H10       1.0  0.02871  0.23325  0.41452  1.0000
  H   H11       1.0  0.15566  0.19269  0.17349  1.0000
  C   C8        1.0  0.30596  0.18931  0.25153  1.0000
  H   H12       1.0  0.23446  0.16276  0.06033  1.0000
  C   C9        1.0  0.16923  0.22591  0.20072  1.0000
  H   H13       1.0  0.20656  0.19836  0.03108  1.0000
  H   H14       1.0  0.15911  0.18830  0.20835  1.0000
  H   H15       1.0  0.14212  0.21611  0.16075  1.0000
  H   H16       1.0  0.04665  0.22579  0.35740  1.0000
  H   H17       1.0  0.02965  0.21285  0.43147  1.0000
  C   C10       1.0  0.03289  0.22682  0.35878  1.0000
  C   C11       1.0  0.01591  0.21011  0.35846  1.0000
  C   C12       1.0  0.06543  0.23644  0.42105  1.0000
  C   C13       1.0  0.03275  0.22832  0.43394  1.0000
  H   H18       1.0  0.01680  0.19631  0.35700  1.0000
  H   H19       1.0  0.21149  0.03007  0.40708  1.0000
  C   C14       1.0  0.22940  0.21280  0.11799  1.0000
  C   C15       1.0  0.22705  0.23004  0.11406  1.0000
  C   C16       1.0  0.20893  0.23086  0.11587  1.0000
  C   C17       1.0  0.30635  0.15903  0.03684  1.0000
  H   H20       1.0  0.22966  0.17845  0.08326  1.0000
  C   C18       1.0  0.21344  0.19629  0.12380  1.0000
  N   N1        1.0  0.31294  0.14361  0.03097  1.0000
  H   H21       1.0  0.06285  0.24162  0.40099  1.0000
  C   C19       1.0  0.19526  0.19710  0.12550  1.0000
  H   H22       1.0  0.21509  0.18297  0.12710  1.0000
  C   C20       1.0  0.27261  0.14283  0.21395  1.0000
  C   C21       1.0  0.28027  0.13388  0.23298  1.0000
  C   C22       1.0  0.27681  0.13445  0.26056  1.0000
  C   C23       1.0  0.26522  0.14357  0.26948  1.0000
  C   C24       1.0  0.25747  0.15248  0.25048  1.0000
  C   C25       1.0  0.26126  0.15227  0.22284  1.0000
  H   H23       1.0  0.28916  0.12665  0.22631  1.0000
  H   H24       1.0  0.28323  0.12792  0.27488  1.0000
  H   H25       1.0  0.24850  0.15962  0.25714  1.0000
  H   H26       1.0  0.25521  0.15916  0.20839  1.0000
  H   H27       1.0  0.23815  0.05948  0.39223  1.0000
  H   H28       1.0  0.29150  0.16840  0.48789  1.0000
  C   C26       1.0  0.25816  0.12445  0.47113  1.0000
  C   C27       1.0  0.27405  0.14166  0.46838  1.0000
  N   N2        1.0  0.31882  0.19235  0.27552  1.0000
  H   H29       1.0  0.25228  0.19111  0.03182  1.0000
  H   H30       1.0  0.24062  0.20638  0.02068  1.0000
  H   H31       1.0  0.25374  0.11417  0.45470  1.0000
  H   H32       1.0  0.28510  0.12327  0.01838  1.0000
  H   H33       1.0  0.12202  0.20513  0.18180  1.0000
  H   H34       1.0  0.16958  0.24019  0.20634  1.0000
  H   H35       1.0  0.30291  0.16516  0.29338  1.0000
  C   C28       1.0  0.20859  0.18977  0.04809  1.0000
  C   C29       1.0  0.24436  0.02696  0.35086  1.0000
  C   C30       1.0  0.24779  0.04484  0.36274  1.0000
  C   C31       1.0  0.23573  0.04585  0.38292  1.0000
  C   C32       1.0  0.22062  0.02912  0.39130  1.0000
  H   H36       1.0  0.31789  0.12130  0.05230  1.0000
  H   H37       1.0  0.25355  0.02603  0.33514  1.0000
  S   S16       1.0  0.12057  0.24820  0.43548  1.0000
  H   H38       1.0  0.08089  0.24420  0.42652  1.0000
  C   C33       1.0  0.21726  0.01122  0.37954  1.0000
  C   C34       1.0  0.13710  0.21575  0.18162  1.0000
  H   H39       1.0  0.21030  0.15804  0.06911  1.0000
  H   H40       1.0  0.13686  0.22995  0.18604  1.0000
  H   H41       1.0  0.13566  0.23875  0.48438  1.0000
  H   H42       1.0  0.18295  0.18429  0.12997  1.0000
  H   H43       1.0  0.30602  0.16728  0.01847  1.0000
  H   H44       1.0  0.12717  0.19918  0.22966  1.0000
  H   H45       1.0  0.17910  0.22267  0.21497  1.0000
  C   C35       1.0  0.14989  0.19237  0.19398  1.0000
  H   H46       1.0  0.23934  0.24288  0.10956  1.0000
  N   N3        1.0  0.14955  0.21106  0.20124  1.0000
  H   H47       1.0  0.15111  0.20695  0.24396  1.0000
  H   H48       1.0  0.29170  0.15322  0.04499  1.0000
  N   N4        1.0  0.05311  0.23946  0.44150  1.0000
  H   H49       1.0  0.20188  0.15741  0.02010  1.0000
  C   C36       1.0  0.24146  0.19689  0.03725  1.0000
  H   H50       1.0  0.13525  0.18085  0.19379  1.0000
  H   H51       1.0  0.29332  0.19272  0.25583  1.0000
  C   C37       1.0  0.03198  0.24478  0.36093  1.0000
  C   C38       1.0  0.22914  0.01025  0.35908  1.0000
  C   C39       1.0  0.99782  0.21111  0.35999  1.0000
  H   H52       1.0  0.31584  0.16930  0.05209  1.0000
  H   H53       1.0  0.30039  0.17419  0.24449  1.0000
  N   N5        1.0  0.22261  0.18138  0.04181  1.0000
  N   N6        1.0  0.24246  0.07676  0.28093  1.0000
  C   C40       1.0  0.23499  0.08235  0.25600  1.0000
  C   C41       1.0  0.26239  0.07869  0.27706  1.0000
  C   C42       1.0  0.23047  0.05672  0.28738  1.0000
  C   C43       1.0  0.24206  0.08930  0.30337  1.0000
  H   H54       1.0  0.21996  0.08103  0.25815  1.0000
  H   H55       1.0  0.23523  0.07332  0.23851  1.0000
  H   H56       1.0  0.24370  0.09750  0.25081  1.0000
  H   H57       1.0  0.26861  0.07488  0.29563  1.0000
  H   H58       1.0  0.26319  0.06922  0.26050  1.0000
  H   H59       1.0  0.27184  0.09358  0.27196  1.0000
  H   H60       1.0  0.21537  0.05474  0.29075  1.0000
  H   H61       1.0  0.23591  0.05216  0.30608  1.0000
  H   H62       1.0  0.23035  0.04678  0.27089  1.0000
  H   H63       1.0  0.22731  0.08847  0.30666  1.0000
  H   H64       1.0  0.25118  0.10449  0.29942  1.0000
  H   H65       1.0  0.24738  0.08536  0.32259  1.0000
  C   C44       1.0  0.29982  0.13037  0.01062  1.0000
  H   H66       1.0  0.05508  0.21771  0.46756  1.0000
  S   S17       1.0  0.13273  0.23640  0.11424  1.0000
  H   H67       1.0  0.02303  0.22979  0.44933  1.0000
  C   C45       1.0  0.14199  0.21026  0.22852  1.0000
  C   C46       1.0  0.31300  0.13307  0.05594  1.0000
  H   H68       1.0  0.24320  0.10885  0.00193  1.0000
  H   H69       1.0  0.31694  0.18343  0.31681  1.0000
  C   C47       1.0  0.22432  0.16965  0.06462  1.0000
  H   H70       1.0  0.15119  0.25139  0.02138  1.0000
  H   H71       1.0  0.21344  0.19947  0.06599  1.0000
  H   H72       1.0  0.06283  0.22108  0.41874  1.0000
  H   H73       1.0  0.20733  0.24424  0.11281  1.0000
  H   H74       1.0  0.29842  0.12667  0.06440  1.0000
  C   C48       1.0  0.32666  0.21277  0.28346  1.0000
  H   H75       1.0  0.04881  0.23541  0.48405  1.0000
  Fe  Fe9       1.0  0.16407  0.24181  0.11955  1.0000
  C   C49       1.0  0.12931  0.24876  0.48948  1.0000
  H   H76       1.0  0.31349  0.19828  0.23440  1.0000
  H   H77       1.0  0.21488  0.17758  0.99958  1.0000
  H   H78       1.0  0.31506  0.21753  0.28873  1.0000
  C   C50       1.0  0.99690  0.22905  0.36179  1.0000
  C   C51       1.0  0.27953  0.15488  0.48993  1.0000
  H   H79       1.0  0.29511  0.18369  0.30234  1.0000
  S   S18       1.0  0.09764  0.24944  0.36274  1.0000
  H   H80       1.0  0.32272  0.14263  0.07176  1.0000
  C   C52       1.0  0.25095  0.12335  0.99540  1.0000
  C   C53       1.0  0.14077  0.25265  0.00701  1.0000
  H   H81       1.0  0.32500  0.14745  0.46435  1.0000
  Fe  Fe10      1.0  0.28768  0.18049  0.60558  1.0000
  S   S19       1.0  0.27864  0.14889  0.60259  1.0000
  H   H82       1.0  0.29771  0.23933  0.62402  1.0000
  Fe  Fe11      1.0  0.24861  0.17731  0.62372  1.0000
  S   S20       1.0  0.23623  0.14511  0.62186  1.0000
  S   S21       1.0  0.23576  0.19646  0.64301  1.0000
  Fe  Fe12      1.0  0.26408  0.14755  0.64177  1.0000
  S   S22       1.0  0.26832  0.12736  0.67254  1.0000
  Fe  Fe13      1.0  0.25185  0.14886  0.58273  1.0000
  S   S23       1.0  0.24044  0.12866  0.54684  1.0000
  S   S24       1.0  0.27552  0.17936  0.64635  1.0000
  S   S25       1.0  0.26178  0.18086  0.58298  1.0000
  Fe  Fe14      1.0  0.30443  0.13246  0.85169  1.0000
  S   S26       1.0  0.28509  0.14820  0.85347  1.0000
  H   H83       1.0  0.30556  0.14850  0.76844  1.0000
  Fe  Fe15      1.0  0.27164  0.09408  0.86542  1.0000
  S   S27       1.0  0.25017  0.10769  0.86851  1.0000
  S   S28       1.0  0.26642  0.06237  0.86711  1.0000
  Fe  Fe16      1.0  0.26352  0.12318  0.83076  1.0000
  S   S29       1.0  0.24617  0.12758  0.79522  1.0000
  Fe  Fe17      1.0  0.27393  0.13145  0.89121  1.0000
  S   S30       1.0  0.27322  0.15086  0.92585  1.0000
  S   S31       1.0  0.28354  0.10840  0.82642  1.0000
  S   S32       1.0  0.29468  0.11692  0.89053  1.0000
  H   H84       1.0  0.27645  0.08814  0.61462  1.0000
  H   H85       1.0  0.10018  0.23979  0.72913  1.0000
  H   H86       1.0  0.24006  0.08778  0.80990  1.0000
  C   C54       1.0  0.24119  0.06812  0.59353  1.0000
  H   H87       1.0  0.20685  0.03696  0.80484  1.0000
  H   H88       1.0  0.16370  0.21470  0.67555  1.0000
  N   N7        1.0  0.23328  0.05960  0.79375  1.0000
  C   C55       1.0  0.26559  0.09432  0.61778  1.0000
  H   H89       1.0  0.22223  0.02938  0.78524  1.0000
  H   H90       1.0  0.22800  0.03570  0.81998  1.0000
  H   H91       1.0  0.16409  0.18423  0.66006  1.0000
  H   H92       1.0  0.26240  0.07735  0.78470  1.0000
  H   H93       1.0  0.23352  0.07905  0.76224  1.0000
  H   H94       1.0  0.19229  0.20126  0.57043  1.0000
  H   H95       1.0  0.13835  0.18432  0.69067  1.0000
  H   H96       1.0  0.23840  0.07006  0.83455  1.0000
  C   C56       1.0  0.25352  0.06243  0.79048  1.0000
  C   C57       1.0  0.22545  0.06394  0.76820  1.0000
  H   H97       1.0  0.25494  0.05270  0.77477  1.0000
  C   C58       1.0  0.25353  0.13383  0.51677  1.0000
  C   C59       1.0  0.01694  0.23642  0.83923  1.0000
  C   C60       1.0  0.22985  0.00633  0.87011  1.0000
  H   H98       1.0  0.31796  0.16481  0.60017  1.0000
  C   C61       1.0  0.15409  0.21413  0.65795  1.0000
  N   N8        1.0  0.25101  0.08912  0.59555  1.0000
  H   H99       1.0  0.27338  0.11007  0.61974  1.0000
  C   C62       1.0  0.01525  0.21766  0.88780  1.0000
  H   H100      1.0  0.21705  0.07050  0.81876  1.0000
  N   N9        1.0  0.14190  0.19429  0.64991  1.0000
  H   H101      1.0  0.14550  0.16887  0.63739  1.0000
  C   C63       1.0  0.12975  0.19442  0.62619  1.0000
  C   C64       1.0  0.21944  0.20499  0.62756  1.0000
  C   C65       1.0  0.21512  0.21895  0.64109  1.0000
  C   C66       1.0  0.20276  0.22667  0.62914  1.0000
  C   C67       1.0  0.19449  0.22033  0.60361  1.0000
  C   C68       1.0  0.19873  0.20629  0.59015  1.0000
  C   C69       1.0  0.21117  0.19865  0.60205  1.0000
  H   H102      1.0  0.26791  0.11248  0.57069  1.0000
  C   C70       1.0  0.99902  0.22411  0.84889  1.0000
  C   C71       1.0  0.29920  0.18609  0.79699  1.0000
  H   H103      1.0  0.21432  0.18784  0.59148  1.0000
  C   C72       1.0  0.26211  0.12765  0.70656  1.0000
  C   C73       1.0  0.26997  0.11933  0.72623  1.0000
  C   C74       1.0  0.26522  0.11917  0.75345  1.0000
  C   C75       1.0  0.25225  0.12702  0.76117  1.0000
  C   C76       1.0  0.24409  0.13499  0.74141  1.0000
  C   C77       1.0  0.24922  0.13559  0.71430  1.0000
  H   H104      1.0  0.27991  0.11310  0.72039  1.0000
  H   H105      1.0  0.27157  0.11293  0.76839  1.0000
  H   H106      1.0  0.23399  0.14104  0.74717  1.0000
  H   H107      1.0  0.24295  0.14192  0.69932  1.0000
  H   H108      1.0  0.25988  0.02267  0.86358  1.0000
  H   H109      1.0  0.27634  0.21788  0.62274  1.0000
  C   C78       1.0  0.25638  0.12677  0.96834  1.0000
  C   C79       1.0  0.26631  0.14547  0.95964  1.0000
  H   H110      1.0  0.29225  0.22384  0.59503  1.0000
  H   H111      1.0  0.23393  0.06200  0.61254  1.0000
  H   H112      1.0  0.22623  0.05458  0.75146  1.0000
  H   H113      1.0  0.25270  0.11499  0.95418  1.0000
  H   H114      1.0  0.27843  0.17513  0.97168  1.0000
  H   H115      1.0  0.21017  0.06187  0.77001  1.0000
  C   C80       1.0  0.15419  0.18403  0.64299  1.0000
  S   S33       1.0  0.12239  0.24198  0.68236  1.0000
  C   C81       1.0  0.21120  0.02499  0.87911  1.0000
  C   C82       1.0  0.22765  0.04206  0.87701  1.0000
  C   C83       1.0  0.24533  0.04137  0.87133  1.0000
  C   C84       1.0  0.24629  0.02341  0.86793  1.0000
  H   H116      1.0  0.13863  0.20180  0.60888  1.0000
  H   H117      1.0  0.19763  0.02570  0.88354  1.0000
  H   H118      1.0  0.22666  0.05571  0.87996  1.0000
  H   H119      1.0  0.25994  0.05954  0.80957  1.0000
  C   C85       1.0  0.23212  0.07254  0.81516  1.0000
  C   C86       1.0  0.22207  0.03955  0.80121  1.0000
  H   H120      1.0  0.30869  0.18790  0.81513  1.0000
  H   H121      1.0  0.12023  0.20199  0.63074  1.0000
  H   H122      1.0  0.18107  0.23171  0.88941  1.0000
  H   H123      1.0  0.13497  0.21582  0.84987  1.0000
  H   H124      1.0  0.04618  0.23225  0.88969  1.0000
  H   H125      1.0  0.25069  0.23461  0.57076  1.0000
  H   H126      1.0  0.28747  0.14839  0.79108  1.0000
  C   C87       1.0  0.23681  0.09742  0.60097  1.0000
  H   H127      1.0  0.16632  0.22054  0.83086  1.0000
  H   H128      1.0  0.01469  0.21048  0.90675  1.0000
  H   H129      1.0  0.01751  0.24384  0.82049  1.0000
  H   H130      1.0  0.10919  0.25121  0.77641  1.0000
  H   H131      1.0  0.29500  0.25133  0.56607  1.0000
  H   H132      1.0  0.11998  0.16977  0.66709  1.0000
  C   C88       1.0  0.27081  0.16062  0.97827  1.0000
  H   H133      1.0  0.29304  0.18796  0.74309  1.0000
  H   H134      1.0  0.13801  0.23933  0.83930  1.0000
  H   H135      1.0  0.23007  0.06378  0.57696  1.0000
  H   H136      1.0  0.16322  0.19071  0.62552  1.0000
  N   N10       1.0  0.16203  0.23803  0.86186  1.0000
  H   H137      1.0  0.25147  0.06136  0.58941  1.0000
  C   C89       1.0  0.03315  0.23001  0.87819  1.0000
  H   H138      1.0  0.12040  0.19240  0.67828  1.0000
  C   C90       1.0  0.99809  0.21463  0.87327  1.0000
  H   H139      1.0  0.32624  0.17878  0.85426  1.0000
  H   H140      1.0  0.24974  0.09331  0.55277  1.0000
  H   H141      1.0  0.27389  0.16131  0.53036  1.0000
  H   H142      1.0  0.18748  0.24090  0.84112  1.0000
  H   H143      1.0  0.12047  0.17969  0.61932  1.0000
  H   H144      1.0  0.00714  0.17456  0.81179  1.0000
  H   H145      1.0  0.15822  0.22839  0.90275  1.0000
  H   H146      1.0  0.22151  0.22395  0.66084  1.0000
  H   H147      1.0  0.28420  0.17805  0.80335  1.0000
  C   C91       1.0  0.29125  0.17385  0.75154  1.0000
  H   H148      1.0  0.16331  0.22184  0.64124  1.0000
  C   C92       1.0  0.12961  0.18472  0.67248  1.0000
  H   H149      1.0  0.16916  0.24408  0.82042  1.0000
  C   C93       1.0  0.03411  0.23951  0.85384  1.0000
  S   S34       1.0  0.17812  0.22880  0.58824  1.0000
  H   H150      1.0  0.14530  0.22226  0.66348  1.0000
  C   C94       1.0  0.32429  0.18686  0.76750  1.0000
  C   C95       1.0  0.30225  0.15683  0.78449  1.0000
  N   N11       1.0  0.30427  0.17592  0.77512  1.0000
  C   C96       1.0  0.17171  0.23575  0.83752  1.0000
  S   S35       1.0  0.31682  0.20242  0.59581  1.0000
  H   H151      1.0  0.30051  0.20056  0.79069  1.0000
  H   H152      1.0  0.19970  0.23755  0.63963  1.0000
  C   C97       1.0  0.26948  0.15094  0.51404  1.0000
  H   H153      1.0  0.22566  0.09400  0.58451  1.0000
  H   H154      1.0  0.29378  0.16519  0.73515  1.0000
  C   C98       1.0  0.26039  0.09665  0.56991  1.0000
  H   H155      1.0  0.31206  0.15784  0.80200  1.0000
  H   H156      1.0  0.27113  0.09066  0.56498  1.0000
  H   H157      1.0  0.27601  0.16657  0.75709  1.0000
  S   S36       1.0  0.13605  0.24108  0.60703  1.0000
  C   C99       1.0  0.12857  0.25095  0.96054  1.0000
  C   C100      1.0  0.16551  0.22686  0.88421  1.0000
  C   C101      1.0  0.28583  0.22996  0.61045  1.0000
  H   H158      1.0  0.15303  0.24477  0.97268  1.0000
  C   C102      1.0  0.14121  0.23115  0.85595  1.0000
  H   H159      1.0  0.22954  0.09229  0.62029  1.0000
  H   H160      1.0  0.24377  0.11321  0.60240  1.0000
  H   H161      1.0  0.15992  0.21137  0.87904  1.0000
  H   H162      1.0  0.25897  0.08930  0.63756  1.0000
  H   H163      1.0  0.13343  0.23268  0.87387  1.0000
  H   H164      1.0  0.25693  0.23627  0.63174  1.0000
  H   H165      1.0  0.25002  0.21484  0.59083  1.0000
  H   H166      1.0  0.13698  0.24955  0.53188  1.0000
  H   H167      1.0  0.26565  0.22197  0.56303  1.0000
  N   N12       1.0  0.27507  0.24050  0.59786  1.0000
  C   C103      1.0  0.25971  0.22747  0.57977  1.0000
  C   C104      1.0  0.11515  0.24697  0.73510  1.0000
  C   C105      1.0  0.26651  0.24799  0.61907  1.0000
  S   S37       1.0  0.13081  0.24717  0.92589  1.0000
  C   C106      1.0  0.21218  0.00701  0.87573  1.0000
  H   H168      1.0  0.29867  0.13797  0.99189  1.0000
  Fe  Fe18      1.0  0.16810  0.25063  0.60622  1.0000
  H   H169      1.0  0.31678  0.15738  0.50755  1.0000
  S   S38       1.0  0.10402  0.24678  0.85514  1.0000
  H   H170      1.0  0.00380  0.19637  0.81597  1.0000
  H   H171      1.0  0.00770  0.18917  0.78305  1.0000
  C   C107      1.0  0.00047  0.18379  0.80232  1.0000
  C   C108      1.0  0.12929  0.25000  0.71595  1.0000
  C   C109      1.0  0.14180  0.24896  0.97942  1.0000
  H   H172      1.0  0.23553  0.10735  0.49706  1.0000
  H   H173      1.0  0.32655  0.20157  0.76104  1.0000
  C   C110      1.0  0.24791  0.12060  0.49521  1.0000
  Fe  Fe19      1.0  0.18449  0.44506  0.17856  1.0000
  Fe  Fe20      1.0  0.18356  0.40518  0.16655  1.0000
  S   S39       1.0  0.16458  0.37638  0.14931  1.0000
  S   S40       1.0  0.17739  0.41851  0.20338  1.0000
  S   S41       1.0  0.18779  0.43048  0.14083  1.0000
  S   S42       1.0  0.17366  0.26535  0.08880  1.0000
  H   H174      1.0  0.18645  0.33677  0.45963  1.0000
  Fe  Fe21      1.0  0.17538  0.28467  0.12409  1.0000
  S   S43       1.0  0.19860  0.31355  0.13387  1.0000
  S   S44       1.0  0.14511  0.28208  0.11943  1.0000
  Fe  Fe22      1.0  0.12400  0.30409  0.37849  1.0000
  S   S45       1.0  0.13921  0.28427  0.37690  1.0000
  S   S46       1.0  0.13900  0.33516  0.39186  1.0000
  Fe  Fe23      1.0  0.12093  0.27190  0.33957  1.0000
  S   S47       1.0  0.10698  0.29314  0.33980  1.0000
  S   S48       1.0  0.10054  0.28462  0.40411  1.0000
  C   C111      1.0  0.20425  0.36489  0.40455  1.0000
  C   C112      1.0  0.19627  0.34781  0.38952  1.0000
  C   C113      1.0  0.17630  0.33850  0.38557  1.0000
  C   C114      1.0  0.16413  0.34614  0.39682  1.0000
  C   C115      1.0  0.17211  0.36319  0.41193  1.0000
  C   C116      1.0  0.19210  0.37257  0.41574  1.0000
  H   H175      1.0  0.20561  0.34184  0.38066  1.0000
  H   H176      1.0  0.17034  0.32552  0.37357  1.0000
  H   H177      1.0  0.16278  0.36920  0.42067  1.0000
  H   H178      1.0  0.19809  0.38570  0.42742  1.0000
  C   C117      1.0  0.17484  0.35961  0.14470  1.0000
  C   C118      1.0  0.16673  0.34523  0.12516  1.0000
  C   C119      1.0  0.17422  0.33128  0.12146  1.0000
  C   C120      1.0  0.18963  0.33141  0.13766  1.0000
  C   C121      1.0  0.19792  0.34594  0.15703  1.0000
  C   C122      1.0  0.19051  0.36001  0.16061  1.0000
  H   H179      1.0  0.15464  0.34489  0.11275  1.0000
  H   H180      1.0  0.16816  0.32051  0.10588  1.0000
  H   H181      1.0  0.19669  0.37094  0.17599  1.0000
  H   H182      1.0  0.14033  0.29587  0.44654  1.0000
  H   H183      1.0  0.32139  0.48408  0.43599  1.0000
  H   H184      1.0  0.16476  0.31783  0.18740  1.0000
  N   N13       1.0  0.10317  0.47458  0.24564  1.0000
  H   H185      1.0  0.15300  0.29218  0.49221  1.0000
  C   C123      1.0  0.10373  0.48716  0.22280  1.0000
  H   H186      1.0  0.20029  0.32260  0.46612  1.0000
  C   C124      1.0  0.12166  0.47237  0.24816  1.0000
  H   H187      1.0  0.10619  0.48120  0.20350  1.0000
  C   C125      1.0  0.16223  0.47932  0.18674  1.0000
  N   N14       1.0  0.13669  0.31582  0.19792  1.0000
  C   C126      1.0  0.11647  0.30419  0.19019  1.0000
  C   C127      1.0  0.13996  0.31351  0.22694  1.0000
  C   C128      1.0  0.14936  0.30945  0.18214  1.0000
  H   H188      1.0  0.13685  0.29834  0.23183  1.0000
  H   H189      1.0  0.15510  0.32202  0.23339  1.0000
  N   N15       1.0  0.18798  0.39543  0.33596  1.0000
  S   S49       1.0  0.16427  0.45999  0.16941  1.0000
  S   S50       1.0  0.16871  0.26163  0.15506  1.0000
  H   H190      1.0  0.11263  0.28882  0.19456  1.0000
  H   H191      1.0  0.14639  0.29411  0.18554  1.0000
  H   H192      1.0  0.13057  0.31809  0.23950  1.0000
  H   H193      1.0  0.10647  0.30879  0.20131  1.0000
  H   H194      1.0  0.14731  0.31114  0.16020  1.0000
  H   H195      1.0  0.11366  0.30518  0.16823  1.0000
  C   C129      1.0  0.14096  0.33612  0.19230  1.0000
  H   H196      1.0  0.13190  0.34158  0.20409  1.0000
  H   H197      1.0  0.13835  0.33830  0.17061  1.0000
  H   H198      1.0  0.15622  0.34533  0.19724  1.0000
  C   C130      1.0  0.20383  0.39166  0.34913  1.0000
  H   H199      1.0  0.19967  0.43681  0.04146  1.0000
  H   H200      1.0  0.15288  0.26368  0.21091  1.0000
  Fe  Fe24      1.0  0.08470  0.27142  0.36540  1.0000
  H   H201      1.0  0.12168  0.46260  0.26479  1.0000
  C   C131      1.0  0.29819  0.46030  0.33763  1.0000
  H   H202      1.0  0.02494  0.49257  0.26486  1.0000
  H   H203      1.0  0.05372  0.26528  0.42308  1.0000
  H   H204      1.0  0.07177  0.26881  0.44900  1.0000
  C   C132      1.0  0.18792  0.32322  0.45421  1.0000
  H   H205      1.0  0.15648  0.31002  0.42215  1.0000
  S   S51       1.0  0.13856  0.26770  0.30567  1.0000
  C   C133      1.0  0.12061  0.25571  0.46915  1.0000
  Fe  Fe25      1.0  0.13817  0.25773  0.14792  1.0000
  H   H206      1.0  0.04731  0.26277  0.45781  1.0000
  Fe  Fe26      1.0  0.11473  0.26408  0.40001  1.0000
  H   H207      1.0  0.29487  0.47344  0.38651  1.0000
  H   H208      1.0  0.29939  0.49193  0.36238  1.0000
  C   C134      1.0  0.11240  0.26858  0.47597  1.0000
  C   C135      1.0  0.19218  0.41609  0.33758  1.0000
  C   C136      1.0  0.16997  0.38465  0.34977  1.0000
  H   H209      1.0  0.16644  0.36900  0.34925  1.0000
  C   C137      1.0  0.15392  0.30851  0.44406  1.0000
  H   H210      1.0  0.17100  0.38903  0.37132  1.0000
  H   H211      1.0  0.08648  0.44582  0.25769  1.0000
  H   H212      1.0  0.15761  0.38695  0.34026  1.0000
  C   C138      1.0  0.14628  0.26541  0.25259  1.0000
  H   H213      1.0  0.01300  0.25956  0.36396  1.0000
  H   H214      1.0  0.20624  0.39667  0.37048  1.0000
  C   C139      1.0  0.14180  0.26248  0.22484  1.0000
  C   C140      1.0  0.32213  0.46166  0.37165  1.0000
  H   H215      1.0  0.19173  0.32420  0.43266  1.0000
  C   C141      1.0  0.11344  0.26020  0.26139  1.0000
  C   C142      1.0  0.18593  0.38929  0.30740  1.0000
  H   H216      1.0  0.18269  0.37376  0.30547  1.0000
  H   H217      1.0  0.15912  0.27593  0.45284  1.0000
  H   H218      1.0  0.15260  0.31753  0.01316  1.0000
  H   H219      1.0  0.29134  0.46841  0.32559  1.0000
  C   C143      1.0  0.09987  0.48319  0.27068  1.0000
  H   H220      1.0  0.13374  0.48637  0.25244  1.0000
  H   H221      1.0  0.20092  0.37615  0.34894  1.0000
  S   S52       1.0  0.23016  0.42815  0.41884  1.0000
  H   H222      1.0  0.17287  0.47154  0.08092  1.0000
  H   H223      1.0  0.19932  0.39704  0.29640  1.0000
  H   H224      1.0  0.17427  0.39214  0.29668  1.0000
  H   H225      1.0  0.09870  0.47381  0.28828  1.0000
  H   H226      1.0  0.21030  0.39063  0.12810  1.0000
  C   C144      1.0  0.08742  0.45573  0.24082  1.0000
  C   C145      1.0  0.00553  0.50224  0.00517  1.0000
  C   C146      1.0  0.17223  0.28895  0.44931  1.0000
  H   H227      1.0  0.20257  0.49730  0.06497  1.0000
  S   S53       1.0  0.22314  0.44131  0.99632  1.0000
  H   H228      1.0  0.21755  0.39905  0.33886  1.0000
  H   H229      1.0  0.00246  0.49627  0.19565  1.0000
  C   C147      1.0  0.29789  0.49448  0.49291  1.0000
  C   C148      1.0  0.14668  0.50192  0.19002  1.0000
  H   H230      1.0  0.32311  0.49579  0.32687  1.0000
  H   H231      1.0  0.23309  0.39095  0.05043  1.0000
  H   H232      1.0  0.00419  0.48961  0.16150  1.0000
  H   H233      1.0  0.11550  0.50146  0.22583  1.0000
  C   C149      1.0  0.16629  0.30479  0.48802  1.0000
  H   H234      1.0  0.29907  0.46000  0.48355  1.0000
  H   H235      1.0  0.14025  0.48029  0.15901  1.0000
  H   H236      1.0  0.08948  0.44891  0.22200  1.0000
  S   S54       1.0  0.31529  0.44401  0.44447  1.0000
  H   H237      1.0  0.25941  0.45214  0.02749  1.0000
  H   H238      1.0  0.17465  0.28946  0.42726  1.0000
  S   S55       1.0  0.11669  0.25409  0.18064  1.0000
  H   H239      1.0  0.20649  0.44004  0.09063  1.0000
  S   S56       1.0  0.05289  0.26630  0.36331  1.0000
  H   H240      1.0  0.20804  0.38600  0.05371  1.0000
  C   C150      1.0  0.12302  0.25803  0.21530  1.0000
  Fe  Fe27      1.0  0.14259  0.26126  0.08601  1.0000
  N   N16       1.0  0.17010  0.30637  0.45892  1.0000
  H   H241      1.0  0.10572  0.27407  0.46054  1.0000
  C   C151      1.0  0.17343  0.48760  0.20974  1.0000
  H   H242      1.0  0.20990  0.34612  0.16956  1.0000
  C   C152      1.0  0.22262  0.39418  0.06258  1.0000
  H   H243      1.0  0.20541  0.42462  0.32681  1.0000
  Fe  Fe28      1.0  0.24756  0.44062  0.45688  1.0000
  H   H244      1.0  0.10162  0.26385  0.00375  1.0000
  C   C153      1.0  0.18194  0.46846  0.09668  1.0000
  H   H245      1.0  0.15162  0.32137  0.45083  1.0000
  H   H246      1.0  0.19439  0.42135  0.35883  1.0000
  H   H247      1.0  0.18379  0.48218  0.21744  1.0000
  H   H248      1.0  0.18445  0.28696  0.45979  1.0000
  H   H249      1.0  0.20512  0.35995  0.08688  1.0000
  H   H250      1.0  0.18653  0.45743  0.08838  1.0000
  S   S57       1.0  0.12516  0.26456  0.04978  1.0000
  H   H251      1.0  0.22569  0.40960  0.05994  1.0000
  C   C154      1.0  0.20978  0.39412  0.10648  1.0000
  H   H252      1.0  0.19486  0.38593  0.09872  1.0000
  Fe  Fe29      1.0  0.20928  0.42932  0.21202  1.0000
  S   S58       1.0  0.21475  0.41416  0.17631  1.0000
  S   S59       1.0  0.25513  0.46467  0.36067  1.0000
  C   C155      1.0  0.25176  0.45193  0.06923  1.0000
  S   S60       1.0  0.26954  0.42562  0.39608  1.0000
  N   N17       1.0  0.31385  0.47308  0.35557  1.0000
  H   H253      1.0  0.12501  0.46662  0.22923  1.0000
  Fe  Fe30      1.0  0.25615  0.44707  0.39700  1.0000
  Fe  Fe31      1.0  0.21868  0.44057  0.15305  1.0000
  S   S61       1.0  0.24211  0.45110  0.12235  1.0000
  S   S62       1.0  0.27230  0.46177  0.43476  1.0000
  S   S63       1.0  0.21617  0.45703  0.18956  1.0000
  C   C156      1.0  0.21999  0.36905  0.09389  1.0000
  C   C157      1.0  0.24787  0.44958  0.04124  1.0000
  H   H254      1.0  0.17263  0.46197  0.11395  1.0000
  Fe  Fe32      1.0  0.28405  0.43898  0.43535  1.0000
  H   H255      1.0  0.26635  0.45627  0.07693  1.0000
  H   H256      1.0  0.22155  0.36527  0.11521  1.0000
  C   C158      1.0  0.13214  0.26429  0.27100  1.0000
  H   H257      1.0  0.24692  0.41664  0.10053  1.0000
  H   H258      1.0  0.16081  0.26868  0.25990  1.0000
  H   H259      1.0  0.25453  0.39797  0.09144  1.0000
  H   H260      1.0  0.28663  0.44965  0.34934  1.0000
  S   S64       1.0  0.26029  0.41859  0.46016  1.0000
  H   H261      1.0  0.23800  0.41116  0.29634  1.0000
  C   C159      1.0  0.23687  0.44858  0.08726  1.0000
  C   C160      1.0  0.10889  0.25695  0.23366  1.0000
  C   C161      1.0  0.23838  0.42532  0.29994  1.0000
  S   S65       1.0  0.22006  0.42050  0.25085  1.0000
  H   H262      1.0  0.18036  0.41943  0.32829  1.0000
  C   C162      1.0  0.24570  0.43460  0.32469  1.0000
  C   C163      1.0  0.23115  0.43402  0.28002  1.0000
  N   N18       1.0  0.22395  0.38960  0.09128  1.0000
  H   H263      1.0  0.24483  0.39818  0.12404  1.0000
  H   H264      1.0  0.23001  0.36494  0.08201  1.0000
  C   C164      1.0  0.21426  0.44105  0.04916  1.0000
  H   H265      1.0  0.22642  0.45927  0.26943  1.0000
  H   H266      1.0  0.24007  0.47608  0.31290  1.0000
  H   H267      1.0  0.07333  0.45707  0.23872  1.0000
  Fe  Fe33      1.0  0.24452  0.40745  0.42059  1.0000
  H   H268      1.0  0.21254  0.40955  0.10551  1.0000
  C   C165      1.0  0.21809  0.44299  0.07707  1.0000
  C   C166      1.0  0.22908  0.44422  0.03111  1.0000
  S   S66       1.0  0.22941  0.37618  0.40864  1.0000
  H   H269      1.0  0.25089  0.42756  0.34000  1.0000
  C   C167      1.0  0.24619  0.45285  0.32957  1.0000
  C   C168      1.0  0.23960  0.46188  0.30932  1.0000
  C   C169      1.0  0.24342  0.40106  0.10228  1.0000
  C   C170      1.0  0.23193  0.45243  0.28466  1.0000
  C   C171      1.0  0.12635  0.25817  0.01588  1.0000
  H   H270      1.0  0.31133  0.45142  0.38488  1.0000
  C   C172      1.0  0.14889  0.48656  0.17692  1.0000
  C   C173      1.0  0.99392  0.48869  0.17751  1.0000
  S   S67       1.0  0.99360  0.47750  0.01094  1.0000
  H   H271      1.0  0.22268  0.49408  0.13307  1.0000
  H   H272      1.0  0.13086  0.29928  0.00027  1.0000
  H   H273      1.0  0.31758  0.49345  0.38748  1.0000
  C   C174      1.0  0.30616  0.48349  0.37381  1.0000
  H   H274      1.0  0.30338  0.45227  0.32335  1.0000
  H   H275      1.0  0.08646  0.48589  0.26897  1.0000
  C   C175      1.0  0.21070  0.49373  0.08160  1.0000
  H   H276      1.0  0.09008  0.48932  0.22037  1.0000
  H   H277      1.0  0.21529  0.47044  0.11935  1.0000
  H   H278      1.0  0.28248  0.49088  0.48753  1.0000
  C   C176      1.0  0.05663  0.25997  0.44296  1.0000
  H   H279      1.0  0.09432  0.25355  0.22643  1.0000
  H   H280      1.0  0.20128  0.47548  0.14443  1.0000
  C   C177      1.0  0.20995  0.48127  0.12638  1.0000
  N   N19       1.0  0.19857  0.48593  0.10503  1.0000
  C   C178      1.0  0.11292  0.25975  0.99702  1.0000
  H   H281      1.0  0.10244  0.25925  0.27538  1.0000
  H   H282      1.0  0.30522  0.49405  0.47399  1.0000
  H   H283      1.0  0.21620  0.48326  0.07342  1.0000
  H   H284      1.0  0.11188  0.49716  0.27529  1.0000
  H   H285      1.0  0.18242  0.49459  0.13317  1.0000
  H   H286      1.0  0.15299  0.29622  0.99817  1.0000
  S   S68       1.0  0.23391  0.45065  0.49039  1.0000
  C   C179      1.0  0.19169  0.50020  0.11553  1.0000
  H   H287      1.0  0.02066  0.49816  0.43556  1.0000
  C   C180      1.0  0.14640  0.30694  0.99651  1.0000
  S   S69       1.0  0.05984  0.50259  0.23544  1.0000
  Fe  Fe34      1.0  0.19442  0.45676  0.67412  1.0000
  S   S70       1.0  0.22650  0.46633  0.68132  1.0000
  S   S71       1.0  0.17882  0.47621  0.66359  1.0000
  Fe  Fe35      1.0  0.18813  0.41468  0.66951  1.0000
  S   S72       1.0  0.21921  0.42127  0.67643  1.0000
  S   S73       1.0  0.16641  0.38485  0.65917  1.0000
  Fe  Fe36      1.0  0.21830  0.44113  0.70934  1.0000
  S   S74       1.0  0.23417  0.43645  0.74651  1.0000
  Fe  Fe37      1.0  0.22477  0.44553  0.64800  1.0000
  S   S75       1.0  0.24698  0.44750  0.61689  1.0000
  S   S76       1.0  0.18635  0.43282  0.70421  1.0000
  S   S77       1.0  0.19358  0.43772  0.63894  1.0000
  Fe  Fe38      1.0  0.14080  0.26956  0.58918  1.0000
  S   S78       1.0  0.17248  0.27831  0.58553  1.0000
  H   H288      1.0  0.16707  0.26727  0.85345  1.0000
  Fe  Fe39      1.0  0.17441  0.29024  0.62738  1.0000
  S   S79       1.0  0.19628  0.31892  0.64110  1.0000
  S   S80       1.0  0.14301  0.28336  0.62990  1.0000
  Fe  Fe40      1.0  0.23943  0.40909  0.92057  1.0000
  S   S81       1.0  0.22321  0.42783  0.92412  1.0000
  S   S82       1.0  0.22518  0.37832  0.90561  1.0000
  Fe  Fe41      1.0  0.27823  0.44253  0.93483  1.0000
  S   S83       1.0  0.26401  0.46334  0.93970  1.0000
  H   H289      1.0  0.14528  0.34089  0.98407  1.0000
  Fe  Fe42      1.0  0.24140  0.43946  0.96175  1.0000
  H   H290      1.0  0.21042  0.38535  0.85038  1.0000
  Fe  Fe43      1.0  0.24714  0.44951  0.90183  1.0000
  S   S84       1.0  0.24107  0.46622  0.86747  1.0000
  S   S85       1.0  0.25655  0.41932  0.95939  1.0000
  S   S86       1.0  0.26240  0.43008  0.89578  1.0000
  H   H291      1.0  0.12718  0.49800  0.68007  1.0000
  Fe  Fe44      1.0  0.12246  0.30061  0.87602  1.0000
  S   S87       1.0  0.14137  0.28457  0.87428  1.0000
  S   S88       1.0  0.13509  0.33159  0.89060  1.0000
  Fe  Fe45      1.0  0.12619  0.27193  0.83518  1.0000
  H   H292      1.0  0.15964  0.26140  0.70948  1.0000
  H   H293      1.0  0.27974  0.47360  0.88306  1.0000
  S   S89       1.0  0.10872  0.28983  0.83529  1.0000
  S   S90       1.0  0.09948  0.27764  0.89883  1.0000
  C   C181      1.0  0.20008  0.36548  0.90239  1.0000
  C   C182      1.0  0.19301  0.34781  0.88875  1.0000
  C   C183      1.0  0.17318  0.33731  0.88504  1.0000
  C   C184      1.0  0.16015  0.34436  0.89499  1.0000
  C   C185      1.0  0.16720  0.36201  0.90879  1.0000
  C   C186      1.0  0.18708  0.37249  0.91261  1.0000
  H   H294      1.0  0.20296  0.34229  0.88074  1.0000
  H   H295      1.0  0.16803  0.32393  0.87403  1.0000
  H   H296      1.0  0.15725  0.36763  0.91654  1.0000
  H   H297      1.0  0.19232  0.38599  0.92342  1.0000
  H   H298      1.0  0.01355  0.48238  0.62741  1.0000
  C   C187      1.0  0.11405  0.25624  0.96948  1.0000
  H   H299      1.0  0.18493  0.41724  0.86352  1.0000
  S   S91       1.0  0.14672  0.27086  0.80325  1.0000
  N   N20       1.0  0.14952  0.31616  0.96987  1.0000
  C   C188      1.0  0.14161  0.30142  0.94850  1.0000
  Fe  Fe46      1.0  0.08702  0.26526  0.85778  1.0000
  C   C189      1.0  0.16960  0.25842  0.86978  1.0000
  C   C190      1.0  0.24220  0.44725  0.58186  1.0000
  C   C191      1.0  0.22996  0.45534  0.57110  1.0000
  C   C192      1.0  0.22733  0.45594  0.54302  1.0000
  C   C193      1.0  0.23667  0.44819  0.52547  1.0000
  C   C194      1.0  0.24832  0.43938  0.53627  1.0000
  C   C195      1.0  0.25135  0.43925  0.56436  1.0000
  H   H300      1.0  0.22295  0.46167  0.58440  1.0000
  H   H301      1.0  0.21824  0.46273  0.53485  1.0000
  H   H302      1.0  0.25508  0.43279  0.52306  1.0000
  H   H303      1.0  0.26071  0.43280  0.57262  1.0000
  C   C196      1.0  0.23650  0.44580  0.77954  1.0000
  C   C197      1.0  0.22936  0.45947  0.78674  1.0000
  C   C198      1.0  0.23107  0.46585  0.81371  1.0000
  C   C199      1.0  0.23962  0.45840  0.83366  1.0000
  C   C200      1.0  0.24683  0.44485  0.82636  1.0000
  C   C201      1.0  0.24542  0.43872  0.79942  1.0000
  H   H304      1.0  0.22250  0.46506  0.77157  1.0000
  H   H305      1.0  0.22551  0.47641  0.81918  1.0000
  H   H306      1.0  0.25343  0.43901  0.84142  1.0000
  H   H307      1.0  0.25099  0.42816  0.79396  1.0000
  C   C202      1.0  0.17508  0.36683  0.65394  1.0000
  C   C203      1.0  0.16348  0.35017  0.63985  1.0000
  C   C204      1.0  0.17011  0.33567  0.63503  1.0000
  C   C205      1.0  0.18820  0.33751  0.64491  1.0000
  C   C206      1.0  0.19981  0.35417  0.65897  1.0000
  C   C207      1.0  0.19328  0.36879  0.66346  1.0000
  H   H308      1.0  0.14939  0.34855  0.63237  1.0000
  H   H309      1.0  0.16124  0.32314  0.62355  1.0000
  H   H310      1.0  0.21380  0.35569  0.66675  1.0000
  H   H311      1.0  0.20220  0.38134  0.67485  1.0000
  C   C208      1.0  0.16383  0.48248  0.68490  1.0000
  S   S92       1.0  0.00221  0.48572  0.52241  1.0000
  H   H312      1.0  0.29954  0.47616  0.90549  1.0000
  H   H313      1.0  0.22298  0.40623  0.83130  1.0000
  S   S93       1.0  0.17325  0.26344  0.64798  1.0000
  H   H314      1.0  0.27620  0.45742  0.49583  1.0000
  H   H315      1.0  0.31259  0.45998  0.84163  1.0000
  C   C209      1.0  0.32065  0.48614  0.51932  1.0000
  H   H316      1.0  0.14172  0.33670  0.94839  1.0000
  C   C210      1.0  0.17494  0.38329  0.83811  1.0000
  C   C211      1.0  0.19178  0.41141  0.81217  1.0000
  S   S94       1.0  0.31047  0.44906  0.93467  1.0000
  C   C212      1.0  0.14859  0.25918  0.72394  1.0000
  C   C213      1.0  0.00575  0.48520  0.64440  1.0000
  H   H317      1.0  0.17806  0.31700  0.96730  1.0000
  H   H318      1.0  0.29236  0.45079  0.51656  1.0000
  H   H319      1.0  0.10647  0.28436  0.50811  1.0000
  H   H320      1.0  0.10358  0.25749  0.95522  1.0000
  C   C214      1.0  0.17028  0.32671  0.96614  1.0000
  H   H321      1.0  0.17955  0.41595  0.81346  1.0000
  C   C215      1.0  0.28821  0.25653  0.58212  1.0000
  S   S95       1.0  0.05625  0.25518  0.84058  1.0000
  H   H322      1.0  0.28856  0.45222  0.85316  1.0000
  H   H323      1.0  0.19782  0.40419  0.87863  1.0000
  H   H324      1.0  0.16264  0.38746  0.84137  1.0000
  H   H325      1.0  0.17674  0.33811  0.98171  1.0000
  C   C216      1.0  0.20904  0.39387  0.83279  1.0000
  C   C217      1.0  0.13842  0.49445  0.68925  1.0000
  C   C218      1.0  0.15366  0.26542  0.75078  1.0000
  Fe  Fe47      1.0  0.14153  0.25577  0.64755  1.0000
  H   H326      1.0  0.27770  0.25819  0.63277  1.0000
  H   H327      1.0  0.14826  0.29074  0.94944  1.0000
  H   H328      1.0  0.12587  0.29358  0.95017  1.0000
  H   H329      1.0  0.20699  0.38491  0.81436  1.0000
  H   H330      1.0  0.28050  0.26469  0.57220  1.0000
  H   H331      1.0  0.01557  0.50215  0.80912  1.0000
  N   N21       1.0  0.19058  0.39568  0.57986  1.0000
  C   C219      1.0  0.17442  0.37695  0.58192  1.0000
  C   C220      1.0  0.20151  0.39590  0.55564  1.0000
  C   C221      1.0  0.20335  0.39905  0.60402  1.0000
  C   C222      1.0  0.18303  0.41084  0.57792  1.0000
  H   H332      1.0  0.16554  0.37674  0.59948  1.0000
  H   H333      1.0  0.17953  0.36520  0.58468  1.0000
  H   H334      1.0  0.16480  0.37363  0.56367  1.0000
  H   H335      1.0  0.21358  0.41001  0.55340  1.0000
  H   H336      1.0  0.20773  0.38488  0.55671  1.0000
  H   H337      1.0  0.19235  0.39325  0.53697  1.0000
  H   H338      1.0  0.20860  0.38742  0.60700  1.0000
  H   H339      1.0  0.19591  0.39999  0.62253  1.0000
  H   H340      1.0  0.21608  0.41269  0.60276  1.0000
  H   H341      1.0  0.19483  0.42527  0.57765  1.0000
  H   H342      1.0  0.17405  0.41054  0.59542  1.0000
  H   H343      1.0  0.17398  0.40923  0.55935  1.0000
  N   N22       1.0  0.14434  0.31247  0.70848  1.0000
  C   C223      1.0  0.12996  0.31195  0.68744  1.0000
  C   C224      1.0  0.13443  0.30247  0.73264  1.0000
  C   C225      1.0  0.15655  0.33253  0.71555  1.0000
  C   C226      1.0  0.15639  0.30286  0.69822  1.0000
  H   H344      1.0  0.12046  0.29699  0.68172  1.0000
  H   H345      1.0  0.13694  0.31915  0.66882  1.0000
  H   H346      1.0  0.12071  0.31925  0.69432  1.0000
  H   H347      1.0  0.14479  0.30225  0.74884  1.0000
  H   H348      1.0  0.12532  0.30942  0.74112  1.0000
  H   H349      1.0  0.12495  0.28736  0.72786  1.0000
  H   H350      1.0  0.14793  0.34035  0.72299  1.0000
  H   H351      1.0  0.16435  0.34039  0.69779  1.0000
  H   H352      1.0  0.16752  0.33342  0.73143  1.0000
  H   H353      1.0  0.14752  0.28799  0.69151  1.0000
  H   H354      1.0  0.16695  0.30228  0.71384  1.0000
  H   H355      1.0  0.16464  0.31041  0.68062  1.0000
  C   C227      1.0  0.29013  0.48213  0.53772  1.0000
  H   H356      1.0  0.00278  0.48887  0.71132  1.0000
  C   C228      1.0  0.30380  0.46113  0.85855  1.0000
  H   H357      1.0  0.17565  0.37423  0.85532  1.0000
  C   C229      1.0  0.14962  0.48786  0.67319  1.0000
  H   H358      1.0  0.18996  0.40319  0.79303  1.0000
  N   N23       1.0  0.30007  0.48107  0.51297  1.0000
  H   H359      1.0  0.14412  0.30782  0.92814  1.0000
  H   H360      1.0  0.17159  0.37416  0.81964  1.0000
  H   H361      1.0  0.29645  0.49662  0.54712  1.0000
  C   C230      1.0  0.11286  0.27440  0.50293  1.0000
  C   C231      1.0  0.15571  0.49063  0.72888  1.0000
  S   S96       1.0  0.12265  0.27590  0.55661  1.0000
  H   H362      1.0  0.20494  0.42461  0.81050  1.0000
  H   H363      1.0  0.16864  0.27249  0.75679  1.0000
  H   H364      1.0  0.30832  0.48826  0.82185  1.0000
  H   H365      1.0  0.01277  0.50068  0.64966  1.0000
  N   N24       1.0  0.19309  0.40019  0.83585  1.0000
  C   C232      1.0  0.29527  0.48202  0.88709  1.0000
  N   N25       1.0  0.30666  0.48118  0.86390  1.0000
  C   C233      1.0  0.19664  0.41218  0.86042  1.0000
  C   C234      1.0  0.12022  0.25345  0.76190  1.0000
  H   H366      1.0  0.14722  0.48681  0.65158  1.0000
  H   H367      1.0  0.21025  0.42509  0.85939  1.0000
  H   H368      1.0  0.30784  0.45462  0.87657  1.0000
  H   H369      1.0  0.32276  0.47627  0.53441  1.0000
  H   H370      1.0  0.25772  0.25547  0.61032  1.0000
  H   H371      1.0  0.02819  0.49854  0.98385  1.0000
  H   H372      1.0  0.00800  0.47733  0.66221  1.0000
  C   C235      1.0  0.13008  0.25485  0.51639  1.0000
  Fe  Fe48      1.0  0.11802  0.26091  0.89451  1.0000
  C   C236      1.0  0.12180  0.26766  0.52322  1.0000
  C   C237      1.0  0.13973  0.32954  0.96826  1.0000
  C   C238      1.0  0.16662  0.48361  0.71288  1.0000
  C   C239      1.0  0.13952  0.26267  0.76983  1.0000
  H   H373      1.0  0.16260  0.26065  0.88814  1.0000
  H   H374      1.0  0.31710  0.48839  0.95137  1.0000
  H   H375      1.0  0.15827  0.49187  0.75046  1.0000
  H   H376      1.0  0.17754  0.47958  0.72213  1.0000
  C   C240      1.0  0.30030  0.48893  0.83995  1.0000
  H   H377      1.0  0.17311  0.33372  0.94614  1.0000
  H   H378      1.0  0.28474  0.48074  0.83515  1.0000
  H   H379      1.0  0.27465  0.47882  0.53339  1.0000
  H   H380      1.0  0.29087  0.47174  0.55305  1.0000
  H   H381      1.0  0.12400  0.32197  0.97069  1.0000
  C   C241      1.0  0.14179  0.49639  0.71712  1.0000
  C   C242      1.0  0.29154  0.46145  0.50177  1.0000
  H   H382      1.0  0.17814  0.30309  0.49994  1.0000
  H   H383      1.0  0.29997  0.26669  0.59515  1.0000
  H   H384      1.0  0.18529  0.26414  0.87429  1.0000
  H   H385      1.0  0.29703  0.49691  0.89182  1.0000
  H   H386      1.0  0.16440  0.31760  0.49592  1.0000
  H   H387      1.0  0.16702  0.60357  0.39122  1.0000
  H   H388      1.0  0.14589  0.60183  0.37249  1.0000
  N   N26       1.0  0.04421  0.52490  0.42850  1.0000
  H   H389      1.0  0.03584  0.52428  0.38668  1.0000
  C   C243      1.0  0.15776  0.51010  0.21317  1.0000
  C   C244      1.0  0.02447  0.51382  0.43721  1.0000
  Fe  Fe49      1.0  0.10398  0.57835  0.44430  1.0000
  S   S97       1.0  0.10126  0.55899  0.40846  1.0000
  H   H390      1.0  0.04075  0.50995  0.07071  1.0000
  S   S98       1.0  0.12554  0.57623  0.03563  1.0000
  S   S99       1.0  0.09196  0.60078  0.44853  1.0000
  C   C245      1.0  0.00863  0.53517  0.00970  1.0000
  Fe  Fe50      1.0  0.11038  0.56006  0.19200  1.0000
  S   S100      1.0  0.10676  0.52923  0.19263  1.0000
  S   S101      1.0  0.10281  0.57569  0.15765  1.0000
  Fe  Fe51      1.0  0.11478  0.56461  0.25402  1.0000
  S   S102      1.0  0.11153  0.53432  0.25926  1.0000
  S   S103      1.0  0.11565  0.58568  0.28711  1.0000
  Fe  Fe52      1.0  0.13084  0.53924  0.22403  1.0000
  H   H391      1.0  0.20381  0.51352  0.12229  1.0000
  Fe  Fe53      1.0  0.08801  0.52678  0.22777  1.0000
  H   H392      1.0  0.20175  0.72843  0.49376  1.0000
  S   S104      1.0  0.13594  0.57052  0.22090  1.0000
  S   S105      1.0  0.08981  0.55660  0.22505  1.0000
  H   H393      1.0  0.07293  0.52792  0.43929  1.0000
  H   H394      1.0  0.05701  0.52284  0.46691  1.0000
  H   H395      1.0  0.17852  0.71488  0.45513  1.0000
  H   H396      1.0  0.04264  0.50509  0.39678  1.0000
  S   S106      1.0  0.99752  0.53854  0.23550  1.0000
  H   H397      1.0  0.00080  0.51906  0.14577  1.0000
  H   H398      1.0  0.13133  0.62608  0.38172  1.0000
  S   S107      1.0  0.13088  0.59425  0.46856  1.0000
  H   H399      1.0  0.17317  0.64795  0.42834  1.0000
  C   C246      1.0  0.01388  0.52739  0.23488  1.0000
  C   C247      1.0  0.02904  0.53416  0.21710  1.0000
  C   C248      1.0  0.04263  0.52595  0.21645  1.0000
  C   C249      1.0  0.04589  0.52053  0.39993  1.0000
  H   H400      1.0  0.03035  0.54585  0.20381  1.0000
  H   H401      1.0  0.05411  0.53111  0.20238  1.0000
  C   C250      1.0  0.14460  0.67016  0.46743  1.0000
  C   C251      1.0  0.05786  0.51975  0.44521  1.0000
  H   H402      1.0  0.03501  0.52400  0.04579  1.0000
  C   C252      1.0  0.14968  0.70924  0.46639  1.0000
  C   C253      1.0  0.16491  0.70402  0.46055  1.0000
  H   H403      1.0  0.18373  0.63099  0.42173  1.0000
  H   H404      1.0  0.00321  0.54541  0.01711  1.0000
  C   C254      1.0  0.01221  0.51213  0.25174  1.0000
  C   C255      1.0  0.04145  0.51121  0.23402  1.0000
  C   C256      1.0  0.14025  0.62981  0.40064  1.0000
  C   C257      1.0  0.12072  0.57786  0.06991  1.0000
  C   C258      1.0  0.12807  0.56891  0.08935  1.0000
  C   C259      1.0  0.12292  0.56827  0.11646  1.0000
  C   C260      1.0  0.11060  0.57686  0.12431  1.0000
  C   C261      1.0  0.10371  0.58628  0.10501  1.0000
  C   C262      1.0  0.10877  0.58683  0.07794  1.0000
  H   H405      1.0  0.13744  0.56207  0.08330  1.0000
  H   H406      1.0  0.12841  0.56111  0.13122  1.0000
  H   H407      1.0  0.09434  0.59314  0.11103  1.0000
  H   H408      1.0  0.10331  0.59408  0.06326  1.0000
  C   C263      1.0  0.10462  0.56661  0.37480  1.0000
  C   C264      1.0  0.10615  0.58483  0.36729  1.0000
  C   C265      1.0  0.10957  0.59057  0.34032  1.0000
  C   C266      1.0  0.11110  0.57798  0.32068  1.0000
  C   C267      1.0  0.10900  0.55959  0.32815  1.0000
  C   C268      1.0  0.10582  0.55396  0.35511  1.0000
  H   H409      1.0  0.10477  0.59446  0.38228  1.0000
  H   H410      1.0  0.11108  0.60479  0.33464  1.0000
  H   H411      1.0  0.11017  0.54980  0.31327  1.0000
  H   H412      1.0  0.10456  0.53980  0.36078  1.0000
  H   H413      1.0  0.18279  0.63674  0.37269  1.0000
  H   H414      1.0  0.14469  0.59711  0.40790  1.0000
  H   H415      1.0  0.13151  0.62091  0.41703  1.0000
  H   H416      1.0  0.14311  0.64494  0.40589  1.0000
  N   N27       1.0  0.15826  0.62688  0.39783  1.0000
  H   H417      1.0  0.17267  0.65405  0.37910  1.0000
  H   H418      1.0  0.12004  0.69864  0.47730  1.0000
  C   C269      1.0  0.16237  0.68462  0.46113  1.0000
  Fe  Fe54      1.0  0.11844  0.61652  0.47489  1.0000
  S   S108      1.0  0.15190  0.73343  0.46603  1.0000
  C   C270      1.0  0.06852  0.55409  0.04832  1.0000
  C   C271      1.0  0.07652  0.53571  0.08260  1.0000
  H   H419      1.0  0.02274  0.51701  0.45861  1.0000
  H   H420      1.0  0.17985  0.50926  0.24077  1.0000
  S   S109      1.0  0.15475  0.52867  0.23126  1.0000
  C   C272      1.0  0.16991  0.63274  0.42311  1.0000
  N   N28       1.0  0.06476  0.53461  0.05793  1.0000
  H   H421      1.0  0.07342  0.52135  0.09115  1.0000
  H   H422      1.0  0.13996  0.69376  0.00995  1.0000
  C   C273      1.0  0.02598  0.50403  0.25128  1.0000
  C   C274      1.0  0.16910  0.63858  0.37543  1.0000
  H   H423      1.0  0.08358  0.56145  0.04209  1.0000
  C   C275      1.0  0.99847  0.51553  0.01435  1.0000
  S   S110      1.0  0.14232  0.64594  0.46733  1.0000
  H   H424      1.0  0.05495  0.50429  0.44330  1.0000
  H   H425      1.0  0.08526  0.53101  0.03183  1.0000
  C   C276      1.0  0.04425  0.52484  0.06391  1.0000
  H   H426      1.0  0.06340  0.55434  0.42505  1.0000
  H   H427      1.0  0.06069  0.52871  0.39289  1.0000
  H   H428      1.0  0.16219  0.62413  0.44041  1.0000
  C   C277      1.0  0.04868  0.54553  0.43164  1.0000
  C   C278      1.0  0.06983  0.52386  0.03684  1.0000
  Fe  Fe55      1.0  0.10920  0.58374  0.00158  1.0000
  N   N29       1.0  0.05961  0.58083  0.27089  1.0000
  C   C279      1.0  0.03964  0.57844  0.26452  1.0000
  C   C280      1.0  0.06016  0.56201  0.27673  1.0000
  C   C281      1.0  0.06706  0.59351  0.29468  1.0000
  C   C282      1.0  0.07162  0.58940  0.24761  1.0000
  H   H429      1.0  0.03852  0.59239  0.26098  1.0000
  H   H430      1.0  0.02987  0.57114  0.28099  1.0000
  H   H431      1.0  0.03395  0.56961  0.24597  1.0000
  H   H432      1.0  0.05107  0.55501  0.29395  1.0000
  H   H433      1.0  0.05488  0.55214  0.25917  1.0000
  H   H434      1.0  0.07500  0.56327  0.28174  1.0000
  H   H435      1.0  0.05848  0.58741  0.31270  1.0000
  H   H436      1.0  0.06684  0.60785  0.29108  1.0000
  H   H437      1.0  0.08218  0.59567  0.29970  1.0000
  H   H438      1.0  0.08682  0.59142  0.25164  1.0000
  H   H439      1.0  0.07158  0.60364  0.24268  1.0000
  H   H440      1.0  0.06645  0.58021  0.22925  1.0000
  H   H441      1.0  0.06592  0.56308  0.06412  1.0000
  S   S111      1.0  0.08938  0.56218  0.48020  1.0000
  C   C283      1.0  0.15378  0.60648  0.39214  1.0000
  H   H442      1.0  0.06134  0.52284  0.01788  1.0000
  H   H443      1.0  0.05926  0.55385  0.03049  1.0000
  C   C284      1.0  0.13195  0.69479  0.47281  1.0000
  H   H444      1.0  0.16071  0.63454  0.35601  1.0000
  H   H445      1.0  0.17424  0.68078  0.45644  1.0000
  H   H446      1.0  0.22337  0.50695  0.08712  1.0000
  H   H447      1.0  0.07405  0.54475  0.09850  1.0000
  Fe  Fe56      1.0  0.07896  0.58527  0.48664  1.0000
  C   C285      1.0  0.12940  0.67539  0.47333  1.0000
  H   H448      1.0  0.18307  0.50415  0.10000  1.0000
  H   H449      1.0  0.04007  0.53260  0.07985  1.0000
  H   H450      1.0  0.09204  0.54209  0.07834  1.0000
  S   S112      1.0  0.09262  0.60260  0.00253  1.0000
  H   H451      1.0  0.06718  0.50907  0.04328  1.0000
  H   H452      1.0  0.99840  0.52578  0.17972  1.0000
  H   H453      1.0  0.03850  0.54989  0.41966  1.0000
  H   H454      1.0  0.01372  0.51717  0.42490  1.0000
  H   H455      1.0  0.00063  0.50688  0.26565  1.0000
  H   H456      1.0  0.11564  0.66451  0.47819  1.0000
  H   H457      1.0  0.04788  0.54942  0.45298  1.0000
  H   H458      1.0  0.13653  0.50751  0.18211  1.0000
  C   C286      1.0  0.02589  0.54167  0.99586  1.0000
  C   C287      1.0  0.17119  0.50294  0.22289  1.0000
  Fe  Fe57      1.0  0.06982  0.57828  0.97929  1.0000
  S   S113      1.0  0.16182  0.72842  0.98284  1.0000
  C   C288      1.0  0.12387  0.62023  0.88304  1.0000
  H   H459      1.0  0.07044  0.57163  0.54572  1.0000
  C   C289      1.0  0.04117  0.54990  0.80323  1.0000
  C   C290      1.0  0.00706  0.50373  0.71685  1.0000
  Fe  Fe58      1.0  0.09840  0.57285  0.94188  1.0000
  S   S114      1.0  0.10265  0.55461  0.90865  1.0000
  H   H460      1.0  0.16883  0.63231  0.91002  1.0000
  S   S115      1.0  0.12275  0.56220  0.53558  1.0000
  S   S116      1.0  0.08076  0.59046  0.93884  1.0000
  H   H461      1.0  0.15447  0.64459  0.85790  1.0000
  Fe  Fe59      1.0  0.11075  0.55596  0.69110  1.0000
  S   S117      1.0  0.09800  0.52412  0.68460  1.0000
  S   S118      1.0  0.12590  0.57884  0.66096  1.0000
  Fe  Fe60      1.0  0.09896  0.55314  0.75030  1.0000
  S   S119      1.0  0.08574  0.52114  0.74834  1.0000
  S   S120      1.0  0.09579  0.57138  0.78452  1.0000
  Fe  Fe61      1.0  0.11169  0.52334  0.72518  1.0000
  H   H462      1.0  0.14665  0.62525  0.92714  1.0000
  Fe  Fe62      1.0  0.07336  0.52500  0.70823  1.0000
  S   S121      1.0  0.03846  0.56644  0.99076  1.0000
  S   S122      1.0  0.12591  0.55531  0.73035  1.0000
  S   S123      1.0  0.08515  0.55682  0.71133  1.0000
  H   H463      1.0  0.21454  0.72881  0.56698  1.0000
  H   H464      1.0  0.21691  0.72291  0.51784  1.0000
  H   H465      1.0  0.03717  0.54378  0.59848  1.0000
  H   H466      1.0  0.13823  0.54851  0.66782  1.0000
  C   C291      1.0  0.18726  0.74582  0.52826  1.0000
  H   H467      1.0  0.05652  0.55980  0.80521  1.0000
  C   C292      1.0  0.07439  0.56124  0.61161  1.0000
  H   H468      1.0  0.11585  0.61283  0.86451  1.0000
  H   H469      1.0  0.17295  0.70817  0.51871  1.0000
  H   H470      1.0  0.07875  0.54906  0.60841  1.0000
  C   C293      1.0  0.01820  0.54187  0.73244  1.0000
  C   C294      1.0  0.03127  0.53580  0.72000  1.0000
  H   H471      1.0  0.13500  0.59220  0.86788  1.0000
  H   H472      1.0  0.02260  0.55669  0.73838  1.0000
  H   H473      1.0  0.04552  0.54601  0.71623  1.0000
  C   C295      1.0  0.13168  0.66572  0.95366  1.0000
  H   H474      1.0  0.19839  0.73941  0.57744  1.0000
  H   H475      1.0  0.12262  0.72102  0.97155  1.0000
  C   C296      1.0  0.15130  0.70427  0.97115  1.0000
  C   C297      1.0  0.15220  0.69911  0.94435  1.0000
  H   H476      1.0  0.16986  0.55067  0.63041  1.0000
  S   S124      1.0  0.12954  0.50652  0.73794  1.0000
  C   C298      1.0  0.18171  0.71306  0.53773  1.0000
  H   H477      1.0  0.18864  0.57022  0.64749  1.0000
  H   H478      1.0  0.12401  0.63492  0.88325  1.0000
  C   C299      1.0  0.12314  0.56697  0.57030  1.0000
  C   C300      1.0  0.11840  0.55179  0.58846  1.0000
  C   C301      1.0  0.11879  0.55516  0.61632  1.0000
  C   C302      1.0  0.12446  0.57383  0.62618  1.0000
  C   C303      1.0  0.12930  0.58901  0.60803  1.0000
  C   C304      1.0  0.12841  0.58558  0.58014  1.0000
  H   H479      1.0  0.11435  0.53735  0.58090  1.0000
  H   H480      1.0  0.11489  0.54333  0.63007  1.0000
  H   H481      1.0  0.13374  0.60350  0.61558  1.0000
  H   H482      1.0  0.13226  0.59738  0.56628  1.0000
  C   C305      1.0  0.09974  0.55875  0.87420  1.0000
  C   C306      1.0  0.09332  0.57280  0.86581  1.0000
  C   C307      1.0  0.09229  0.57656  0.83823  1.0000
  C   C308      1.0  0.09731  0.56606  0.81883  1.0000
  C   C309      1.0  0.10319  0.55163  0.82715  1.0000
  C   C310      1.0  0.10447  0.54806  0.85478  1.0000
  H   H483      1.0  0.08934  0.58088  0.88060  1.0000
  H   H484      1.0  0.08753  0.58762  0.83187  1.0000
  H   H485      1.0  0.10704  0.54341  0.81236  1.0000
  H   H486      1.0  0.10939  0.53710  0.86115  1.0000
  H   H487      1.0  0.00908  0.52156  0.81878  1.0000
  H   H488      1.0  0.07244  0.59442  0.59702  1.0000
  H   H489      1.0  0.03875  0.55009  0.56359  1.0000
  H   H490      1.0  0.18816  0.70255  0.54256  1.0000
  H   H491      1.0  0.14273  0.67629  0.91474  1.0000
  S   S125      1.0  0.11865  0.64211  0.94106  1.0000
  C   C311      1.0  0.04454  0.53787  0.51191  1.0000
  C   C312      1.0  0.10493  0.74323  0.92519  1.0000
  H   H492      1.0  0.04532  0.52526  0.76796  1.0000
  N   N30       1.0  0.14349  0.62061  0.88429  1.0000
  C   C313      1.0  0.03428  0.51844  0.51735  1.0000
  H   H493      1.0  0.16040  0.70984  0.93027  1.0000
  H   H494      1.0  0.22097  0.74737  0.51100  1.0000
  C   C314      1.0  0.04541  0.52848  0.83620  1.0000
  N   N31       1.0  0.19656  0.73256  0.53511  1.0000
  H   H495      1.0  0.14274  0.52845  0.65602  1.0000
  C   C315      1.0  0.15395  0.63166  0.90832  1.0000
  H   H496      1.0  0.11555  0.61271  0.90066  1.0000
  H   H497      1.0  0.08157  0.55663  0.55985  1.0000
  H   H498      1.0  0.04822  0.50909  0.79226  1.0000
  Fe  Fe63      1.0  0.11495  0.58022  0.50519  1.0000
  C   C316      1.0  0.14224  0.68001  0.93563  1.0000
  C   C317      1.0  0.04691  0.54765  0.58118  1.0000
  C   C318      1.0  0.02582  0.51665  0.71242  1.0000
  C   C319      1.0  0.05945  0.58129  0.59225  1.0000
  N   N32       1.0  0.06452  0.56473  0.58736  1.0000
  C   C320      1.0  0.00440  0.52215  0.50948  1.0000
  H   H499      1.0  0.16847  0.63026  0.86008  1.0000
  C   C321      1.0  0.01811  0.51731  0.80507  1.0000
  H   H500      1.0  0.14606  0.62166  0.84129  1.0000
  H   H501      1.0  0.16348  0.57508  0.69195  1.0000
  H   H502      1.0  0.19362  0.54727  0.67992  1.0000
  C   C322      1.0  0.20963  0.73279  0.51349  1.0000
  C   C323      1.0  0.14076  0.68997  0.98917  1.0000
  H   H503      1.0  0.17748  0.74635  0.54421  1.0000
  H   H504      1.0  0.04199  0.50954  0.52263  1.0000
  S   S126      1.0  0.04198  0.50852  0.69711  1.0000
  H   H505      1.0  0.17860  0.74149  0.50917  1.0000
  H   H506      1.0  0.16515  0.57050  0.64279  1.0000
  H   H507      1.0  0.14165  0.53240  0.69155  1.0000
  C   C324      1.0  0.07737  0.56879  0.56431  1.0000
  C   C325      1.0  0.99962  0.52884  0.73766  1.0000
  S   S127      1.0  0.10415  0.60313  0.51356  1.0000
  H   H508      1.0  0.06510  0.55791  0.62941  1.0000
  H   H509      1.0  0.08760  0.57397  0.61706  1.0000
  C   C326      1.0  0.13116  0.67079  0.98059  1.0000
  H   H510      1.0  0.16735  0.55872  0.71510  1.0000
  H   H511      1.0  0.01267  0.51786  0.78420  1.0000
  C   C327      1.0  0.13157  0.73375  0.92118  1.0000
  H   H512      1.0  0.15471  0.64657  0.90795  1.0000
  H   H513      1.0  0.10271  0.72786  0.97444  1.0000
  H   H514      1.0  0.99721  0.52136  0.95453  1.0000
  H   H515      1.0  0.09527  0.73031  0.91373  1.0000
  H   H516      1.0  0.18707  0.57502  0.69673  1.0000
  H   H517      1.0  0.14365  0.73161  0.93182  1.0000
  N   N33       1.0  0.12017  0.73953  0.94024  1.0000
  C   C328      1.0  0.15359  0.62970  0.85980  1.0000
  H   H518      1.0  0.17486  0.52782  0.66269  1.0000
  H   H519      1.0  0.17365  0.53124  0.69811  1.0000
  H   H520      1.0  0.30407  0.50944  0.50070  1.0000
  H   H521      1.0  0.15702  0.60052  0.88755  1.0000
  S   S128      1.0  0.08584  0.55911  0.98065  1.0000
  H   H522      1.0  0.05028  0.53506  0.57622  1.0000
  H   H523      1.0  0.04379  0.51362  0.84079  1.0000
  C   C329      1.0  0.14251  0.60085  0.88594  1.0000
  H   H524      1.0  0.13452  0.59336  0.90383  1.0000
  N   N34       1.0  0.03862  0.52994  0.80843  1.0000
  N   N35       1.0  0.16732  0.55137  0.67334  1.0000
  C   C330      1.0  0.17305  0.56114  0.64736  1.0000
  C   C331      1.0  0.17155  0.56571  0.69523  1.0000
  C   C332      1.0  0.17787  0.53895  0.67872  1.0000
  C   C333      1.0  0.14657  0.53963  0.67208  1.0000
  H   H525      1.0  0.04969  0.57875  0.60945  1.0000
  H   H526      1.0  0.05212  0.58439  0.57419  1.0000
  C   C334      1.0  0.04985  0.52412  0.78916  1.0000
  H   H527      1.0  0.03735  0.53289  0.85131  1.0000
  S   S129      1.0  0.12344  0.59574  0.96281  1.0000
  H   H528      1.0  0.03618  0.55151  0.78248  1.0000
  Fe  Fe64      1.0  0.10532  0.61313  0.96197  1.0000
  C   C335      1.0  0.01472  0.54168  0.50406  1.0000
  H   H529      1.0  0.09080  0.58158  0.56831  1.0000
  H   H530      1.0  0.13792  0.74482  0.90566  1.0000
  H   H531      1.0  0.17164  0.71244  0.55392  1.0000
  H   H532      1.0  0.12278  0.72009  0.91063  1.0000
  C   C336      1.0  0.20764  0.73872  0.56081  1.0000
  H   H533      1.0  0.06540  0.53332  0.79127  1.0000
  H   H534      1.0  0.04575  0.53305  0.97515  1.0000
  C   C337      1.0  0.03276  0.52832  0.98640  1.0000
  H   H535      1.0  0.05993  0.54371  0.51370  1.0000
  C   C338      1.0  0.11146  0.72406  0.95974  1.0000
  H   H536      1.0  0.03296  0.55487  0.81740  1.0000
  H   H537      1.0  0.06086  0.53780  0.83931  1.0000
  H   H538      1.0  0.10210  0.71046  0.94947  1.0000
  C   C339      1.0  0.01418  0.51042  0.51604  1.0000
  C   C340      1.0  0.02270  0.50874  0.99120  1.0000
  C   C341      1.0  0.03487  0.54962  0.50497  1.0000
  C   C342      1.0  0.99397  0.50980  0.72929  1.0000
  H   H539      1.0  0.30235  0.50408  0.84324  1.0000
  H   H540      1.0  0.09596  0.74751  0.93897  1.0000
  H   H541      1.0  0.12307  0.66001  0.99469  1.0000
  H   H542      1.0  0.00704  0.55062  0.49894  1.0000
  S   S130      1.0  0.04752  0.57418  0.49758  1.0000
  Fe  Fe65      1.0  0.24064  0.81498  0.17518  1.0000
  S   S131      1.0  0.26020  0.84536  0.16858  1.0000
  S   S132      1.0  0.23046  0.79225  0.14203  1.0000
  Fe  Fe66      1.0  0.23694  0.82213  0.23618  1.0000
  S   S133      1.0  0.25658  0.85329  0.23334  1.0000
  S   S134      1.0  0.21746  0.80685  0.27055  1.0000
  Fe  Fe67      1.0  0.24002  0.85244  0.19446  1.0000
  S   S135      1.0  0.22805  0.87351  0.17868  1.0000
  Fe  Fe68      1.0  0.27505  0.84314  0.20756  1.0000
  S   S136      1.0  0.30696  0.84834  0.20757  1.0000
  S   S137      1.0  0.21962  0.82215  0.19860  1.0000
  S   S138      1.0  0.25618  0.81190  0.21293  1.0000
  Fe  Fe69      1.0  0.12674  0.86001  0.13479  1.0000
  S   S139      1.0  0.14712  0.89044  0.13226  1.0000
  S   S140      1.0  0.13918  0.83862  0.14775  1.0000
  Fe  Fe70      1.0  0.09196  0.86899  0.11925  1.0000
  S   S141      1.0  0.11063  0.90049  0.11566  1.0000
  S   S142      1.0  0.06003  0.86226  0.11101  1.0000
  Fe  Fe71      1.0  0.13092  0.89093  0.09380  1.0000
  S   S143      1.0  0.15082  0.90470  0.05931  1.0000
  Fe  Fe72      1.0  0.12514  0.89708  0.15440  1.0000
  S   S144      1.0  0.13495  0.92004  0.18753  1.0000
  S   S145      1.0  0.11167  0.85973  0.09492  1.0000
  S   S146      1.0  0.10540  0.86641  0.15946  1.0000
  Fe  Fe73      1.0  0.21109  0.79024  0.43066  1.0000
  S   S147      1.0  0.17941  0.78338  0.42835  1.0000
  S   S148      1.0  0.23218  0.79877  0.39639  1.0000
  C   C343      1.0  0.14181  0.96800  0.41405  1.0000
  C   C344      1.0  0.16692  0.86896  0.01407  1.0000
  H   H543      1.0  0.30205  0.79023  0.18756  1.0000
  H   H544      1.0  0.20640  0.88168  0.13571  1.0000
  Fe  Fe74      1.0  0.18582  0.80529  0.46164  1.0000
  S   S149      1.0  0.17265  0.82742  0.46287  1.0000
  S   S150      1.0  0.20865  0.76757  0.46156  1.0000
  S   S151      1.0  0.21745  0.81328  0.46226  1.0000
  Fe  Fe75      1.0  0.16805  0.92286  0.34536  1.0000
  S   S152      1.0  0.19912  0.94045  0.35659  1.0000
  S   S153      1.0  0.15820  0.90525  0.30666  1.0000
  Fe  Fe76      1.0  0.15540  0.92413  0.40352  1.0000
  S   S154      1.0  0.18533  0.94150  0.41818  1.0000
  S   S155      1.0  0.13043  0.91499  0.43175  1.0000
  Fe  Fe77      1.0  0.18786  0.95880  0.38074  1.0000
  S   S156      1.0  0.19821  0.99061  0.39146  1.0000
  Fe  Fe78      1.0  0.19357  0.92170  0.39316  1.0000
  S   S157      1.0  0.21388  0.90894  0.41006  1.0000
  S   S158      1.0  0.15703  0.94231  0.36715  1.0000
  S   S159      1.0  0.16349  0.90322  0.38074  1.0000
  C   C345      1.0  0.17823  0.78798  0.12381  1.0000
  C   C346      1.0  0.20273  0.88689  0.42656  1.0000
  C   C347      1.0  0.18328  0.87991  0.43246  1.0000
  C   C348      1.0  0.17434  0.86181  0.44398  1.0000
  C   C349      1.0  0.18474  0.85049  0.44971  1.0000
  C   C350      1.0  0.20435  0.85773  0.44470  1.0000
  C   C351      1.0  0.21331  0.87588  0.43317  1.0000
  H   H545      1.0  0.17502  0.88839  0.42806  1.0000
  H   H546      1.0  0.15919  0.85640  0.44786  1.0000
  H   H547      1.0  0.21261  0.84931  0.44949  1.0000
  H   H548      1.0  0.22841  0.88122  0.42892  1.0000
  C   C352      1.0  0.03936  0.84061  0.10714  1.0000
  C   C353      1.0  0.02162  0.84160  0.10035  1.0000
  H   H549      1.0  0.28056  0.98523  0.39814  1.0000
  C   C354      1.0  0.11923  0.90596  0.48392  1.0000
  C   C355      1.0  0.02309  0.80595  0.10795  1.0000
  C   C356      1.0  0.03999  0.82266  0.11091  1.0000
  H   H550      1.0  0.02100  0.85541  0.09722  1.0000
  C   C357      1.0  0.25071  0.95222  0.38720  1.0000
  H   H551      1.0  0.02376  0.79216  0.11100  1.0000
  H   H552      1.0  0.05350  0.82166  0.11614  1.0000
  C   C358      1.0  0.14440  0.90824  0.02584  1.0000
  H   H553      1.0  0.27920  0.96824  0.42395  1.0000
  H   H554      1.0  0.23558  0.94357  0.38091  1.0000
  C   C359      1.0  0.13469  0.91260  0.46647  1.0000
  H   H555      1.0  0.25074  0.98718  0.37917  1.0000
  C   C360      1.0  0.12534  0.90292  0.01690  1.0000
  H   H556      1.0  0.13673  0.95229  0.41087  1.0000
  H   H557      1.0  0.16534  0.92293  0.46404  1.0000
  H   H558      1.0  0.15898  0.85915  0.03021  1.0000
  H   H559      1.0  0.11391  0.89697  0.03096  1.0000
  C   C361      1.0  0.13850  0.91542  0.22183  1.0000
  C   C362      1.0  0.13522  0.89700  0.23065  1.0000
  C   C363      1.0  0.14079  0.89416  0.25701  1.0000
  C   C364      1.0  0.14932  0.90960  0.27506  1.0000
  C   C365      1.0  0.15178  0.92795  0.26671  1.0000
  C   C366      1.0  0.14641  0.93082  0.24017  1.0000
  H   H560      1.0  0.12892  0.88498  0.21690  1.0000
  H   H561      1.0  0.13872  0.87990  0.26334  1.0000
  H   H562      1.0  0.15832  0.93995  0.28039  1.0000
  H   H563      1.0  0.14890  0.94512  0.23355  1.0000
  C   C367      1.0  0.23257  0.80584  0.05156  1.0000
  C   C368      1.0  0.22251  0.78723  0.06053  1.0000
  C   C369      1.0  0.22219  0.78323  0.08827  1.0000
  C   C370      1.0  0.23157  0.79782  0.10731  1.0000
  C   C371      1.0  0.24143  0.81645  0.09836  1.0000
  C   C372      1.0  0.24206  0.82037  0.07062  1.0000
  H   H564      1.0  0.21524  0.77589  0.04604  1.0000
  H   H565      1.0  0.21455  0.76875  0.09497  1.0000
  H   H566      1.0  0.24868  0.82785  0.11270  1.0000
  H   H567      1.0  0.24990  0.83479  0.06384  1.0000
  C   C373      1.0  0.22218  0.80427  0.30523  1.0000
  C   C374      1.0  0.24044  0.81322  0.31730  1.0000
  C   C375      1.0  0.24325  0.81121  0.34515  1.0000
  C   C376      1.0  0.22788  0.80041  0.36129  1.0000
  C   C377      1.0  0.20963  0.79139  0.34920  1.0000
  C   C378      1.0  0.20684  0.79328  0.32133  1.0000
  H   H568      1.0  0.25237  0.82169  0.30520  1.0000
  H   H569      1.0  0.25745  0.81815  0.35427  1.0000
  H   H570      1.0  0.19773  0.78279  0.36126  1.0000
  H   H571      1.0  0.19269  0.78618  0.31213  1.0000
  C   C379      1.0  0.20340  0.86342  0.16988  1.0000
  C   C380      1.0  0.19048  0.84890  0.18523  1.0000
  C   C381      1.0  0.17082  0.84131  0.17823  1.0000
  C   C382      1.0  0.16386  0.84854  0.15630  1.0000
  C   C383      1.0  0.17677  0.86313  0.14099  1.0000
  C   C384      1.0  0.19647  0.87051  0.14775  1.0000
  H   H572      1.0  0.19557  0.84368  0.20278  1.0000
  H   H573      1.0  0.16092  0.83005  0.19018  1.0000
  H   H574      1.0  0.17159  0.86853  0.12368  1.0000
  C   C385      1.0  0.24329  0.97957  0.39731  1.0000
  H   H575      1.0  0.17802  0.84886  0.38666  1.0000
  H   H576      1.0  0.24723  0.94633  0.44012  1.0000
  H   H577      1.0  0.29506  0.82542  0.14153  1.0000
  C   C386      1.0  0.15907  0.91598  0.00734  1.0000
  H   H578      1.0  0.20375  0.84600  0.32471  1.0000
  H   H579      1.0  0.00322  0.81081  0.19249  1.0000
  H   H580      1.0  0.19963  0.83645  0.12435  1.0000
  H   H581      1.0  0.16555  0.00199  0.43399  1.0000
  N   N36       1.0  0.14664  0.97324  0.44276  1.0000
  H   H582      1.0  0.21411  0.83066  0.33946  1.0000
  H   H583      1.0  0.15895  0.80928  0.13851  1.0000
  H   H584      1.0  0.31151  0.81479  0.17712  1.0000
  H   H585      1.0  0.16655  0.77677  0.11197  1.0000
  H   H586      1.0  0.17445  0.78620  0.14542  1.0000
  C   C387      1.0  0.26884  0.77940  0.15851  1.0000
  H   H587      1.0  0.15832  0.95208  0.44906  1.0000
  H   H588      1.0  0.10474  0.90156  0.47580  1.0000
  H   H589      1.0  0.21048  0.81953  0.12954  1.0000
  H   H590      1.0  0.27177  0.76697  0.16575  1.0000
  C   C388      1.0  0.12965  0.96313  0.45901  1.0000
  C   C389      1.0  0.29809  0.80188  0.17958  1.0000
  H   H591      1.0  0.16520  0.82512  0.11053  1.0000
  H   H592      1.0  0.16749  0.88337  0.01949  1.0000
  H   H593      1.0  0.19318  0.82061  0.15245  1.0000
  H   H594      1.0  0.00190  0.80975  0.15643  1.0000
  C   C390      1.0  0.18663  0.80923  0.08585  1.0000
  H   H595      1.0  0.17553  0.97507  0.43999  1.0000
  C   C391      1.0  0.00475  0.82490  0.09724  1.0000
  H   H596      1.0  0.25976  0.77497  0.13971  1.0000
  C   C392      1.0  0.20923  0.84230  0.34400  1.0000
  N   N37       1.0  0.19442  0.83648  0.36465  1.0000
  C   C393      1.0  0.20218  0.83106  0.38946  1.0000
  C   C394      1.0  0.17745  0.81995  0.35456  1.0000
  C   C395      1.0  0.18882  0.85257  0.37062  1.0000
  H   H597      1.0  0.20622  0.81874  0.38584  1.0000
  H   H598      1.0  0.19149  0.82682  0.40563  1.0000
  H   H599      1.0  0.17120  0.82347  0.33581  1.0000
  H   H600      1.0  0.18121  0.80758  0.34979  1.0000
  H   H601      1.0  0.16607  0.81514  0.36977  1.0000
  H   H602      1.0  0.20136  0.86542  0.37773  1.0000
  H   H603      1.0  0.18250  0.85677  0.35250  1.0000
  H   H604      1.0  0.17386  0.92022  0.01411  1.0000
  C   C396      1.0  0.19682  0.82163  0.13085  1.0000
  N   N38       1.0  0.25194  0.96655  0.40805  1.0000
  C   C397      1.0  0.29798  0.79144  0.13362  1.0000
  H   H605      1.0  0.21529  0.84299  0.39734  1.0000
  H   H606      1.0  0.12917  0.85213  0.00306  1.0000
  H   H607      1.0  0.15132  0.80009  0.10506  1.0000
  C   C398      1.0  0.15276  0.99410  0.44617  1.0000
  S   S160      1.0  0.23407  0.81164  0.01694  1.0000
  H   H608      1.0  0.17537  0.79850  0.07282  1.0000
  C   C399      1.0  0.00537  0.80695  0.10115  1.0000
  H   H609      1.0  0.13280  0.96653  0.48085  1.0000
  H   H610      1.0  0.18900  0.82369  0.07813  1.0000
  H   H611      1.0  0.22658  0.99667  0.34953  1.0000
  C   C400      1.0  0.16342  0.81057  0.11719  1.0000
  H   H612      1.0  0.22214  0.85489  0.35080  1.0000
  N   N39       1.0  0.18127  0.80735  0.11440  1.0000
  C   C401      1.0  0.24149  0.95672  0.43195  1.0000
  N   N40       1.0  0.18992  0.90999  0.20182  1.0000
  C   C402      1.0  0.18712  0.92517  0.21738  1.0000
  C   C403      1.0  0.20520  0.90530  0.21503  1.0000
  C   C404      1.0  0.19536  0.91670  0.17417  1.0000
  C   C405      1.0  0.17190  0.89276  0.20069  1.0000
  H   H613      1.0  0.17627  0.92960  0.20722  1.0000
  H   H614      1.0  0.20062  0.93812  0.21964  1.0000
  H   H615      1.0  0.18199  0.92026  0.23792  1.0000
  H   H616      1.0  0.20748  0.89371  0.20400  1.0000
  H   H617      1.0  0.21913  0.91783  0.21586  1.0000
  H   H618      1.0  0.20150  0.90030  0.23598  1.0000
  H   H619      1.0  0.18393  0.92013  0.16366  1.0000
  H   H620      1.0  0.19760  0.90563  0.16186  1.0000
  H   H621      1.0  0.20885  0.92974  0.17418  1.0000
  H   H622      1.0  0.17347  0.88102  0.18916  1.0000
  H   H623      1.0  0.16005  0.89574  0.19075  1.0000
  H   H624      1.0  0.16729  0.88726  0.22116  1.0000
  Fe  Fe79      1.0  0.17727  0.76219  0.46148  1.0000
  H   H625      1.0  0.20013  0.80709  0.08312  1.0000
  H   H626      1.0  0.30181  0.77939  0.14024  1.0000
  H   H627      1.0  0.31242  0.88832  0.21700  1.0000
  H   H628      1.0  0.31153  0.80387  0.12969  1.0000
  H   H629      1.0  0.14893  0.83276  0.99648  1.0000
  H   H630      1.0  0.13019  0.97229  0.40636  1.0000
  H   H631      1.0  0.15664  0.99858  0.46758  1.0000
  H   H632      1.0  0.12474  0.94733  0.45670  1.0000
  N   N41       1.0  0.28674  0.79623  0.15402  1.0000
  C   C406      1.0  0.16243  0.96768  0.45174  1.0000
  H   H633      1.0  0.25847  0.95903  0.36885  1.0000
  H   H634      1.0  0.25677  0.94192  0.39477  1.0000
  H   H635      1.0  0.27309  0.81578  0.15895  1.0000
  H   H636      1.0  0.22607  0.94842  0.42687  1.0000
  H   H637      1.0  0.99369  0.81391  0.47787  1.0000
  C   C407      1.0  0.28198  0.81223  0.14431  1.0000
  H   H638      1.0  0.28975  0.78715  0.11411  1.0000
  H   H639      1.0  0.28999  0.80557  0.19542  1.0000
  H   H640      1.0  0.19141  0.78504  0.12193  1.0000
  H   H641      1.0  0.22791  0.97170  0.39143  1.0000
  H   H642      1.0  0.24392  0.99061  0.41244  1.0000
  H   H643      1.0  0.18189  0.86978  0.01468  1.0000
  H   H644      1.0  0.24231  0.96701  0.44830  1.0000
  H   H645      1.0  0.11739  0.96690  0.45278  1.0000
  H   H646      1.0  0.16629  0.97108  0.47343  1.0000
  C   C408      1.0  0.27226  0.97766  0.41574  1.0000
  H   H647      1.0  0.27361  0.80862  0.12487  1.0000
  H   H648      1.0  0.00594  0.83178  0.17340  1.0000
  H   H649      1.0  0.25995  0.78253  0.17377  1.0000
  C   C409      1.0  0.15334  0.91816  0.47716  1.0000
  H   H650      1.0  0.14120  0.99883  0.43956  1.0000
  H   H651      1.0  0.27374  0.98864  0.43142  1.0000
  C   C410      1.0  0.99791  0.81602  0.17435  1.0000
  H   H652      1.0  0.15448  0.97495  0.40127  1.0000
  C   C411      1.0  0.32627  0.88735  0.21833  1.0000
  Fe  Fe80      1.0  0.21211  0.79020  0.49294  1.0000
  S   S161      1.0  0.18075  0.78375  0.49462  1.0000
  H   H653      1.0  0.14736  0.84139  0.49437  1.0000
  Fe  Fe81      1.0  0.23818  0.81313  0.68445  1.0000
  S   S162      1.0  0.25926  0.84060  0.66838  1.0000
  S   S163      1.0  0.22144  0.78859  0.65561  1.0000
  Fe  Fe82      1.0  0.24026  0.83038  0.74194  1.0000
  S   S164      1.0  0.26064  0.85920  0.72824  1.0000
  S   S165      1.0  0.23115  0.83173  0.78518  1.0000
  Fe  Fe83      1.0  0.24174  0.85346  0.69077  1.0000
  S   S166      1.0  0.23056  0.87402  0.67090  1.0000
  Fe  Fe84      1.0  0.27594  0.84325  0.70767  1.0000
  S   S167      1.0  0.30752  0.84835  0.71532  1.0000
  S   S168      1.0  0.22038  0.82605  0.70594  1.0000
  S   S169      1.0  0.25593  0.81433  0.72228  1.0000
  Fe  Fe85      1.0  0.12782  0.86353  0.62599  1.0000
  S   S170      1.0  0.14476  0.89500  0.62728  1.0000
  S   S171      1.0  0.14340  0.84358  0.62910  1.0000
  Fe  Fe86      1.0  0.08963  0.86808  0.61630  1.0000
  S   S172      1.0  0.10514  0.90019  0.61554  1.0000
  S   S173      1.0  0.05723  0.86030  0.61471  1.0000
  Fe  Fe87      1.0  0.12697  0.89525  0.59051  1.0000
  S   S174      1.0  0.14641  0.91201  0.55745  1.0000
  Fe  Fe88      1.0  0.12129  0.89643  0.65224  1.0000
  S   S175      1.0  0.12446  0.91608  0.68818  1.0000
  S   S176      1.0  0.11049  0.86350  0.58832  1.0000
  S   S177      1.0  0.10533  0.86466  0.65384  1.0000
  Fe  Fe89      1.0  0.21175  0.78001  0.92370  1.0000
  S   S178      1.0  0.17953  0.76808  0.92305  1.0000
  S   S179      1.0  0.22658  0.77775  0.88538  1.0000
  C   C412      1.0  0.16004  0.99528  0.94537  1.0000
  H   H654      1.0  0.16173  0.95151  0.94798  1.0000
  Fe  Fe90      1.0  0.21482  0.79336  0.98286  1.0000
  H   H655      1.0  0.20681  0.89354  0.65337  1.0000
  Fe  Fe91      1.0  0.18358  0.79540  0.94464  1.0000
  S   S180      1.0  0.16495  0.81143  0.93295  1.0000
  S   S181      1.0  0.21418  0.76631  0.96345  1.0000
  S   S182      1.0  0.21554  0.80791  0.94303  1.0000
  Fe  Fe92      1.0  0.15936  0.91712  0.84353  1.0000
  S   S183      1.0  0.19113  0.93344  0.84988  1.0000
  S   S184      1.0  0.14840  0.89840  0.80591  1.0000
  Fe  Fe93      1.0  0.15221  0.92143  0.90439  1.0000
  S   S185      1.0  0.18349  0.93723  0.91383  1.0000
  S   S186      1.0  0.12992  0.91478  0.93675  1.0000
  Fe  Fe94      1.0  0.18360  0.95377  0.87607  1.0000
  S   S187      1.0  0.19084  0.98607  0.87863  1.0000
  Fe  Fe95      1.0  0.18732  0.91527  0.88693  1.0000
  S   S188      1.0  0.20530  0.89840  0.89825  1.0000
  S   S189      1.0  0.15176  0.93824  0.86727  1.0000
  S   S190      1.0  0.15604  0.89868  0.87992  1.0000
  H   H656      1.0  0.13986  0.84379  0.56793  1.0000
  C   C413      1.0  0.19410  0.87394  0.90674  1.0000
  C   C414      1.0  0.17486  0.86303  0.89988  1.0000
  C   C415      1.0  0.16620  0.84383  0.90759  1.0000
  C   C416      1.0  0.17675  0.83519  0.92194  1.0000
  C   C417      1.0  0.19609  0.84593  0.92840  1.0000
  C   C418      1.0  0.20474  0.86518  0.92071  1.0000
  H   H657      1.0  0.16654  0.86919  0.88848  1.0000
  H   H658      1.0  0.15125  0.83565  0.90240  1.0000
  H   H659      1.0  0.20435  0.83960  0.93984  1.0000
  H   H660      1.0  0.21966  0.87340  0.92604  1.0000
  C   C419      1.0  0.03723  0.83824  0.61004  1.0000
  C   C420      1.0  0.01868  0.83824  0.60985  1.0000
  H   H661      1.0  0.24105  0.83583  0.56632  1.0000
  H   H662      1.0  0.21387  0.87604  0.85365  1.0000
  C   C421      1.0  0.02284  0.80380  0.60294  1.0000
  C   C422      1.0  0.03923  0.82090  0.60658  1.0000
  H   H663      1.0  0.01696  0.85158  0.61258  1.0000
  H   H664      1.0  0.15200  0.86922  0.57069  1.0000
  H   H665      1.0  0.22481  0.84324  0.63312  1.0000
  H   H666      1.0  0.05339  0.82064  0.60673  1.0000
  C   C423      1.0  0.14119  0.91146  0.52256  1.0000
  S   S191      1.0  0.23299  0.79560  0.52890  1.0000
  H   H667      1.0  0.20508  0.85541  0.78435  1.0000
  H   H668      1.0  0.13025  0.85701  0.96751  1.0000
  H   H669      1.0  0.21549  0.82552  0.56202  1.0000
  H   H670      1.0  0.32123  0.86146  0.81305  1.0000
  H   H671      1.0  0.16536  0.85472  0.56517  1.0000
  H   H672      1.0  0.16591  0.88824  0.53108  1.0000
  H   H673      1.0  0.22307  0.86589  0.82757  1.0000
  H   H674      1.0  0.11049  0.90018  0.52525  1.0000
  C   C424      1.0  0.13223  0.91155  0.72046  1.0000
  C   C425      1.0  0.13539  0.92497  0.74141  1.0000
  C   C426      1.0  0.14076  0.92141  0.76762  1.0000
  C   C427      1.0  0.14273  0.90425  0.77314  1.0000
  C   C428      1.0  0.13952  0.89084  0.75217  1.0000
  C   C429      1.0  0.13445  0.89451  0.72592  1.0000
  H   H675      1.0  0.13366  0.93817  0.73737  1.0000
  H   H676      1.0  0.14311  0.93181  0.78360  1.0000
  H   H677      1.0  0.14100  0.87751  0.75624  1.0000
  H   H678      1.0  0.13214  0.88408  0.71000  1.0000
  C   C430      1.0  0.22905  0.79392  0.56398  1.0000
  C   C431      1.0  0.21069  0.78651  0.57455  1.0000
  C   C432      1.0  0.20849  0.78475  0.60264  1.0000
  C   C433      1.0  0.22457  0.79114  0.62043  1.0000
  C   C434      1.0  0.24287  0.79893  0.60983  1.0000
  C   C435      1.0  0.24508  0.80011  0.58178  1.0000
  H   H679      1.0  0.19819  0.78206  0.56119  1.0000
  H   H680      1.0  0.19427  0.77872  0.61073  1.0000
  H   H681      1.0  0.25536  0.80368  0.62329  1.0000
  H   H682      1.0  0.25934  0.80583  0.57384  1.0000
  C   C436      1.0  0.22938  0.81597  0.81229  1.0000
  C   C437      1.0  0.22397  0.82026  0.83748  1.0000
  C   C438      1.0  0.22273  0.80850  0.85982  1.0000
  C   C439      1.0  0.22725  0.79246  0.85738  1.0000
  C   C440      1.0  0.23286  0.78825  0.83224  1.0000
  C   C441      1.0  0.23373  0.79982  0.80971  1.0000
  H   H683      1.0  0.22080  0.83280  0.83987  1.0000
  H   H684      1.0  0.21851  0.81198  0.87906  1.0000
  H   H685      1.0  0.23630  0.77581  0.83015  1.0000
  H   H686      1.0  0.23765  0.79614  0.79040  1.0000
  C   C442      1.0  0.20591  0.86540  0.66131  1.0000
  C   C443      1.0  0.19438  0.84583  0.66001  1.0000
  C   C444      1.0  0.17529  0.83937  0.65024  1.0000
  C   C445      1.0  0.16735  0.85237  0.64202  1.0000
  C   C446      1.0  0.17887  0.87193  0.64323  1.0000
  C   C447      1.0  0.19804  0.87839  0.65274  1.0000
  H   H687      1.0  0.20016  0.83552  0.66589  1.0000
  H   H688      1.0  0.16660  0.82420  0.64923  1.0000
  H   H689      1.0  0.17322  0.88215  0.63654  1.0000
  H   H690      1.0  0.16328  0.83912  0.52007  1.0000
  N   N42       1.0  0.06645  0.87723  0.69898  1.0000
  C   C448      1.0  0.07334  0.89121  0.67709  1.0000
  C   C449      1.0  0.05700  0.85779  0.68726  1.0000
  C   C450      1.0  0.05257  0.88171  0.71493  1.0000
  C   C451      1.0  0.08287  0.87829  0.71662  1.0000
  H   H691      1.0  0.08067  0.90607  0.68509  1.0000
  H   H692      1.0  0.06144  0.89066  0.66302  1.0000
  H   H693      1.0  0.08392  0.88832  0.66487  1.0000
  H   H694      1.0  0.05164  0.84680  0.70312  1.0000
  H   H695      1.0  0.04465  0.85656  0.67362  1.0000
  H   H696      1.0  0.06700  0.85398  0.67489  1.0000
  H   H697      1.0  0.04709  0.87144  0.73165  1.0000
  H   H698      1.0  0.04003  0.88109  0.70219  1.0000
  H   H699      1.0  0.05928  0.89631  0.72402  1.0000
  H   H700      1.0  0.07833  0.86794  0.73340  1.0000
  H   H701      1.0  0.09042  0.89283  0.72561  1.0000
  H   H702      1.0  0.09374  0.87517  0.70523  1.0000
  H   H703      1.0  0.16125  0.87235  0.94644  1.0000
  H   H704      1.0  0.22314  0.88943  0.82392  1.0000
  C   C452      1.0  0.22804  0.83924  0.56556  1.0000
  H   H705      1.0  0.13121  0.95052  0.96488  1.0000
  N   N43       1.0  0.19548  0.86651  0.81828  1.0000
  C   C453      1.0  0.18511  0.87902  0.82342  1.0000
  C   C454      1.0  0.19734  0.86481  0.78895  1.0000
  C   C455      1.0  0.18474  0.84737  0.82938  1.0000
  C   C456      1.0  0.21475  0.87482  0.83141  1.0000
  H   H706      1.0  0.18379  0.88094  0.84536  1.0000
  H   H707      1.0  0.17036  0.87310  0.81421  1.0000
  H   H708      1.0  0.19261  0.89351  0.81494  1.0000
  H   H709      1.0  0.18306  0.85861  0.77839  1.0000
  H   H710      1.0  0.20543  0.87897  0.77987  1.0000
  H   H711      1.0  0.18366  0.84800  0.85163  1.0000
  H   H712      1.0  0.19185  0.83740  0.82505  1.0000
  H   H713      1.0  0.16991  0.84091  0.82058  1.0000
  N   N44       1.0  0.14940  0.85798  0.53029  1.0000
  H   H714      1.0  0.25665  0.86416  0.59659  1.0000
  H   H715      1.0  0.19809  0.76055  0.52554  1.0000
  H   H716      1.0  0.21191  0.82274  0.61234  1.0000
  C   C457      1.0  0.22505  0.83614  0.61371  1.0000
  H   H717      1.0  0.02456  0.79046  0.60022  1.0000
  H   H718      1.0  0.23764  0.83216  0.61502  1.0000
  N   N45       1.0  0.22627  0.84876  0.59066  1.0000
  H   H719      1.0  0.29506  0.86274  0.76543  1.0000
  C   C458      1.0  0.24324  0.86681  0.59475  1.0000
  H   H720      1.0  0.28611  0.82947  0.83695  1.0000
  H   H721      1.0  0.17850  0.97281  0.93320  1.0000
  H   H722      1.0  0.18318  0.87611  0.96479  1.0000
  H   H723      1.0  0.19562  0.83944  0.58717  1.0000
  H   H724      1.0  0.24228  0.87428  0.61364  1.0000
  H   H725      1.0  0.17111  0.92276  0.51317  1.0000
  H   H726      1.0  0.13037  0.87242  0.53471  1.0000
  H   H727      1.0  0.13081  0.97249  0.91341  1.0000
  H   H728      1.0  0.13783  0.82753  0.52372  1.0000
  C   C459      1.0  0.00429  0.80380  0.60274  1.0000
  H   H729      1.0  0.31395  0.88870  0.70819  1.0000
  N   N46       1.0  0.15189  0.97418  0.94431  1.0000
  C   C460      1.0  0.12244  0.90517  0.51190  1.0000
  H   H730      1.0  0.17938  0.87401  0.52408  1.0000
  H   H731      1.0  0.27416  0.85823  0.78500  1.0000
  C   C461      1.0  0.20877  0.85284  0.58880  1.0000
  H   H732      1.0  0.29732  0.87421  0.79768  1.0000
  C   C462      1.0  0.13100  0.85977  0.52426  1.0000
  H   H733      1.0  0.20744  0.86067  0.60698  1.0000
  H   H734      1.0  0.17154  0.84329  0.98031  1.0000
  H   H735      1.0  0.13996  0.76901  0.94072  1.0000
  H   H736      1.0  0.13627  0.95170  0.91605  1.0000
  H   H737      1.0  0.11863  0.84701  0.53097  1.0000
  C   C463      1.0  0.13278  0.75710  0.95482  1.0000
  C   C464      1.0  0.16530  0.87508  0.52057  1.0000
  C   C465      1.0  0.28456  0.84179  0.82663  1.0000
  C   C466      1.0  0.28963  0.86063  0.78630  1.0000
  H   H738      1.0  0.21925  0.75323  0.55916  1.0000
  N   N47       1.0  0.29240  0.84440  0.79932  1.0000
  H   H739      1.0  0.28828  0.82803  0.76276  1.0000
  H   H740      1.0  0.22909  0.84832  0.54766  1.0000
  H   H741      1.0  0.24474  0.87678  0.57778  1.0000
  H   H742      1.0  0.20891  0.86181  0.57109  1.0000
  H   H743      1.0  0.12889  0.86153  0.50230  1.0000
  C   C467      1.0  0.15657  0.91792  0.50507  1.0000
  H   H744      1.0  0.16626  0.92349  0.96609  1.0000
  Fe  Fe96      1.0  0.18199  0.75627  0.96389  1.0000
  C   C468      1.0  0.28225  0.82686  0.78316  1.0000
  H   H745      1.0  0.28324  0.81410  0.79290  1.0000
  S   S192      1.0  0.18293  0.78274  0.98553  1.0000
  C   C469      1.0  0.13576  0.91246  0.97100  1.0000
  C   C470      1.0  0.15179  0.85635  0.55972  1.0000
  H   H746      1.0  0.23087  0.99266  0.86750  1.0000
  H   H747      1.0  0.17474  0.97192  0.96883  1.0000
  H   H748      1.0  0.29188  0.85472  0.83950  1.0000
  C   C471      1.0  0.13758  0.96646  0.96541  1.0000
  H   H749      1.0  0.01134  0.83373  0.53285  1.0000
  H   H750      1.0  0.16727  0.00076  0.96523  1.0000
  C   C472      1.0  0.00229  0.82115  0.60623  1.0000
  C   C473      1.0  0.15479  0.91791  0.98006  1.0000
  C   C474      1.0  0.31307  0.84830  0.80099  1.0000
  H   H751      1.0  0.12469  0.76207  0.96917  1.0000
  H   H752      1.0  0.26896  0.83890  0.82585  1.0000
  H   H753      1.0  0.00938  0.81202  0.54895  1.0000
  H   H754      1.0  0.15302  0.97292  0.90118  1.0000
  H   H755      1.0  0.12559  0.97129  0.96275  1.0000
  C   C475      1.0  0.14259  0.96757  0.91758  1.0000
  H   H756      1.0  0.26678  0.82405  0.78043  1.0000
  H   H757      1.0  0.14413  0.97092  0.98591  1.0000
  C   C476      1.0  0.14945  0.84076  0.51658  1.0000
  C   C477      1.0  0.16743  0.96734  0.94880  1.0000
  C   C478      1.0  0.00707  0.81813  0.52946  1.0000
  H   H758      1.0  0.16364  0.87708  0.49856  1.0000
  N   N48       1.0  0.15756  0.86256  0.98730  1.0000
  C   C479      1.0  0.16856  0.87606  0.96660  1.0000
  C   C480      1.0  0.13782  0.86189  0.98734  1.0000
  H   H759      1.0  0.31569  0.83625  0.81045  1.0000
  H   H760      1.0  0.17093  0.00133  0.92961  1.0000
  H   H761      1.0  0.01711  0.81620  0.51500  1.0000
  H   H762      1.0  0.17031  0.89092  0.97135  1.0000
  H   H763      1.0  0.11110  0.75497  0.91050  1.0000
  H   H764      1.0  0.14967  0.83796  0.96121  1.0000
  H   H765      1.0  0.14875  0.00100  0.94197  1.0000
  H   H766      1.0  0.10629  0.90099  0.98284  1.0000
  C   C481      1.0  0.15689  0.84331  0.98113  1.0000
  H   H767      1.0  0.31929  0.85042  0.78055  1.0000
  H   H768      1.0  0.13782  0.87620  0.99151  1.0000
  H   H769      1.0  0.14427  0.75467  0.96669  1.0000
  C   C482      1.0  0.12107  0.90518  0.98961  1.0000
  C   C483      1.0  0.39486  0.24478  0.10245  1.0000
  C   C484      1.0  0.34774  0.18503  0.34973  1.0000
  S   S193      1.0  0.58253  0.11578  0.45872  1.0000
  Fe  Fe97      1.0  0.54927  0.10195  0.05172  1.0000
  S   S194      1.0  0.51729  0.08607  0.04829  1.0000
  S   S195      1.0  0.56600  0.09542  0.08624  1.0000
  C   C485      1.0  0.44028  0.25207  0.40288  1.0000
  H   H770      1.0  0.41216  0.16601  0.36953  1.0000
  H   H771      1.0  0.52307  0.15969  0.04086  1.0000
  H   H772      1.0  0.38958  0.16839  0.36648  1.0000
  C   C486      1.0  0.56171  0.15145  0.45015  1.0000
  S   S196      1.0  0.54896  0.13008  0.03779  1.0000
  Fe  Fe98      1.0  0.57578  0.10262  0.29954  1.0000
  S   S197      1.0  0.59025  0.08189  0.29835  1.0000
  S   S198      1.0  0.55835  0.10574  0.33438  1.0000
  Fe  Fe99      1.0  0.58213  0.11187  0.23964  1.0000
  S   S199      1.0  0.59675  0.09172  0.23448  1.0000
  S   S200      1.0  0.57698  0.12909  0.20532  1.0000
  Fe  Fe100     1.0  0.57334  0.07145  0.25945  1.0000
  S   S201      1.0  0.55886  0.04029  0.24625  1.0000
  Fe  Fe101     1.0  0.61242  0.10435  0.27354  1.0000
  S   S202      1.0  0.64443  0.11015  0.27552  1.0000
  S   S203      1.0  0.55766  0.09082  0.26187  1.0000
  S   S204      1.0  0.59899  0.12584  0.27740  1.0000
  Fe  Fe102     1.0  0.42150  0.19738  0.05604  1.0000
  S   S205      1.0  0.42284  0.22721  0.05392  1.0000
  S   S206      1.0  0.39416  0.17338  0.06798  1.0000
  Fe  Fe103     1.0  0.46383  0.20992  0.04480  1.0000
  S   S207      1.0  0.46792  0.24083  0.04136  1.0000
  S   S208      1.0  0.42698  0.22655  0.47525  1.0000
  Fe  Fe104     1.0  0.45016  0.23539  0.07831  1.0000
  H   H773      1.0  0.50971  0.17804  0.49376  1.0000
  S   S209      1.0  0.33000  0.20452  0.08875  1.0000
  H   H774      1.0  0.56085  0.18555  0.40665  1.0000
  S   S210      1.0  0.44769  0.20532  0.08319  1.0000
  H   H775      1.0  0.48656  0.01682  0.48371  1.0000
  S   S211      1.0  0.44834  0.23667  0.23691  1.0000
  S   S212      1.0  0.38103  0.23647  0.31982  1.0000
  S   S213      1.0  0.43278  0.23739  0.30851  1.0000
  C   C487      1.0  0.35495  0.17252  0.33835  1.0000
  Fe  Fe105     1.0  0.52239  0.07927  0.00604  1.0000
  C   C488      1.0  0.35602  0.20461  0.34408  1.0000
  C   C489      1.0  0.37178  0.21195  0.32735  1.0000
  C   C490      1.0  0.37925  0.19952  0.31625  1.0000
  C   C491      1.0  0.37082  0.17985  0.32174  1.0000
  H   H776      1.0  0.56371  0.06340  0.40740  1.0000
  H   H777      1.0  0.39124  0.20500  0.30301  1.0000
  H   H778      1.0  0.37644  0.17025  0.31277  1.0000
  H   H779      1.0  0.54017  0.02681  0.45966  1.0000
  C   C492      1.0  0.45054  0.23259  0.15562  1.0000
  C   C493      1.0  0.44853  0.22838  0.18324  1.0000
  C   C494      1.0  0.45065  0.24271  0.20242  1.0000
  H   H780      1.0  0.44853  0.22135  0.14111  1.0000
  H   H781      1.0  0.44517  0.21391  0.18984  1.0000
  C   C495      1.0  0.51884  0.22217  0.11231  1.0000
  C   C496      1.0  0.45955  0.24090  0.44424  1.0000
  H   H782      1.0  0.36946  0.23657  0.14167  1.0000
  H   H783      1.0  0.46696  0.23637  0.45993  1.0000
  C   C497      1.0  0.47492  0.14717  0.04216  1.0000
  C   C498      1.0  0.37515  0.18070  0.07202  1.0000
  C   C499      1.0  0.36101  0.17162  0.09072  1.0000
  C   C500      1.0  0.34654  0.17835  0.09542  1.0000
  C   C501      1.0  0.34625  0.19414  0.08132  1.0000
  C   C502      1.0  0.35989  0.20266  0.06187  1.0000
  C   C503      1.0  0.37426  0.19592  0.05716  1.0000
  H   H784      1.0  0.36161  0.15976  0.10219  1.0000
  H   H785      1.0  0.35952  0.21471  0.05064  1.0000
  H   H786      1.0  0.38458  0.20246  0.04187  1.0000
  H   H787      1.0  0.47212  0.20153  0.12919  1.0000
  C   C504      1.0  0.53371  0.02820  0.24233  1.0000
  H   H788      1.0  0.43960  0.21467  0.39650  1.0000
  H   H789      1.0  0.35025  0.21417  0.35286  1.0000
  H   H790      1.0  0.33866  0.19774  0.48598  1.0000
  C   C505      1.0  0.50124  0.02662  0.24615  1.0000
  C   C506      1.0  0.52118  0.03665  0.24980  1.0000
  H   H791      1.0  0.46711  0.01203  0.05596  1.0000
  H   H792      1.0  0.49164  0.03327  0.25196  1.0000
  H   H793      1.0  0.52681  0.05087  0.25851  1.0000
  C   C507      1.0  0.49243  0.14499  0.04128  1.0000
  C   C508      1.0  0.50951  0.16125  0.04101  1.0000
  H   H794      1.0  0.53564  0.05625  0.46877  1.0000
  C   C509      1.0  0.49142  0.18168  0.04201  1.0000
  C   C510      1.0  0.47439  0.16543  0.04252  1.0000
  H   H795      1.0  0.56023  0.02710  0.44133  1.0000
  H   H796      1.0  0.41058  0.24441  0.16709  1.0000
  H   H797      1.0  0.34546  0.19055  0.45479  1.0000
  H   H798      1.0  0.46079  0.16689  0.04313  1.0000
  C   C511      1.0  0.45507  0.25130  0.14698  1.0000
  C   C512      1.0  0.56974  0.10596  0.11865  1.0000
  C   C513      1.0  0.57965  0.09980  0.13828  1.0000
  C   C514      1.0  0.58204  0.10690  0.16481  1.0000
  C   C515      1.0  0.57472  0.12042  0.17191  1.0000
  C   C516      1.0  0.56532  0.12706  0.15211  1.0000
  C   C517      1.0  0.56266  0.11972  0.12558  1.0000
  H   H799      1.0  0.58528  0.08925  0.13297  1.0000
  H   H800      1.0  0.58947  0.10185  0.17975  1.0000
  H   H801      1.0  0.55973  0.13762  0.15742  1.0000
  H   H802      1.0  0.55507  0.12461  0.11057  1.0000
  C   C518      1.0  0.57560  0.11257  0.42420  1.0000
  C   C519      1.0  0.55638  0.10629  0.41574  1.0000
  C   C520      1.0  0.55134  0.10390  0.38814  1.0000
  C   C521      1.0  0.56542  0.10754  0.36876  1.0000
  C   C522      1.0  0.58462  0.11339  0.37721  1.0000
  C   C523      1.0  0.58968  0.11600  0.40486  1.0000
  H   H803      1.0  0.54536  0.10342  0.43035  1.0000
  H   H804      1.0  0.53645  0.09931  0.38168  1.0000
  H   H805      1.0  0.59558  0.11627  0.36242  1.0000
  H   H806      1.0  0.60460  0.12072  0.41124  1.0000
  C   C524      1.0  0.54993  0.03414  0.44324  1.0000
  H   H807      1.0  0.37304  0.18670  0.47756  1.0000
  H   H808      1.0  0.38738  0.19880  0.37724  1.0000
  H   H809      1.0  0.51926  0.00746  0.32176  1.0000
  H   H810      1.0  0.33291  0.15996  0.00159  1.0000
  C   C525      1.0  0.54897  0.14727  0.40442  1.0000
  H   H811      1.0  0.64030  0.16036  0.17466  1.0000
  H   H812      1.0  0.37687  0.21968  0.15895  1.0000
  H   H813      1.0  0.58049  0.17875  0.41497  1.0000
  C   C526      1.0  0.37650  0.22634  0.13912  1.0000
  H   H814      1.0  0.54239  0.05060  0.00224  1.0000
  C   C527      1.0  0.40538  0.17632  0.36517  1.0000
  H   H815      1.0  0.32929  0.17130  0.26279  1.0000
  H   H816      1.0  0.52491  0.14594  0.44451  1.0000
  H   H817      1.0  0.49850  0.00995  0.30669  1.0000
  C   C528      1.0  0.49989  0.01748  0.49298  1.0000
  H   H818      1.0  0.40935  0.25207  0.09393  1.0000
  C   C529      1.0  0.50381  0.22831  0.15151  1.0000
  C   C530      1.0  0.40327  0.20611  0.37716  1.0000
  C   C531      1.0  0.63094  0.14059  0.22051  1.0000
  H   H819      1.0  0.46165  0.13463  0.04249  1.0000
  S   S214      1.0  0.49216  0.12169  0.04040  1.0000
  H   H820      1.0  0.62471  0.10898  0.19060  1.0000
  N   N49       1.0  0.41261  0.19285  0.38396  1.0000
  C   C532      1.0  0.52717  0.07618  0.16763  1.0000
  C   C533      1.0  0.53525  0.16030  0.43840  1.0000
  H   H821      1.0  0.51686  0.21734  0.09082  1.0000
  C   C534      1.0  0.48592  0.20233  0.12104  1.0000
  N   N50       1.0  0.55990  0.05482  0.44891  1.0000
  C   C535      1.0  0.54555  0.06326  0.45234  1.0000
  H   H822      1.0  0.58283  0.05163  0.47209  1.0000
  C   C536      1.0  0.57187  0.05786  0.47386  1.0000
  C   C537      1.0  0.57227  0.06408  0.42624  1.0000
  C   C538      1.0  0.49453  0.23502  0.10713  1.0000
  H   H823      1.0  0.34270  0.16219  0.03531  1.0000
  H   H824      1.0  0.34345  0.19531  0.25262  1.0000
  H   H825      1.0  0.38593  0.23400  0.08732  1.0000
  C   C539      1.0  0.63985  0.11788  0.19659  1.0000
  Fe  Fe106     1.0  0.55094  0.11941  0.99593  1.0000
  H   H826      1.0  0.63402  0.13520  0.24013  1.0000
  C   C540      1.0  0.63795  0.14500  0.17340  1.0000
  C   C541      1.0  0.50899  0.17954  0.04128  1.0000
  N   N51       1.0  0.55320  0.15950  0.42885  1.0000
  H   H827      1.0  0.54720  0.06422  0.13360  1.0000
  N   N52       1.0  0.50078  0.22196  0.12302  1.0000
  C   C542      1.0  0.34043  0.15500  0.47046  1.0000
  H   H828      1.0  0.64912  0.11562  0.18118  1.0000
  H   H829      1.0  0.40745  0.21817  0.39173  1.0000
  H   H830      1.0  0.53797  0.16983  0.45640  1.0000
  H   H831      1.0  0.36705  0.21485  0.12521  1.0000
  H   H832      1.0  0.49217  0.23074  0.08549  1.0000
  H   H833      1.0  0.57053  0.18846  0.44058  1.0000
  S   S215      1.0  0.52982  0.10317  0.48454  1.0000
  H   H834      1.0  0.53037  0.23677  0.11321  1.0000
  N   N53       1.0  0.64307  0.13826  0.19921  1.0000
  H   H835      1.0  0.52214  0.05183  0.12630  1.0000
  H   H836      1.0  0.64304  0.11219  0.21600  1.0000
  H   H837      1.0  0.49040  0.22845  0.16000  1.0000
  H   H838      1.0  0.41510  0.17623  0.41778  1.0000
  H   H839      1.0  0.53668  0.06191  0.43364  1.0000
  H   H840      1.0  0.48090  0.23518  0.11452  1.0000
  H   H841      1.0  0.62254  0.13690  0.16765  1.0000
  C   C543      1.0  0.43359  0.20279  0.38161  1.0000
  H   H842      1.0  0.56305  0.05119  0.49143  1.0000
  H   H843      1.0  0.44951  0.01053  0.02999  1.0000
  C   C544      1.0  0.40809  0.25070  0.14781  1.0000
  H   H844      1.0  0.57957  0.07338  0.47865  1.0000
  H   H845      1.0  0.51500  0.07537  0.15397  1.0000
  Fe  Fe107     1.0  0.51716  0.11355  0.03159  1.0000
  H   H846      1.0  0.34504  0.14451  0.48093  1.0000
  H   H847      1.0  0.40727  0.21241  0.35690  1.0000
  H   H848      1.0  0.40836  0.18095  0.34392  1.0000
  H   H849      1.0  0.49031  0.19205  0.13244  1.0000
  H   H850      1.0  0.41345  0.19837  0.42657  1.0000
  H   H851      1.0  0.39247  0.17862  0.41433  1.0000
  H   H852      1.0  0.34857  0.15927  0.45163  1.0000
  C   C545      1.0  0.40435  0.22150  0.12459  1.0000
  Fe  Fe108     1.0  0.56112  0.11064  0.49182  1.0000
  N   N54       1.0  0.52957  0.05783  0.16840  1.0000
  C   C546      1.0  0.51173  0.04264  0.17758  1.0000
  H   H853      1.0  0.52803  0.16569  0.42261  1.0000
  C   C547      1.0  0.54557  0.05951  0.18728  1.0000
  H   H854      1.0  0.33811  0.14081  0.01619  1.0000
  H   H855      1.0  0.49944  0.04045  0.16336  1.0000
  H   H856      1.0  0.50776  0.04624  0.19761  1.0000
  H   H857      1.0  0.51326  0.02873  0.17962  1.0000
  C   C548      1.0  0.49365  0.00804  0.23515  1.0000
  S   S216      1.0  0.43725  0.19903  0.01777  1.0000
  H   H858      1.0  0.40578  0.21469  0.14389  1.0000
  H   H859      1.0  0.55933  0.07056  0.18083  1.0000
  H   H860      1.0  0.54759  0.04582  0.18885  1.0000
  H   H861      1.0  0.54306  0.06351  0.20794  1.0000
  H   H862      1.0  0.52455  0.08060  0.18800  1.0000
  C   C549      1.0  0.56687  0.17895  0.42246  1.0000
  C   C550      1.0  0.53382  0.05302  0.14116  1.0000
  H   H863      1.0  0.52224  0.19208  0.04108  1.0000
  H   H864      1.0  0.61547  0.13259  0.21546  1.0000
  S   S217      1.0  0.34480  0.14785  0.34519  1.0000
  N   N55       1.0  0.39594  0.23582  0.12850  1.0000
  H   H865      1.0  0.56437  0.15984  0.46927  1.0000
  C   C551      1.0  0.43108  0.24447  0.42691  1.0000
  Fe  Fe109     1.0  0.41204  0.25165  0.30832  1.0000
  H   H866      1.0  0.63321  0.15582  0.22351  1.0000
  H   H867      1.0  0.54019  0.08783  0.16020  1.0000
  C   C552      1.0  0.44048  0.23847  0.44745  1.0000
  H   H868      1.0  0.41886  0.22810  0.11611  1.0000
  C   C553      1.0  0.40819  0.18619  0.41188  1.0000
  S   S218      1.0  0.55430  0.09299  0.01029  1.0000
  H   H869      1.0  0.54106  0.03140  0.42428  1.0000
  H   H870      1.0  0.58100  0.07941  0.43074  1.0000
  H   H871      1.0  0.53792  0.17170  0.99656  1.0000
  H   H872      1.0  0.43748  0.20904  0.36126  1.0000
  C   C554      1.0  0.46888  0.24880  0.42028  1.0000
  N   N56       1.0  0.34349  0.17174  0.48792  1.0000
  H   H873      1.0  0.64661  0.14324  0.15669  1.0000
  H   H874      1.0  0.47360  0.02803  0.02795  1.0000
  H   H875      1.0  0.53815  0.13268  0.40831  1.0000
  H   H876      1.0  0.53572  0.03925  0.14099  1.0000
  H   H877      1.0  0.33667  0.21564  0.30129  1.0000
  H   H878      1.0  0.33607  0.17177  0.11057  1.0000
  C   C555      1.0  0.33708  0.18516  0.47320  1.0000
  H   H879      1.0  0.48353  0.25035  0.41771  1.0000
  H   H880      1.0  0.44106  0.19300  0.38539  1.0000
  H   H881      1.0  0.65008  0.15031  0.28409  1.0000
  Fe  Fe110     1.0  0.44021  0.22964  0.01706  1.0000
  H   H882      1.0  0.33491  0.22202  0.26700  1.0000
  H   H883      1.0  0.48309  0.19715  0.09973  1.0000
  H   H884      1.0  0.55207  0.13656  0.45479  1.0000
  H   H885      1.0  0.50839  0.21872  0.16422  1.0000
  S   S219      1.0  0.49138  0.20487  0.04248  1.0000
  H   H886      1.0  0.52402  0.21247  0.12376  1.0000
  H   H887      1.0  0.57557  0.15105  0.44403  1.0000
  H   H888      1.0  0.54314  0.15323  0.38756  1.0000
  H   H889      1.0  0.56206  0.14569  0.39723  1.0000
  H   H890      1.0  0.58249  0.05727  0.42205  1.0000
  C   C556      1.0  0.33470  0.18659  0.26912  1.0000
  H   H891      1.0  0.55254  0.07866  0.45771  1.0000
  H   H892      1.0  0.49998  0.01839  0.01984  1.0000
  H   H893      1.0  0.33591  0.17968  0.36317  1.0000
  C   C557      1.0  0.46483  0.01304  0.03389  1.0000
  H   H894      1.0  0.39541  0.20994  0.11036  1.0000
  C   C558      1.0  0.49072  0.00336  0.02452  1.0000
  C   C559      1.0  0.52611  0.00963  0.23130  1.0000
  H   H895      1.0  0.51448  0.00402  0.28628  1.0000
  C   C560      1.0  0.33252  0.15199  0.02051  1.0000
  H   H896      1.0  0.34446  0.18838  0.28690  1.0000
  H   H897      1.0  0.41640  0.24284  0.42938  1.0000
  H   H898      1.0  0.53571  0.00300  0.22542  1.0000
  H   H899      1.0  0.50533  0.24998  0.10824  1.0000
  H   H900      1.0  0.51497  0.24305  0.15378  1.0000
  Fe  Fe111     1.0  0.52582  0.08243  0.51825  1.0000
  H   H901      1.0  0.53979  0.15061  0.63671  1.0000
  S   S220      1.0  0.56924  0.13723  0.96277  1.0000
  Fe  Fe112     1.0  0.55728  0.11044  0.55357  1.0000
  S   S221      1.0  0.52552  0.10316  0.55058  1.0000
  S   S222      1.0  0.57663  0.11464  0.59079  1.0000
  C   C561      1.0  0.33924  0.18404  0.84298  1.0000
  N   N57       1.0  0.56763  0.06112  0.90787  1.0000
  H   H902      1.0  0.36796  0.18485  0.88708  1.0000
  C   C562      1.0  0.40163  0.20602  0.67401  1.0000
  S   S223      1.0  0.55701  0.08834  0.52326  1.0000
  S   S224      1.0  0.56451  0.13345  0.52245  1.0000
  Fe  Fe113     1.0  0.57172  0.10184  0.81031  1.0000
  S   S225      1.0  0.58894  0.08381  0.80818  1.0000
  S   S226      1.0  0.55282  0.09831  0.84640  1.0000
  Fe  Fe114     1.0  0.57699  0.11136  0.74965  1.0000
  S   S227      1.0  0.59464  0.09387  0.74416  1.0000
  S   S228      1.0  0.56409  0.12304  0.71550  1.0000
  Fe  Fe115     1.0  0.57263  0.07197  0.76950  1.0000
  S   S229      1.0  0.55947  0.04006  0.75946  1.0000
  Fe  Fe116     1.0  0.60948  0.10764  0.78344  1.0000
  S   S230      1.0  0.64109  0.11483  0.79496  1.0000
  S   S231      1.0  0.55440  0.08870  0.77276  1.0000
  S   S232      1.0  0.59291  0.12654  0.78775  1.0000
  Fe  Fe117     1.0  0.40922  0.19097  0.55664  1.0000
  S   S233      1.0  0.41668  0.22159  0.54739  1.0000
  Fe  Fe118     1.0  0.43562  0.21782  0.51592  1.0000
  Fe  Fe119     1.0  0.45110  0.19550  0.55452  1.0000
  S   S234      1.0  0.46145  0.22706  0.54486  1.0000
  S   S235      1.0  0.46752  0.17734  0.56783  1.0000
  Fe  Fe120     1.0  0.44127  0.22793  0.57706  1.0000
  S   S236      1.0  0.51923  0.10509  0.98904  1.0000
  H   H903      1.0  0.32842  0.17968  0.75076  1.0000
  H   H904      1.0  0.49626  0.02086  0.94584  1.0000
  S   S237      1.0  0.43253  0.19726  0.58819  1.0000
  H   H905      1.0  0.52467  0.18675  0.96195  1.0000
  H   H906      1.0  0.46398  0.23889  0.95878  1.0000
  S   S238      1.0  0.37636  0.23551  0.81720  1.0000
  S   S239      1.0  0.42869  0.23694  0.80628  1.0000
  C   C563      1.0  0.34687  0.17128  0.83360  1.0000
  H   H907      1.0  0.58711  0.04907  0.92355  1.0000
  C   C564      1.0  0.34849  0.20369  0.83786  1.0000
  C   C565      1.0  0.36559  0.21079  0.82369  1.0000
  C   C566      1.0  0.37344  0.19808  0.81476  1.0000
  C   C567      1.0  0.36405  0.17839  0.81960  1.0000
  S   S240      1.0  0.37889  0.17033  0.56399  1.0000
  H   H908      1.0  0.38658  0.20337  0.80377  1.0000
  H   H909      1.0  0.37009  0.16860  0.81236  1.0000
  H   H910      1.0  0.38658  0.18331  0.86704  1.0000
  H   H911      1.0  0.50380  0.13567  0.98013  1.0000
  C   C568      1.0  0.52875  0.03450  0.51965  1.0000
  H   H912      1.0  0.55687  0.17484  0.64019  1.0000
  C   C569      1.0  0.56655  0.17933  0.58795  1.0000
  H   H913      1.0  0.34241  0.21346  0.84502  1.0000
  H   H914      1.0  0.53043  0.17526  0.57622  1.0000
  H   H915      1.0  0.36946  0.17162  0.50643  1.0000
  H   H916      1.0  0.51976  0.16164  0.60520  1.0000
  S   S241      1.0  0.50598  0.05165  0.98369  1.0000
  S   S242      1.0  0.52442  0.14949  0.50607  1.0000
  C   C570      1.0  0.36184  0.17955  0.57252  1.0000
  C   C571      1.0  0.34468  0.16732  0.58366  1.0000
  S   S243      1.0  0.50370  0.05249  0.51190  1.0000
  H   H917      1.0  0.33728  0.15574  0.52460  1.0000
  C   C572      1.0  0.35112  0.20563  0.57565  1.0000
  C   C573      1.0  0.36499  0.19871  0.56843  1.0000
  H   H918      1.0  0.54242  0.15281  0.92962  1.0000
  H   H919      1.0  0.35366  0.22048  0.57246  1.0000
  H   H920      1.0  0.37803  0.20825  0.55958  1.0000
  H   H921      1.0  0.39920  0.21876  0.86032  1.0000
  C   C574      1.0  0.53439  0.02769  0.75398  1.0000
  H   H922      1.0  0.53822  0.14861  0.99035  1.0000
  C   C575      1.0  0.57370  0.06533  0.68427  1.0000
  H   H923      1.0  0.57878  0.06298  0.86810  1.0000
  C   C576      1.0  0.50209  0.02699  0.75064  1.0000
  C   C577      1.0  0.52176  0.03685  0.75655  1.0000
  C   C578      1.0  0.33230  0.16534  0.51252  1.0000
  H   H924      1.0  0.49248  0.03429  0.75264  1.0000
  H   H925      1.0  0.52705  0.05156  0.76309  1.0000
  C   C579      1.0  0.50752  0.15611  0.52253  1.0000
  C   C580      1.0  0.49897  0.14731  0.54618  1.0000
  C   C581      1.0  0.48657  0.15387  0.55958  1.0000
  C   C582      1.0  0.48223  0.16895  0.54916  1.0000
  C   C583      1.0  0.49044  0.17744  0.52516  1.0000
  C   C584      1.0  0.45446  0.23386  0.68184  1.0000
  H   H926      1.0  0.50200  0.13557  0.55428  1.0000
  H   H927      1.0  0.48019  0.14718  0.57808  1.0000
  C   C585      1.0  0.54384  0.02599  0.98237  1.0000
  H   H928      1.0  0.54015  0.14916  0.56207  1.0000
  C   C586      1.0  0.57223  0.11604  0.62536  1.0000
  C   C587      1.0  0.58670  0.11717  0.64439  1.0000
  C   C588      1.0  0.58419  0.11883  0.67209  1.0000
  C   C589      1.0  0.56728  0.11975  0.68101  1.0000
  C   C590      1.0  0.55271  0.11847  0.66201  1.0000
  C   C591      1.0  0.55503  0.11632  0.63431  1.0000
  H   H929      1.0  0.60007  0.11697  0.63765  1.0000
  H   H930      1.0  0.59559  0.12000  0.68648  1.0000
  H   H931      1.0  0.53952  0.11901  0.66885  1.0000
  H   H932      1.0  0.54361  0.11502  0.61995  1.0000
  C   C592      1.0  0.56506  0.12641  0.93040  1.0000
  C   C593      1.0  0.57886  0.13343  0.91054  1.0000
  C   C594      1.0  0.57550  0.12502  0.88457  1.0000
  C   C595      1.0  0.55806  0.10991  0.87819  1.0000
  C   C596      1.0  0.54420  0.10318  0.89794  1.0000
  C   C597      1.0  0.54781  0.11110  0.92401  1.0000
  H   H933      1.0  0.59226  0.14529  0.91529  1.0000
  H   H934      1.0  0.58628  0.13033  0.86947  1.0000
  H   H935      1.0  0.53062  0.09158  0.89314  1.0000
  H   H936      1.0  0.53711  0.10539  0.93903  1.0000
  H   H937      1.0  0.57849  0.17426  0.58888  1.0000
  C   C598      1.0  0.51825  0.03723  0.97483  1.0000
  H   H938      1.0  0.59588  0.07718  0.89337  1.0000
  H   H939      1.0  0.54756  0.01959  0.52594  1.0000
  C   C599      1.0  0.54310  0.14706  0.58365  1.0000
  H   H940      1.0  0.39478  0.20750  0.60632  1.0000
  H   H941      1.0  0.41656  0.20672  0.67387  1.0000
  C   C600      1.0  0.54754  0.05436  0.89772  1.0000
  C   C601      1.0  0.37158  0.19771  0.64908  1.0000
  C   C602      1.0  0.55267  0.16161  0.62769  1.0000
  C   C603      1.0  0.53429  0.01902  0.51659  1.0000
  N   N58       1.0  0.55262  0.05871  0.68174  1.0000
  C   C604      1.0  0.54722  0.06460  0.65550  1.0000
  C   C605      1.0  0.54386  0.03766  0.68364  1.0000
  C   C606      1.0  0.54573  0.06728  0.70363  1.0000
  H   H942      1.0  0.55366  0.08039  0.65357  1.0000
  H   H943      1.0  0.53141  0.05995  0.65306  1.0000
  H   H944      1.0  0.55232  0.05859  0.63842  1.0000
  H   H945      1.0  0.54795  0.03070  0.66663  1.0000
  H   H946      1.0  0.54867  0.03277  0.70250  1.0000
  H   H947      1.0  0.52793  0.03219  0.68380  1.0000
  H   H948      1.0  0.55027  0.06383  0.72365  1.0000
  H   H949      1.0  0.52983  0.06212  0.70319  1.0000
  H   H950      1.0  0.55162  0.08310  0.70243  1.0000
  H   H951      1.0  0.52983  0.13592  0.59153  1.0000
  H   H952      1.0  0.57031  0.03475  0.89814  1.0000
  H   H953      1.0  0.53715  0.18570  0.60926  1.0000
  H   H954      1.0  0.51593  0.17494  0.93008  1.0000
  H   H955      1.0  0.49819  0.00695  0.54942  1.0000
  C   C607      1.0  0.50950  0.02231  0.95620  1.0000
  Fe  Fe121     1.0  0.53270  0.12472  0.51710  1.0000
  S   S244      1.0  0.44961  0.24090  0.73456  1.0000
  C   C608      1.0  0.51149  0.03373  0.50787  1.0000
  H   H956      1.0  0.56420  0.18220  0.56643  1.0000
  C   C609      1.0  0.44518  0.24803  0.64298  1.0000
  H   H957      1.0  0.37114  0.21183  0.65375  1.0000
  H   H958      1.0  0.56451  0.15645  0.62975  1.0000
  H   H959      1.0  0.33449  0.18829  0.78469  1.0000
  H   H960      1.0  0.52013  0.00374  0.82725  1.0000
  H   H961      1.0  0.45863  0.22795  0.64045  1.0000
  C   C610      1.0  0.33084  0.17424  0.59093  1.0000
  H   H962      1.0  0.56253  0.03601  0.93152  1.0000
  H   H963      1.0  0.55424  0.16883  0.97299  1.0000
  H   H964      1.0  0.53733  0.04658  0.91353  1.0000
  H   H965      1.0  0.48731  0.18913  0.51706  1.0000
  H   H966      1.0  0.54495  0.04459  0.88006  1.0000
  S   S245      1.0  0.43048  0.24289  0.98153  1.0000
  H   H967      1.0  0.39251  0.19606  0.93992  1.0000
  C   C611      1.0  0.45757  0.24507  0.94380  1.0000
  Fe  Fe122     1.0  0.40747  0.25072  0.80567  1.0000
  H   H968      1.0  0.53761  0.04681  0.53162  1.0000
  C   C612      1.0  0.52703  0.00839  0.74582  1.0000
  H   H969      1.0  0.40634  0.18075  0.63983  1.0000
  H   H970      1.0  0.38435  0.16953  0.65734  1.0000
  H   H971      1.0  0.40150  0.22703  0.63006  1.0000
  C   C613      1.0  0.57211  0.04453  0.91559  1.0000
  N   N59       1.0  0.54893  0.16508  0.59922  1.0000
  H   H972      1.0  0.36353  0.18748  0.66472  1.0000
  C   C614      1.0  0.58057  0.07190  0.88654  1.0000
  H   H973      1.0  0.57819  0.06087  0.70380  1.0000
  S   S246      1.0  0.42665  0.18637  0.52382  1.0000
  H   H974      1.0  0.58516  0.07879  0.94021  1.0000
  H   H975      1.0  0.47762  0.24624  0.91315  1.0000
  C   C615      1.0  0.51751  0.00893  0.95132  1.0000
  C   C616      1.0  0.57026  0.07368  0.93165  1.0000
  H   H976      1.0  0.58079  0.08118  0.68351  1.0000
  H   H977      1.0  0.34217  0.15249  0.58699  1.0000
  H   H978      1.0  0.39432  0.19648  0.69076  1.0000
  N   N60       1.0  0.52484  0.15866  0.95870  1.0000
  C   C617      1.0  0.50548  0.14916  0.96967  1.0000
  C   C618      1.0  0.52776  0.14632  0.93781  1.0000
  C   C619      1.0  0.53943  0.16217  0.98063  1.0000
  C   C620      1.0  0.52674  0.17706  0.94670  1.0000
  H   H979      1.0  0.56741  0.08654  0.92641  1.0000
  H   H980      1.0  0.49411  0.14550  0.95354  1.0000
  H   H981      1.0  0.36370  0.19271  0.62951  1.0000
  C   C621      1.0  0.44152  0.24882  0.95009  1.0000
  H   H982      1.0  0.57144  0.19315  0.59920  1.0000
  H   H983      1.0  0.56037  0.06616  0.94792  1.0000
  H   H984      1.0  0.33369  0.17764  0.52577  1.0000
  C   C622      1.0  0.44749  0.24392  0.69944  1.0000
  C   C623      1.0  0.53451  0.01052  0.96473  1.0000
  H   H985      1.0  0.55450  0.14125  0.58448  1.0000
  H   H986      1.0  0.51724  0.14354  0.92066  1.0000
  C   C624      1.0  0.49471  0.00775  0.74250  1.0000
  N   N61       1.0  0.39643  0.20464  0.89848  1.0000
  C   C625      1.0  0.41621  0.20546  0.89837  1.0000
  C   C626      1.0  0.39146  0.20727  0.92635  1.0000
  C   C627      1.0  0.38301  0.18588  0.88785  1.0000
  C   C628      1.0  0.39504  0.21996  0.88134  1.0000
  H   H987      1.0  0.42062  0.20394  0.87760  1.0000
  H   H988      1.0  0.41777  0.19400  0.91088  1.0000
  H   H989      1.0  0.42666  0.21930  0.90665  1.0000
  H   H990      1.0  0.37663  0.20675  0.92719  1.0000
  H   H991      1.0  0.64977  0.15056  0.76514  1.0000
  H   H992      1.0  0.40133  0.22128  0.93506  1.0000
  H   H993      1.0  0.54385  0.06648  0.89103  1.0000
  H   H994      1.0  0.38340  0.17396  0.90049  1.0000
  C   C629      1.0  0.50315  0.17114  0.51204  1.0000
  H   H995      1.0  0.38020  0.21951  0.88035  1.0000
  C   C630      1.0  0.53563  0.03926  0.98761  1.0000
  H   H996      1.0  0.40459  0.23433  0.88908  1.0000
  H   H997      1.0  0.50765  0.00424  0.79637  1.0000
  H   H998      1.0  0.54120  0.18457  0.93824  1.0000
  H   H999      1.0  0.57951  0.05942  0.66787  1.0000
  C   C631      1.0  0.39148  0.18008  0.64155  1.0000
  C   C632      1.0  0.40146  0.21257  0.62655  1.0000
  H   H1000     1.0  0.41663  0.21432  0.62566  1.0000
  H   H1001     1.0  0.40262  0.22065  0.67893  1.0000
  H   H1002     1.0  0.57765  0.08458  0.88033  1.0000
  H   H1003     1.0  0.46097  0.22456  0.68999  1.0000
  N   N62       1.0  0.39151  0.19908  0.64783  1.0000
  C   C633      1.0  0.53342  0.17225  0.59744  1.0000
  H   H1004     1.0  0.36683  0.19390  0.50906  1.0000
  C   C634      1.0  0.45313  0.23573  0.65375  1.0000
  H   H1005     1.0  0.38382  0.17435  0.62201  1.0000
  H   H1006     1.0  0.52622  0.13226  0.94610  1.0000
  H   H1007     1.0  0.49420  0.00991  0.58411  1.0000
  H   H1008     1.0  0.47474  0.01608  0.98299  1.0000
  C   C635      1.0  0.33395  0.19339  0.58682  1.0000
  C   C636      1.0  0.46525  0.24923  0.91794  1.0000
  S   S247      1.0  0.44374  0.25119  0.60778  1.0000
  H   H1009     1.0  0.55703  0.02729  0.99275  1.0000
  H   H1010     1.0  0.50250  0.15843  0.98467  1.0000
  S   S248      1.0  0.33541  0.14646  0.83895  1.0000
  H   H1011     1.0  0.49863  0.00846  0.82746  1.0000
  H   H1012     1.0  0.51423  0.00434  0.57476  1.0000
  C   C637      1.0  0.36408  0.18140  0.49550  1.0000
  Fe  Fe123     1.0  0.51720  0.46975  0.26118  1.0000
  S   S249      1.0  0.54809  0.48846  0.26805  1.0000
  S   S250      1.0  0.49810  0.48443  0.24569  1.0000
  Fe  Fe124     1.0  0.52358  0.43318  0.27609  1.0000
  S   S251      1.0  0.55504  0.45063  0.28502  1.0000
  S   S252      1.0  0.51816  0.40130  0.27546  1.0000
  Fe  Fe125     1.0  0.54558  0.47148  0.30594  1.0000
  S   S253      1.0  0.55626  0.49028  0.34351  1.0000
  Fe  Fe126     1.0  0.55395  0.46569  0.24639  1.0000
  S   S254      1.0  0.57640  0.47130  0.21451  1.0000
  S   S255      1.0  0.51415  0.45328  0.29978  1.0000
  S   S256      1.0  0.52311  0.44784  0.23675  1.0000
  H   H1013     1.0  0.51777  0.40769  0.21577  1.0000
  S   S257      1.0  0.57708  0.46709  0.45958  1.0000
  C   C638      1.0  0.32890  0.48692  0.33921  1.0000
  S   S258      1.0  0.55845  0.49003  0.09439  1.0000
  H   H1014     1.0  0.33503  0.47956  0.32520  1.0000
  S   S259      1.0  0.59728  0.49208  0.03607  1.0000
  H   H1015     1.0  0.54633  0.39063  0.17091  1.0000
  S   S260      1.0  0.42193  0.26745  0.26970  1.0000
  C   C639      1.0  0.52468  0.39864  0.20686  1.0000
  S   S261      1.0  0.43118  0.27636  0.33398  1.0000
  H   H1016     1.0  0.48887  0.33004  0.33319  1.0000
  H   H1017     1.0  0.60058  0.48429  0.16878  1.0000
  Fe  Fe127     1.0  0.44344  0.29113  0.29549  1.0000
  S   S262      1.0  0.44705  0.32245  0.29510  1.0000
  S   S263      1.0  0.46627  0.27917  0.29415  1.0000
  H   H1018     1.0  0.50219  0.49096  0.41967  1.0000
  H   H1019     1.0  0.55681  0.45439  0.36418  1.0000
  H   H1020     1.0  0.38847  0.25558  0.10455  1.0000
  H   H1021     1.0  0.46091  0.28020  0.15966  1.0000
  H   H1022     1.0  0.53925  0.41941  0.16276  1.0000
  C   C640      1.0  0.45741  0.26568  0.16617  1.0000
  H   H1023     1.0  0.55434  0.40749  0.24234  1.0000
  H   H1024     1.0  0.44782  0.31871  0.35483  1.0000
  Fe  Fe128     1.0  0.45271  0.26322  0.33147  1.0000
  H   H1025     1.0  0.65518  0.47431  0.49003  1.0000
  C   C641      1.0  0.35410  0.46489  0.45026  1.0000
  C   C642      1.0  0.64841  0.48485  0.48866  1.0000
  H   H1026     1.0  0.52295  0.38704  0.22152  1.0000
  H   H1027     1.0  0.38480  0.48084  0.45439  1.0000
  H   H1028     1.0  0.35500  0.45128  0.45415  1.0000
  C   C643      1.0  0.49809  0.37961  0.28096  1.0000
  C   C644      1.0  0.50025  0.36217  0.27794  1.0000
  C   C645      1.0  0.48480  0.34454  0.28193  1.0000
  C   C646      1.0  0.46697  0.34415  0.28913  1.0000
  C   C647      1.0  0.46483  0.36159  0.29223  1.0000
  C   C648      1.0  0.48026  0.37922  0.28814  1.0000
  H   H1029     1.0  0.51397  0.36228  0.27240  1.0000
  H   H1030     1.0  0.48667  0.33128  0.27930  1.0000
  H   H1031     1.0  0.45109  0.36147  0.29772  1.0000
  H   H1032     1.0  0.47833  0.39247  0.29051  1.0000
  C   C649      1.0  0.57140  0.47611  0.18093  1.0000
  C   C650      1.0  0.58621  0.48244  0.16238  1.0000
  C   C651      1.0  0.58260  0.48670  0.13565  1.0000
  C   C652      1.0  0.56405  0.48434  0.12723  1.0000
  C   C653      1.0  0.54924  0.47770  0.14570  1.0000
  C   C654      1.0  0.55290  0.47374  0.17243  1.0000
  H   H1033     1.0  0.65580  0.47451  0.43983  1.0000
  C   C655      1.0  0.64897  0.48504  0.44003  1.0000
  H   H1034     1.0  0.53484  0.47580  0.13933  1.0000
  H   H1035     1.0  0.54137  0.46893  0.18645  1.0000
  C   C656      1.0  0.56173  0.48324  0.37556  1.0000
  C   C657      1.0  0.56091  0.46484  0.38039  1.0000
  C   C658      1.0  0.56557  0.46001  0.40626  1.0000
  C   C659      1.0  0.57087  0.47345  0.42750  1.0000
  C   C660      1.0  0.57149  0.49178  0.42270  1.0000
  C   C661      1.0  0.45499  0.26138  0.19374  1.0000
  C   C662      1.0  0.37104  0.48163  0.45040  1.0000
  H   H1036     1.0  0.51640  0.39198  0.18812  1.0000
  Fe  Fe129     1.0  0.57713  0.50171  0.05810  1.0000
  H   H1037     1.0  0.55280  0.38570  0.20431  1.0000
  H   H1038     1.0  0.43263  0.25613  0.38701  1.0000
  H   H1039     1.0  0.54916  0.42806  0.23620  1.0000
  H   H1040     1.0  0.56915  0.40551  0.18602  1.0000
  C   C663      1.0  0.62802  0.49661  0.46292  1.0000
  H   H1041     1.0  0.56501  0.44579  0.40982  1.0000
  C   C664      1.0  0.55536  0.41855  0.22710  1.0000
  C   C665      1.0  0.55373  0.39737  0.19018  1.0000
  H   H1042     1.0  0.56191  0.43433  0.17835  1.0000
  H   H1043     1.0  0.45677  0.27255  0.20833  1.0000
  H   H1044     1.0  0.54020  0.43492  0.19041  1.0000
  H   H1045     1.0  0.49316  0.31150  0.35134  1.0000
  N   N63       1.0  0.54510  0.40994  0.20161  1.0000
  H   H1046     1.0  0.47025  0.30686  0.33552  1.0000
  H   H1047     1.0  0.57078  0.42743  0.22398  1.0000
  C   C666      1.0  0.54667  0.42526  0.18237  1.0000
  N   N64       1.0  0.47580  0.32361  0.37177  1.0000
  C   C667      1.0  0.46846  0.30715  0.39007  1.0000
  C   C668      1.0  0.49202  0.33929  0.38515  1.0000
  C   C669      1.0  0.46037  0.33025  0.36481  1.0000
  C   C670      1.0  0.48239  0.31777  0.34692  1.0000
  H   H1048     1.0  0.45631  0.29500  0.38051  1.0000
  H   H1049     1.0  0.46329  0.31094  0.40905  1.0000
  H   H1050     1.0  0.47968  0.30163  0.39552  1.0000
  H   H1051     1.0  0.49779  0.35197  0.37188  1.0000
  H   H1052     1.0  0.48761  0.34400  0.40409  1.0000
  H   H1053     1.0  0.50399  0.33479  0.39036  1.0000
  H   H1054     1.0  0.46529  0.34234  0.35042  1.0000
  H   H1055     1.0  0.45517  0.33507  0.38295  1.0000
  C   C671      1.0  0.56707  0.49666  0.39681  1.0000
  N   N65       1.0  0.63672  0.48234  0.46353  1.0000
  H   H1056     1.0  0.52610  0.49316  0.38474  1.0000
  H   H1057     1.0  0.53987  0.50250  0.18062  1.0000
  S   S264      1.0  0.47467  0.50131  0.47547  1.0000
  H   H1058     1.0  0.33427  0.47089  0.38500  1.0000
  H   H1059     1.0  0.61893  0.49518  0.44437  1.0000
  C   C672      1.0  0.33608  0.46561  0.44498  1.0000
  C   C673      1.0  0.33513  0.48330  0.44002  1.0000
  S   S265      1.0  0.55926  0.49943  0.02030  1.0000
  C   C674      1.0  0.35208  0.50003  0.44008  1.0000
  H   H1060     1.0  0.61863  0.49469  0.48027  1.0000
  H   H1061     1.0  0.45151  0.49714  0.27756  1.0000
  H   H1062     1.0  0.64049  0.48329  0.42082  1.0000
  H   H1063     1.0  0.59412  0.49179  0.12161  1.0000
  H   H1064     1.0  0.61179  0.46057  0.48003  1.0000
  Fe  Fe130     1.0  0.44400  0.25447  0.27100  1.0000
  H   H1065     1.0  0.50596  0.48928  0.47188  1.0000
  S   S266      1.0  0.47055  0.26224  0.36851  1.0000
  H   H1066     1.0  0.61202  0.46071  0.44410  1.0000
  H   H1067     1.0  0.62728  0.45171  0.46296  1.0000
  H   H1068     1.0  0.49793  0.50144  0.01288  1.0000
  C   C675      1.0  0.62136  0.46295  0.46259  1.0000
  H   H1069     1.0  0.34092  0.49682  0.35217  1.0000
  H   H1070     1.0  0.48866  0.49787  0.39466  1.0000
  H   H1071     1.0  0.40154  0.26103  0.15262  1.0000
  H   H1072     1.0  0.51267  0.50056  0.36024  1.0000
  Fe  Fe131     1.0  0.58125  0.49323  0.99777  1.0000
  C   C676      1.0  0.37015  0.49932  0.44521  1.0000
  H   H1073     1.0  0.63949  0.49185  0.99539  1.0000
  H   H1074     1.0  0.65999  0.49944  0.49018  1.0000
  H   H1075     1.0  0.42237  0.25907  0.13943  1.0000
  S   S267      1.0  0.45722  0.25724  0.11241  1.0000
  H   H1076     1.0  0.57557  0.50226  0.43884  1.0000
  C   C677      1.0  0.45915  0.25404  0.39930  1.0000
  H   H1077     1.0  0.32763  0.45319  0.35859  1.0000
  Fe  Fe132     1.0  0.58334  0.48813  0.49439  1.0000
  Fe  Fe133     1.0  0.52259  0.46449  0.76293  1.0000
  S   S268      1.0  0.55362  0.48285  0.76789  1.0000
  S   S269      1.0  0.50369  0.47961  0.74810  1.0000
  Fe  Fe134     1.0  0.52887  0.42825  0.77823  1.0000
  S   S270      1.0  0.56085  0.44522  0.78414  1.0000
  S   S271      1.0  0.52085  0.39617  0.78526  1.0000
  Fe  Fe135     1.0  0.55273  0.46670  0.80598  1.0000
  S   S272      1.0  0.56737  0.48726  0.84077  1.0000
  Fe  Fe136     1.0  0.55854  0.45982  0.74552  1.0000
  S   S273      1.0  0.58117  0.46938  0.71335  1.0000
  S   S274      1.0  0.52100  0.44926  0.80237  1.0000
  S   S275      1.0  0.52730  0.44188  0.73825  1.0000
  H   H1078     1.0  0.33625  0.49252  0.85297  1.0000
  S   S276      1.0  0.57298  0.47007  0.96540  1.0000
  Fe  Fe137     1.0  0.44777  0.26292  0.82987  1.0000
  C   C678      1.0  0.51694  0.46081  0.94931  1.0000
  C   C679      1.0  0.52209  0.48117  0.91053  1.0000
  S   S277      1.0  0.59970  0.48515  0.53128  1.0000
  H   H1079     1.0  0.53095  0.45952  0.94701  1.0000
  S   S278      1.0  0.41772  0.26653  0.76697  1.0000
  C   C680      1.0  0.33153  0.47016  0.94076  1.0000
  S   S279      1.0  0.42587  0.27581  0.83159  1.0000
  C   C681      1.0  0.46965  0.30583  0.68219  1.0000
  H   H1080     1.0  0.55735  0.45138  0.87018  1.0000
  Fe  Fe138     1.0  0.43845  0.29039  0.79312  1.0000
  S   S280      1.0  0.44311  0.32138  0.78495  1.0000
  S   S281      1.0  0.46170  0.27919  0.79309  1.0000
  C   C682      1.0  0.43906  0.25585  0.68867  1.0000
  H   H1081     1.0  0.46989  0.33835  0.72937  1.0000
  N   N66       1.0  0.51770  0.49686  0.57160  1.0000
  C   C683      1.0  0.43340  0.25692  0.93047  1.0000
  C   C684      1.0  0.46761  0.31318  0.85753  1.0000
  H   H1082     1.0  0.45847  0.31819  0.86994  1.0000
  H   H1083     1.0  0.52700  0.47527  0.55752  1.0000
  C   C685      1.0  0.44089  0.26080  0.90457  1.0000
  H   H1084     1.0  0.38044  0.48488  0.93884  1.0000
  C   C686      1.0  0.36671  0.48577  0.94148  1.0000
  C   C687      1.0  0.34958  0.46943  0.93724  1.0000
  C   C688      1.0  0.62902  0.49209  0.97937  1.0000
  H   H1085     1.0  0.52972  0.49392  0.97664  1.0000
  H   H1086     1.0  0.50275  0.33135  0.70342  1.0000
  H   H1087     1.0  0.35035  0.45607  0.93134  1.0000
  C   C689      1.0  0.49897  0.37565  0.78468  1.0000
  C   C690      1.0  0.49966  0.35754  0.78786  1.0000
  C   C691      1.0  0.48274  0.34081  0.78805  1.0000
  C   C692      1.0  0.46486  0.34202  0.78525  1.0000
  C   C693      1.0  0.46415  0.36007  0.78180  1.0000
  C   C694      1.0  0.48109  0.37681  0.78152  1.0000
  H   H1088     1.0  0.51345  0.35651  0.79013  1.0000
  H   H1089     1.0  0.48352  0.32702  0.79015  1.0000
  H   H1090     1.0  0.45040  0.36116  0.77942  1.0000
  H   H1091     1.0  0.48031  0.39061  0.77903  1.0000
  C   C695      1.0  0.57510  0.47028  0.67879  1.0000
  C   C696      1.0  0.58976  0.47858  0.66038  1.0000
  C   C697      1.0  0.58539  0.48084  0.63315  1.0000
  C   C698      1.0  0.56627  0.47448  0.62404  1.0000
  C   C699      1.0  0.55164  0.46595  0.64237  1.0000
  C   C700      1.0  0.55601  0.46391  0.66959  1.0000
  H   H1092     1.0  0.43173  0.26741  0.65230  1.0000
  H   H1093     1.0  0.64114  0.47722  0.93838  1.0000
  H   H1094     1.0  0.53682  0.46078  0.63547  1.0000
  H   H1095     1.0  0.54459  0.45738  0.68346  1.0000
  C   C701      1.0  0.56853  0.48191  0.87523  1.0000
  S   S282      1.0  0.56093  0.49184  0.51913  1.0000
  H   H1096     1.0  0.63954  0.48314  0.50676  1.0000
  C   C702      1.0  0.57127  0.47496  0.93081  1.0000
  C   C703      1.0  0.56425  0.45974  0.91212  1.0000
  C   C704      1.0  0.56274  0.46318  0.88444  1.0000
  N   N67       1.0  0.47286  0.31462  0.70939  1.0000
  Fe  Fe139     1.0  0.57899  0.49230  0.55594  1.0000
  H   H1097     1.0  0.55998  0.44522  0.91905  1.0000
  H   H1098     1.0  0.46330  0.30657  0.74944  1.0000
  C   C705      1.0  0.57671  0.49365  0.92161  1.0000
  H   H1099     1.0  0.49398  0.29859  0.84981  1.0000
  C   C706      1.0  0.48910  0.31523  0.89516  1.0000
  C   C707      1.0  0.43813  0.25806  0.66055  1.0000
  C   C708      1.0  0.49517  0.34245  0.86622  1.0000
  H   H1100     1.0  0.53594  0.47990  0.90698  1.0000
  H   H1101     1.0  0.44537  0.29596  0.72363  1.0000
  H   H1102     1.0  0.61404  0.48741  0.92930  1.0000
  H   H1103     1.0  0.49897  0.49454  0.93603  1.0000
  H   H1104     1.0  0.49769  0.30842  0.71842  1.0000
  S   S283      1.0  0.55975  0.47688  0.59017  1.0000
  C   C709      1.0  0.49890  0.48064  0.94314  1.0000
  H   H1105     1.0  0.45436  0.30100  0.67537  1.0000
  H   H1106     1.0  0.51465  0.32017  0.85670  1.0000
  H   H1107     1.0  0.50187  0.46967  0.55229  1.0000
  C   C710      1.0  0.49328  0.32076  0.71765  1.0000
  H   H1108     1.0  0.52527  0.48321  0.60524  1.0000
  H   H1109     1.0  0.48378  0.29936  0.89640  1.0000
  H   H1110     1.0  0.51050  0.34915  0.87302  1.0000
  H   H1111     1.0  0.42109  0.26002  0.93530  1.0000
  H   H1112     1.0  0.61906  0.47710  0.97464  1.0000
  C   C711      1.0  0.57555  0.49710  0.89395  1.0000
  H   H1113     1.0  0.45217  0.32725  0.70336  1.0000
  C   C712      1.0  0.33081  0.48755  0.94840  1.0000
  H   H1114     1.0  0.46165  0.29734  0.85851  1.0000
  H   H1115     1.0  0.46599  0.31715  0.83630  1.0000
  H   H1116     1.0  0.43439  0.26691  0.88965  1.0000
  C   C713      1.0  0.49934  0.31448  0.84979  1.0000
  N   N68       1.0  0.51764  0.47939  0.93942  1.0000
  H   H1117     1.0  0.47845  0.31604  0.66703  1.0000
  H   H1118     1.0  0.49621  0.32764  0.73800  1.0000
  H   H1119     1.0  0.59678  0.48731  0.61920  1.0000
  H   H1120     1.0  0.50584  0.44867  0.93809  1.0000
  H   H1121     1.0  0.48688  0.34812  0.87928  1.0000
  H   H1122     1.0  0.60457  0.48349  0.66730  1.0000
  H   H1123     1.0  0.47342  0.29308  0.68174  1.0000
  H   H1124     1.0  0.46419  0.28743  0.72909  1.0000
  C   C714      1.0  0.46757  0.33137  0.70913  1.0000
  H   H1125     1.0  0.50414  0.32120  0.90325  1.0000
  H   H1126     1.0  0.47626  0.34236  0.69475  1.0000
  H   H1127     1.0  0.48033  0.31987  0.90882  1.0000
  H   H1128     1.0  0.51366  0.45904  0.97109  1.0000
  H   H1129     1.0  0.49881  0.31891  0.82857  1.0000
  C   C715      1.0  0.46092  0.30049  0.72869  1.0000
  H   H1130     1.0  0.49412  0.34749  0.84541  1.0000
  N   N69       1.0  0.48783  0.32137  0.86718  1.0000
  C   C716      1.0  0.53268  0.49496  0.95480  1.0000
  H   H1131     1.0  0.54700  0.49442  0.95273  1.0000
  H   H1132     1.0  0.51896  0.48694  0.53148  1.0000
  H   H1133     1.0  0.48713  0.46911  0.93190  1.0000
  H   H1134     1.0  0.52325  0.49523  0.90257  1.0000
  H   H1135     1.0  0.49510  0.47947  0.96475  1.0000
  C   C717      1.0  0.51630  0.48150  0.55239  1.0000
  H   H1136     1.0  0.32850  0.48530  0.50103  1.0000
  H   H1137     1.0  0.43325  0.26332  0.70197  1.0000
  Fe  Fe140     1.0  0.44033  0.25442  0.76927  1.0000
  H   H1138     1.0  0.51090  0.46980  0.89821  1.0000
  H   H1139     1.0  0.55821  0.49153  0.70917  1.0000
  H   H1140     1.0  0.62035  0.49930  0.98825  1.0000
  C   C718      1.0  0.32718  0.49258  0.87014  1.0000
  H   H1141     1.0  0.33235  0.48680  0.88792  1.0000
  S   S284      1.0  0.46630  0.26132  0.86564  1.0000
  C   C719      1.0  0.65029  0.49227  0.94412  1.0000
  H   H1142     1.0  0.50004  0.47724  0.60047  1.0000
  C   C720      1.0  0.51441  0.48906  0.59910  1.0000
  C   C721      1.0  0.45673  0.25680  0.89812  1.0000
  H   H1143     1.0  0.48836  0.49327  0.56442  1.0000
  N   N70       1.0  0.63874  0.50216  0.95516  1.0000
  H   H1144     1.0  0.65784  0.49951  0.92583  1.0000
  C   C722      1.0  0.62421  0.50220  0.93473  1.0000
  H   H1145     1.0  0.32767  0.50093  0.52762  1.0000
  H   H1146     1.0  0.54878  0.49965  0.68053  1.0000
  H   H1147     1.0  0.51533  0.50024  0.61413  1.0000
  Fe  Fe141     1.0  0.51970  0.58988  0.21860  1.0000
  S   S285      1.0  0.48861  0.57149  0.21557  1.0000
  S   S286      1.0  0.53869  0.57431  0.23071  1.0000
  Fe  Fe142     1.0  0.51304  0.62614  0.20556  1.0000
  S   S287      1.0  0.48090  0.60924  0.20179  1.0000
  S   S288      1.0  0.52143  0.65829  0.19835  1.0000
  Fe  Fe143     1.0  0.48453  0.59435  0.23948  1.0000
  S   S289      1.0  0.46268  0.58476  0.27271  1.0000
  Fe  Fe144     1.0  0.48801  0.58780  0.17816  1.0000
  S   S290      1.0  0.47163  0.56716  0.14419  1.0000
  S   S291      1.0  0.51595  0.61231  0.24485  1.0000
  S   S292      1.0  0.51981  0.60517  0.17966  1.0000
  C   C723      1.0  0.53447  0.57238  0.03466  1.0000
  S   S293      1.0  0.59530  0.53302  0.05344  1.0000
  H   H1148     1.0  0.52896  0.60646  0.43846  1.0000
  H   H1149     1.0  0.58073  0.71930  0.10513  1.0000
  H   H1150     1.0  0.40150  0.58528  0.04805  1.0000
  S   S294      1.0  0.64673  0.52894  0.03109  1.0000
  Fe  Fe145     1.0  0.42307  0.52814  0.45256  1.0000
  S   S295      1.0  0.44065  0.55982  0.44807  1.0000
  S   S296      1.0  0.39098  0.52089  0.44451  1.0000
  Fe  Fe146     1.0  0.45897  0.52069  0.46658  1.0000
  S   S297      1.0  0.47808  0.55130  0.46277  1.0000
  H   H1151     1.0  0.54156  0.72227  0.10892  1.0000
  H   H1152     1.0  0.54581  0.54889  0.26807  1.0000
  S   S298      1.0  0.46099  0.58351  0.02036  1.0000
  Fe  Fe147     1.0  0.46109  0.55110  0.42513  1.0000
  S   S299      1.0  0.48204  0.56585  0.39224  1.0000
  C   C724      1.0  0.37849  0.55165  0.02496  1.0000
  S   S300      1.0  0.44294  0.51969  0.42725  1.0000
  S   S301      1.0  0.59980  0.73259  0.20094  1.0000
  H   H1153     1.0  0.44381  0.51449  0.24004  1.0000
  H   H1154     1.0  0.53486  0.55857  0.04136  1.0000
  C   C725      1.0  0.55359  0.73043  0.12316  1.0000
  H   H1155     1.0  0.49898  0.57316  0.07418  1.0000
  C   C726      1.0  0.51580  0.59167  0.02998  1.0000
  H   H1156     1.0  0.54867  0.73949  0.13606  1.0000
  H   H1157     1.0  0.37282  0.54164  0.00741  1.0000
  H   H1158     1.0  0.53842  0.73960  0.30134  1.0000
  C   C727      1.0  0.52391  0.50581  0.37655  1.0000
  H   H1159     1.0  0.57771  0.52697  0.20889  1.0000
  C   C728      1.0  0.40684  0.57361  0.04889  1.0000
  C   C729      1.0  0.57675  0.74806  0.26198  1.0000
  N   N71       1.0  0.55946  0.53188  0.17844  1.0000
  C   C730      1.0  0.54207  0.51677  0.18889  1.0000
  C   C731      1.0  0.54346  0.67869  0.19944  1.0000
  C   C732      1.0  0.54319  0.69676  0.19397  1.0000
  C   C733      1.0  0.56025  0.71339  0.19444  1.0000
  C   C734      1.0  0.57784  0.71215  0.20040  1.0000
  C   C735      1.0  0.57814  0.69413  0.20583  1.0000
  C   C736      1.0  0.56107  0.67750  0.20544  1.0000
  H   H1160     1.0  0.52963  0.69781  0.18920  1.0000
  H   H1161     1.0  0.55982  0.72710  0.18988  1.0000
  H   H1162     1.0  0.59168  0.69298  0.21036  1.0000
  H   H1163     1.0  0.56154  0.66374  0.20965  1.0000
  C   C737      1.0  0.46869  0.57217  0.10998  1.0000
  C   C738      1.0  0.47468  0.59084  0.10045  1.0000
  C   C739      1.0  0.47200  0.59406  0.07299  1.0000
  C   C740      1.0  0.46362  0.57869  0.05477  1.0000
  C   C741      1.0  0.45773  0.56003  0.06426  1.0000
  C   C742      1.0  0.46014  0.55681  0.09176  1.0000
  H   H1164     1.0  0.48121  0.60276  0.11430  1.0000
  H   H1165     1.0  0.47656  0.60855  0.06583  1.0000
  H   H1166     1.0  0.45136  0.54805  0.05049  1.0000
  H   H1167     1.0  0.45548  0.54233  0.09900  1.0000
  C   C743      1.0  0.46843  0.58051  0.30629  1.0000
  C   C744      1.0  0.48723  0.58394  0.31477  1.0000
  C   C745      1.0  0.49111  0.57939  0.34116  1.0000
  C   C746      1.0  0.47626  0.57134  0.35935  1.0000
  C   C747      1.0  0.45746  0.56795  0.35094  1.0000
  C   C748      1.0  0.45360  0.57261  0.32456  1.0000
  H   H1168     1.0  0.49879  0.59007  0.30096  1.0000
  H   H1169     1.0  0.50571  0.58213  0.34749  1.0000
  H   H1170     1.0  0.44591  0.56186  0.36477  1.0000
  H   H1171     1.0  0.43901  0.56996  0.31821  1.0000
  C   C749      1.0  0.52681  0.54945  0.23536  1.0000
  C   C750      1.0  0.51107  0.53837  0.21889  1.0000
  H   H1172     1.0  0.46988  0.50994  0.30225  1.0000
  C   C751      1.0  0.56143  0.55058  0.18961  1.0000
  C   C752      1.0  0.52660  0.52237  0.00746  1.0000
  C   C753      1.0  0.53368  0.54045  0.25522  1.0000
  H   H1173     1.0  0.50598  0.54503  0.20297  1.0000
  H   H1174     1.0  0.37302  0.54331  0.04350  1.0000
  C   C754      1.0  0.48527  0.60480  0.45553  1.0000
  H   H1175     1.0  0.43467  0.51811  0.28766  1.0000
  N   N72       1.0  0.39966  0.56048  0.02549  1.0000
  H   H1176     1.0  0.50432  0.58942  0.48775  1.0000
  C   C755      1.0  0.40720  0.54534  0.02757  1.0000
  C   C756      1.0  0.54451  0.74320  0.24780  1.0000
  H   H1177     1.0  0.51774  0.59287  0.00782  1.0000
  H   H1178     1.0  0.50909  0.60532  0.41676  1.0000
  C   C757      1.0  0.57729  0.72961  0.09230  1.0000
  N   N73       1.0  0.57099  0.74215  0.10870  1.0000
  C   C758      1.0  0.50923  0.50948  0.24215  1.0000
  H   H1179     1.0  0.52430  0.58408  0.08057  1.0000
  C   C759      1.0  0.51157  0.50351  0.48059  1.0000
  H   H1180     1.0  0.54872  0.55389  0.18422  1.0000
  H   H1181     1.0  0.50226  0.55780  0.00415  1.0000
  H   H1182     1.0  0.53528  0.71060  0.27537  1.0000
  C   C760      1.0  0.51114  0.60519  0.48527  1.0000
  H   H1183     1.0  0.40200  0.53509  0.01029  1.0000
  H   H1184     1.0  0.51179  0.54106  0.40162  1.0000
  N   N74       1.0  0.51584  0.57342  0.04009  1.0000
  H   H1185     1.0  0.54516  0.53505  0.14190  1.0000
  H   H1186     1.0  0.53741  0.57360  0.01276  1.0000
  C   C761      1.0  0.52479  0.52060  0.25882  1.0000
  H   H1187     1.0  0.54618  0.73756  0.22782  1.0000
  H   H1188     1.0  0.59039  0.73806  0.08111  1.0000
  C   C762      1.0  0.50027  0.55738  0.02623  1.0000
  H   H1189     1.0  0.58979  0.74314  0.14254  1.0000
  C   C763      1.0  0.55068  0.71805  0.27062  1.0000
  C   C764      1.0  0.51312  0.60187  0.43723  1.0000
  C   C765      1.0  0.51549  0.63194  0.45623  1.0000
  H   H1190     1.0  0.40235  0.56597  0.06821  1.0000
  H   H1191     1.0  0.35126  0.51367  0.43608  1.0000
  H   H1192     1.0  0.40273  0.53701  0.04635  1.0000
  N   N75       1.0  0.50627  0.61095  0.45857  1.0000
  C   C766      1.0  0.40620  0.57123  0.00043  1.0000
  C   C767      1.0  0.53407  0.52289  0.41884  1.0000
  H   H1193     1.0  0.51244  0.55850  0.07762  1.0000
  H   H1194     1.0  0.45311  0.53210  0.31162  1.0000
  C   C768      1.0  0.45750  0.52687  0.24453  1.0000
  H   H1195     1.0  0.46854  0.52562  0.23129  1.0000
  H   H1196     1.0  0.58991  0.53937  0.17969  1.0000
  H   H1197     1.0  0.37224  0.56262  0.02327  1.0000
  H   H1198     1.0  0.49353  0.54206  0.26650  1.0000
  Fe  Fe148     1.0  0.61473  0.52343  0.02884  1.0000
  H   H1199     1.0  0.55288  0.71188  0.25128  1.0000
  H   H1200     1.0  0.54791  0.53260  0.41045  1.0000
  C   C769      1.0  0.50059  0.50345  0.40996  1.0000
  C   C770      1.0  0.46527  0.50970  0.28076  1.0000
  H   H1201     1.0  0.49968  0.54331  0.03338  1.0000
  C   C771      1.0  0.51589  0.53290  0.38607  1.0000
  H   H1202     1.0  0.50428  0.52843  0.37020  1.0000
  H   H1203     1.0  0.57079  0.54328  0.14008  1.0000
  C   C772      1.0  0.44874  0.53038  0.28987  1.0000
  H   H1204     1.0  0.56275  0.55089  0.21201  1.0000
  H   H1205     1.0  0.55623  0.51820  0.13962  1.0000
  H   H1206     1.0  0.65493  0.57010  0.02985  1.0000
  H   H1207     1.0  0.52920  0.54292  0.37675  1.0000
  C   C773      1.0  0.55785  0.53215  0.14872  1.0000
  H   H1208     1.0  0.48653  0.54550  0.29962  1.0000
  H   H1209     1.0  0.48128  0.55756  0.27149  1.0000
  N   N76       1.0  0.51862  0.51627  0.39784  1.0000
  C   C774      1.0  0.50225  0.51849  0.22241  1.0000
  H   H1210     1.0  0.49026  0.51000  0.20936  1.0000
  H   H1211     1.0  0.57568  0.51427  0.17785  1.0000
  C   C775      1.0  0.49922  0.51289  0.48473  1.0000
  H   H1212     1.0  0.52899  0.51939  0.18349  1.0000
  H   H1213     1.0  0.51050  0.63917  0.47200  1.0000
  S   S302      1.0  0.60049  0.51945  0.48961  1.0000
  H   H1214     1.0  0.47609  0.50717  0.26842  1.0000
  H   H1215     1.0  0.56598  0.72121  0.07723  1.0000
  H   H1216     1.0  0.50670  0.58603  0.43876  1.0000
  C   C776      1.0  0.51280  0.57223  0.06940  1.0000
  C   C777      1.0  0.48199  0.54387  0.27796  1.0000
  N   N77       1.0  0.46338  0.52769  0.27329  1.0000
  H   H1217     1.0  0.53055  0.53076  0.43534  1.0000
  C   C778      1.0  0.55353  0.74658  0.29504  1.0000
  H   H1218     1.0  0.50198  0.59296  0.03387  1.0000
  H   H1219     1.0  0.52742  0.60414  0.03983  1.0000
  H   H1220     1.0  0.56793  0.51098  0.39318  1.0000
  H   H1221     1.0  0.57942  0.74254  0.24245  1.0000
  H   H1222     1.0  0.57429  0.56242  0.18208  1.0000
  S   S303      1.0  0.56324  0.54909  0.99955  1.0000
  H   H1223     1.0  0.45537  0.54003  0.23852  1.0000
  Fe  Fe149     1.0  0.57807  0.53007  0.01461  1.0000
  H   H1224     1.0  0.42283  0.58042  0.04962  1.0000
  H   H1225     1.0  0.51208  0.63670  0.43626  1.0000
  H   H1226     1.0  0.52902  0.73670  0.25243  1.0000
  H   H1227     1.0  0.48094  0.60861  0.43550  1.0000
  H   H1228     1.0  0.55527  0.74827  0.07577  1.0000
  H   H1229     1.0  0.54656  0.58405  0.04517  1.0000
  H   H1230     1.0  0.53268  0.51732  0.02417  1.0000
  H   H1231     1.0  0.49598  0.51101  0.42572  1.0000
  N   N78       1.0  0.55635  0.73895  0.26888  1.0000
  H   H1232     1.0  0.40078  0.58278  0.99810  1.0000
  H   H1233     1.0  0.52987  0.51399  0.27478  1.0000
  H   H1234     1.0  0.48603  0.55788  0.02945  1.0000
  H   H1235     1.0  0.54294  0.51588  0.21122  1.0000
  Fe  Fe150     1.0  0.45630  0.55727  0.48612  1.0000
  H   H1236     1.0  0.44643  0.54342  0.28381  1.0000
  H   H1237     1.0  0.53136  0.63712  0.45851  1.0000
  H   H1238     1.0  0.55625  0.71990  0.13650  1.0000
  C   C779      1.0  0.57645  0.52799  0.18660  1.0000
  H   H1239     1.0  0.47949  0.61119  0.47143  1.0000
  H   H1240     1.0  0.47794  0.58910  0.45742  1.0000
  H   H1241     1.0  0.42312  0.55152  0.02770  1.0000
  H   H1242     1.0  0.63905  0.51148  0.46423  1.0000
  H   H1243     1.0  0.42214  0.57804  0.00009  1.0000
  H   H1244     1.0  0.52686  0.60960  0.48841  1.0000
  H   H1245     1.0  0.55927  0.71436  0.28647  1.0000
  C   C780      1.0  0.50686  0.51351  0.00124  1.0000
  S   S304      1.0  0.43766  0.52635  0.49232  1.0000
  C   C781      1.0  0.53123  0.51257  0.48729  1.0000
  H   H1246     1.0  0.54066  0.50544  0.48308  1.0000
  H   H1247     1.0  0.56286  0.74441  0.31131  1.0000
  H   H1248     1.0  0.53654  0.51068  0.42810  1.0000
  H   H1249     1.0  0.53753  0.51498  0.36702  1.0000
  H   H1250     1.0  0.58622  0.74535  0.27749  1.0000
  Fe  Fe151     1.0  0.52172  0.58589  0.72306  1.0000
  S   S305      1.0  0.49102  0.56813  0.71412  1.0000
  S   S306      1.0  0.53989  0.57027  0.73927  1.0000
  Fe  Fe152     1.0  0.51655  0.62290  0.70996  1.0000
  S   S307      1.0  0.48489  0.60669  0.70016  1.0000
  S   S308      1.0  0.52488  0.65532  0.70686  1.0000
  Fe  Fe153     1.0  0.48460  0.58982  0.73740  1.0000
  S   S309      1.0  0.45890  0.57586  0.76391  1.0000
  Fe  Fe154     1.0  0.49370  0.58610  0.67743  1.0000
  S   S310      1.0  0.47760  0.56641  0.64227  1.0000
  S   S311      1.0  0.51542  0.60702  0.74889  1.0000
  S   S312      1.0  0.52538  0.60296  0.68483  1.0000
  C   C782      1.0  0.43954  0.57188  0.68805  1.0000
  H   H1251     1.0  0.53671  0.72135  0.62002  1.0000
  H   H1252     1.0  0.50380  0.51626  0.57803  1.0000
  C   C783      1.0  0.51380  0.50481  0.74605  1.0000
  N   N79       1.0  0.59753  0.75004  0.79121  1.0000
  S   S313      1.0  0.64834  0.52302  0.52843  1.0000
  Fe  Fe155     1.0  0.41952  0.53183  0.95351  1.0000
  S   S314      1.0  0.43521  0.56386  0.95068  1.0000
  H   H1253     1.0  0.55148  0.73216  0.66546  1.0000
  Fe  Fe156     1.0  0.45778  0.52724  0.96185  1.0000
  S   S315      1.0  0.47511  0.55858  0.96014  1.0000
  N   N80       1.0  0.50362  0.54994  0.81299  1.0000
  H   H1254     1.0  0.55094  0.54436  0.77047  1.0000
  S   S316      1.0  0.46805  0.58144  0.51723  1.0000
  Fe  Fe157     1.0  0.45591  0.55796  0.92447  1.0000
  S   S317      1.0  0.47269  0.57727  0.89100  1.0000
  H   H1255     1.0  0.50163  0.52146  0.82127  1.0000
  S   S318      1.0  0.43940  0.52605  0.92464  1.0000
  S   S319      1.0  0.60124  0.73184  0.71126  1.0000
  C   C784      1.0  0.58535  0.74003  0.61852  1.0000
  C   C785      1.0  0.53700  0.51233  0.57073  1.0000
  H   H1256     1.0  0.52983  0.57373  0.82338  1.0000
  C   C786      1.0  0.52629  0.54024  0.50305  1.0000
  S   S320      1.0  0.47387  0.50845  0.97232  1.0000
  H   H1257     1.0  0.55493  0.53860  0.70642  1.0000
  H   H1258     1.0  0.52950  0.55080  0.83295  1.0000
  H   H1259     1.0  0.40450  0.53058  0.70796  1.0000
  C   C787      1.0  0.50665  0.53122  0.49625  1.0000
  H   H1260     1.0  0.65896  0.53017  0.94478  1.0000
  C   C788      1.0  0.50313  0.50453  0.56413  1.0000
  C   C789      1.0  0.34794  0.50390  0.95257  1.0000
  C   C790      1.0  0.44199  0.54198  0.69876  1.0000
  H   H1261     1.0  0.43021  0.57918  0.68072  1.0000
  C   C791      1.0  0.54641  0.67628  0.70898  1.0000
  C   C792      1.0  0.54509  0.69423  0.70952  1.0000
  C   C793      1.0  0.56165  0.71133  0.71063  1.0000
  C   C794      1.0  0.57983  0.71073  0.71067  1.0000
  C   C795      1.0  0.58119  0.69281  0.71044  1.0000
  C   C796      1.0  0.56461  0.67568  0.70960  1.0000
  H   H1262     1.0  0.53108  0.69485  0.70935  1.0000
  H   H1263     1.0  0.56030  0.72492  0.71174  1.0000
  H   H1264     1.0  0.59518  0.69213  0.71071  1.0000
  H   H1265     1.0  0.56590  0.66203  0.70923  1.0000
  C   C797      1.0  0.47588  0.57116  0.60749  1.0000
  C   C798      1.0  0.46684  0.55566  0.58967  1.0000
  C   C799      1.0  0.46459  0.55859  0.56200  1.0000
  C   C800      1.0  0.47116  0.57712  0.55185  1.0000
  C   C801      1.0  0.48024  0.59265  0.56964  1.0000
  C   C802      1.0  0.48267  0.58971  0.59733  1.0000
  H   H1266     1.0  0.46150  0.54126  0.59730  1.0000
  H   H1267     1.0  0.45756  0.54651  0.54859  1.0000
  H   H1268     1.0  0.48532  0.60704  0.56203  1.0000
  H   H1269     1.0  0.48959  0.60177  0.61082  1.0000
  C   C803      1.0  0.46196  0.57708  0.79945  1.0000
  C   C804      1.0  0.47789  0.59126  0.81204  1.0000
  C   C805      1.0  0.48050  0.59141  0.84019  1.0000
  C   C806      1.0  0.46734  0.57733  0.85608  1.0000
  C   C807      1.0  0.45120  0.56329  0.84358  1.0000
  C   C808      1.0  0.44849  0.56324  0.81535  1.0000
  H   H1270     1.0  0.48822  0.60214  0.80009  1.0000
  H   H1271     1.0  0.49296  0.60239  0.84970  1.0000
  H   H1272     1.0  0.44096  0.55238  0.85561  1.0000
  H   H1273     1.0  0.43606  0.55227  0.80580  1.0000
  C   C809      1.0  0.52961  0.54506  0.74140  1.0000
  C   C810      1.0  0.51319  0.53394  0.72623  1.0000
  H   H1274     1.0  0.43408  0.54723  0.64713  1.0000
  H   H1275     1.0  0.45435  0.54506  0.68538  1.0000
  H   H1276     1.0  0.41222  0.55030  0.65282  1.0000
  C   C811      1.0  0.53820  0.53592  0.75869  1.0000
  H   H1277     1.0  0.50679  0.54063  0.71212  1.0000
  H   H1278     1.0  0.49263  0.50546  0.71671  1.0000
  H   H1279     1.0  0.50402  0.54129  0.94911  1.0000
  H   H1280     1.0  0.55155  0.72145  0.59239  1.0000
  C   C812      1.0  0.53021  0.51593  0.76127  1.0000
  H   H1281     1.0  0.58664  0.73317  0.59933  1.0000
  H   H1282     1.0  0.58064  0.51613  0.66373  1.0000
  S   S321      1.0  0.59928  0.52383  0.98952  1.0000
  Fe  Fe158     1.0  0.61627  0.51702  0.52771  1.0000
  S   S322      1.0  0.38706  0.52426  0.95526  1.0000
  H   H1283     1.0  0.54839  0.50712  0.57632  1.0000
  N   N81       1.0  0.42903  0.55095  0.68869  1.0000
  C   C813      1.0  0.52467  0.55844  0.81716  1.0000
  S   S323      1.0  0.59632  0.52396  0.55502  1.0000
  H   H1284     1.0  0.47860  0.54621  0.83548  1.0000
  H   H1285     1.0  0.44790  0.54737  0.71930  1.0000
  H   H1286     1.0  0.54009  0.51834  0.55022  1.0000
  H   H1287     1.0  0.41404  0.52798  0.66076  1.0000
  C   C814      1.0  0.42196  0.54376  0.66116  1.0000
  H   H1288     1.0  0.43451  0.52619  0.69982  1.0000
  C   C815      1.0  0.51021  0.53605  0.96552  1.0000
  H   H1289     1.0  0.50328  0.52760  0.78634  1.0000
  C   C816      1.0  0.50528  0.51393  0.72865  1.0000
  C   C817      1.0  0.56453  0.71005  0.63742  1.0000
  C   C818      1.0  0.53001  0.54478  0.97157  1.0000
  H   H1290     1.0  0.53894  0.55684  0.95990  1.0000
  C   C819      1.0  0.41276  0.54627  0.70684  1.0000
  H   H1291     1.0  0.58634  0.72245  0.77165  1.0000
  H   H1292     1.0  0.59733  0.74042  0.63230  1.0000
  C   C820      1.0  0.58644  0.52038  0.68464  1.0000
  H   H1293     1.0  0.57854  0.55141  0.69449  1.0000
  H   H1294     1.0  0.40271  0.55289  0.69996  1.0000
  H   H1295     1.0  0.41786  0.55166  0.72772  1.0000
  S   S324      1.0  0.43659  0.53000  0.99063  1.0000
  C   C821      1.0  0.56616  0.53737  0.69353  1.0000
  N   N82       1.0  0.56656  0.72966  0.63066  1.0000
  C   C822      1.0  0.56531  0.73975  0.65543  1.0000
  H   H1296     1.0  0.61554  0.50989  0.94233  1.0000
  C   C823      1.0  0.49719  0.52951  0.80566  1.0000
  H   H1297     1.0  0.53854  0.52431  0.58465  1.0000
  H   H1298     1.0  0.62422  0.74718  0.79978  1.0000
  H   H1299     1.0  0.55064  0.70188  0.64707  1.0000
  C   C824      1.0  0.49448  0.55182  0.83810  1.0000
  H   H1300     1.0  0.57998  0.51163  0.88697  1.0000
  S   S325      1.0  0.56306  0.54223  0.50890  1.0000
  H   H1301     1.0  0.53205  0.55800  0.79833  1.0000
  C   C825      1.0  0.36601  0.50313  0.94926  1.0000
  H   H1302     1.0  0.54307  0.50412  0.71397  1.0000
  H   H1303     1.0  0.50297  0.57555  0.79564  1.0000
  Fe  Fe159     1.0  0.45291  0.56146  0.98636  1.0000
  H   H1304     1.0  0.58186  0.50550  0.93574  1.0000
  H   H1305     1.0  0.57609  0.71019  0.65190  1.0000
  H   H1306     1.0  0.32984  0.50771  0.87495  1.0000
  H   H1307     1.0  0.64308  0.52991  0.97106  1.0000
  H   H1308     1.0  0.55234  0.74363  0.60605  1.0000
  H   H1309     1.0  0.34717  0.51723  0.95860  1.0000
  H   H1310     1.0  0.56891  0.52610  0.74461  1.0000
  H   H1311     1.0  0.50588  0.61153  0.50188  1.0000
  C   C826      1.0  0.49813  0.56004  0.79101  1.0000
  H   H1312     1.0  0.56527  0.70189  0.61923  1.0000
  H   H1313     1.0  0.45186  0.57594  0.67441  1.0000
  H   H1314     1.0  0.50468  0.55879  0.77173  1.0000
  C   C827      1.0  0.53834  0.53782  0.99232  1.0000
  H   H1315     1.0  0.44528  0.57780  0.70845  1.0000
  H   H1316     1.0  0.59195  0.72208  0.80696  1.0000
  H   H1317     1.0  0.65472  0.56350  0.53502  1.0000
  N   N83       1.0  0.57174  0.52170  0.70248  1.0000
  Fe  Fe160     1.0  0.57896  0.52298  0.51689  1.0000
  C   C828      1.0  0.55109  0.72896  0.61140  1.0000
  H   H1318     1.0  0.49941  0.56701  0.84469  1.0000
  C   C829      1.0  0.49856  0.52036  0.98034  1.0000
  C   C830      1.0  0.65136  0.52206  0.96250  1.0000
  C   C831      1.0  0.53866  0.53092  0.49875  1.0000
  H   H1319     1.0  0.61839  0.74769  0.76459  1.0000
  H   H1320     1.0  0.57710  0.74100  0.67008  1.0000
  H   H1321     1.0  0.59180  0.50951  0.69202  1.0000
  H   H1322     1.0  0.57093  0.72587  0.79606  1.0000
  H   H1323     1.0  0.49719  0.53823  0.50089  1.0000
  H   H1324     1.0  0.49788  0.54394  0.85496  1.0000
  C   C832      1.0  0.57970  0.52550  0.73038  1.0000
  H   H1325     1.0  0.48131  0.52264  0.80303  1.0000
  H   H1326     1.0  0.63091  0.50932  0.91591  1.0000
  H   H1327     1.0  0.56028  0.53499  0.67247  1.0000
  H   H1328     1.0  0.48233  0.55419  0.78736  1.0000
  H   H1329     1.0  0.53184  0.55433  0.51224  1.0000
  C   C833      1.0  0.58618  0.72920  0.79154  1.0000
  H   H1330     1.0  0.59237  0.53929  0.73209  1.0000
  H   H1331     1.0  0.53658  0.50920  0.77540  1.0000
  H   H1332     1.0  0.59905  0.53419  0.68373  1.0000
  H   H1333     1.0  0.50526  0.51045  0.54344  1.0000
  H   H1334     1.0  0.58434  0.51403  0.73750  1.0000
  H   H1335     1.0  0.53371  0.50927  0.94805  1.0000
  H   H1336     1.0  0.40114  0.56172  0.98235  1.0000
  H   H1337     1.0  0.58891  0.75233  0.75032  1.0000
  H   H1338     1.0  0.60323  0.75228  0.83405  1.0000
  C   C834      1.0  0.55471  0.50350  0.70143  1.0000
  C   C835      1.0  0.50554  0.00215  0.48966  1.0000
  C   C836      1.0  0.62497  0.84347  0.30271  1.0000
  H   H1339     1.0  0.48607  0.97491  0.26905  1.0000
  Fe  Fe161     1.0  0.49695  0.91163  0.48186  1.0000
  S   S326      1.0  0.46546  0.90549  0.47648  1.0000
  H   H1340     1.0  0.49942  0.98308  0.35343  1.0000
  Fe  Fe162     1.0  0.47500  0.93050  0.44864  1.0000
  S   S327      1.0  0.45661  0.93034  0.41166  1.0000
  H   H1341     1.0  0.49287  0.92146  0.04760  1.0000
  S   S328      1.0  0.48708  0.95754  0.05124  1.0000
  S   S329      1.0  0.50628  0.93569  0.45198  1.0000
  Fe  Fe163     1.0  0.60484  0.76416  0.20018  1.0000
  Fe  Fe164     1.0  0.45027  0.92749  0.25435  1.0000
  S   S330      1.0  0.43579  0.94773  0.26089  1.0000
  S   S331      1.0  0.46700  0.91915  0.28715  1.0000
  Fe  Fe165     1.0  0.44398  0.92734  0.19299  1.0000
  S   S332      1.0  0.43006  0.94835  0.19571  1.0000
  S   S333      1.0  0.44330  0.91251  0.15302  1.0000
  Fe  Fe166     1.0  0.45341  0.96380  0.22645  1.0000
  H   H1342     1.0  0.60036  0.77871  0.34840  1.0000
  Fe  Fe167     1.0  0.41377  0.93009  0.22962  1.0000
  S   S334      1.0  0.38188  0.92453  0.23018  1.0000
  S   S335      1.0  0.46872  0.94425  0.22090  1.0000
  S   S336      1.0  0.42688  0.90840  0.22589  1.0000
  Fe  Fe168     1.0  0.63073  0.85541  0.42771  1.0000
  S   S337      1.0  0.62286  0.82561  0.44218  1.0000
  Fe  Fe169     1.0  0.49191  0.94613  0.01098  1.0000
  Fe  Fe170     1.0  0.59165  0.85578  0.44206  1.0000
  S   S338      1.0  0.58057  0.82535  0.45673  1.0000
  S   S339      1.0  0.58067  0.87958  0.44450  1.0000
  C   C837      1.0  0.45842  0.97962  0.02708  1.0000
  H   H1343     1.0  0.49276  0.89412  0.43107  1.0000
  Fe  Fe171     1.0  0.59486  0.81980  0.41988  1.0000
  S   S340      1.0  0.58582  0.79417  0.39138  1.0000
  H   H1344     1.0  0.65104  0.87360  0.35289  1.0000
  S   S341      1.0  0.60350  0.84945  0.40384  1.0000
  H   H1345     1.0  0.62976  0.80281  0.06119  1.0000
  S   S342      1.0  0.58119  0.77476  0.19803  1.0000
  Fe  Fe172     1.0  0.63606  0.80498  0.20226  1.0000
  S   S343      1.0  0.61434  0.81821  0.20032  1.0000
  S   S344      1.0  0.61634  0.81379  0.01232  1.0000
  Fe  Fe173     1.0  0.59826  0.79585  0.23026  1.0000
  S   S345      1.0  0.58318  0.80384  0.26420  1.0000
  Fe  Fe174     1.0  0.59958  0.79600  0.16831  1.0000
  S   S346      1.0  0.58482  0.80223  0.13121  1.0000
  S   S347      1.0  0.62092  0.78397  0.23446  1.0000
  S   S348      1.0  0.62233  0.78404  0.16831  1.0000
  H   H1346     1.0  0.63098  0.85316  0.28554  1.0000
  C   C838      1.0  0.60771  0.81152  0.04542  1.0000
  C   C839      1.0  0.59163  0.81517  0.05174  1.0000
  C   C840      1.0  0.58493  0.81247  0.07822  1.0000
  C   C841      1.0  0.59445  0.80649  0.09868  1.0000
  C   C842      1.0  0.61080  0.80329  0.09248  1.0000
  C   C843      1.0  0.61727  0.80563  0.06592  1.0000
  H   H1347     1.0  0.58410  0.81964  0.03613  1.0000
  H   H1348     1.0  0.57222  0.81492  0.08283  1.0000
  H   H1349     1.0  0.52740  0.93571  0.05939  1.0000
  H   H1350     1.0  0.65069  0.84610  0.04582  1.0000
  C   C844      1.0  0.58591  0.79748  0.35613  1.0000
  C   C845      1.0  0.57750  0.80910  0.34438  1.0000
  C   C846      1.0  0.57673  0.81072  0.31622  1.0000
  C   C847      1.0  0.58489  0.80126  0.29949  1.0000
  C   C848      1.0  0.59381  0.79002  0.31123  1.0000
  C   C849      1.0  0.59387  0.78777  0.33941  1.0000
  H   H1351     1.0  0.57110  0.81644  0.35700  1.0000
  H   H1352     1.0  0.56975  0.81939  0.30734  1.0000
  H   H1353     1.0  0.60039  0.78286  0.29867  1.0000
  H   H1354     1.0  0.44587  0.85275  0.42578  1.0000
  C   C850      1.0  0.36120  0.90300  0.22515  1.0000
  C   C851      1.0  0.34303  0.90392  0.22333  1.0000
  H   H1355     1.0  0.47123  0.95866  0.29294  1.0000
  H   H1356     1.0  0.52966  0.91683  0.03995  1.0000
  C   C852      1.0  0.34566  0.86871  0.21677  1.0000
  C   C853      1.0  0.36240  0.88525  0.22204  1.0000
  H   H1357     1.0  0.34190  0.91756  0.22580  1.0000
  C   C854      1.0  0.64618  0.85812  0.04165  1.0000
  H   H1358     1.0  0.34678  0.85507  0.21443  1.0000
  H   H1359     1.0  0.37620  0.88424  0.22387  1.0000
  S   S349      1.0  0.61991  0.86435  0.46436  1.0000
  C   C855      1.0  0.55870  0.88029  0.45431  1.0000
  C   C856      1.0  0.54330  0.86402  0.46250  1.0000
  C   C857      1.0  0.52632  0.86555  0.47072  1.0000
  C   C858      1.0  0.52459  0.88329  0.47078  1.0000
  C   C859      1.0  0.53996  0.89951  0.46255  1.0000
  H   H1360     1.0  0.56879  0.91065  0.44815  1.0000
  H   H1361     1.0  0.54441  0.85029  0.46235  1.0000
  H   H1362     1.0  0.64870  0.89420  0.04398  1.0000
  C   C860      1.0  0.50868  0.97026  0.30759  1.0000
  S   S350      1.0  0.47659  0.95089  0.48208  1.0000
  C   C861      1.0  0.47442  0.94470  0.07901  1.0000
  C   C862      1.0  0.46206  0.92545  0.07695  1.0000
  C   C863      1.0  0.45266  0.91573  0.09984  1.0000
  C   C864      1.0  0.45528  0.92526  0.12479  1.0000
  C   C865      1.0  0.46728  0.94460  0.12669  1.0000
  C   C866      1.0  0.47683  0.95426  0.10388  1.0000
  H   H1363     1.0  0.45955  0.91813  0.05769  1.0000
  H   H1364     1.0  0.44321  0.90079  0.09819  1.0000
  H   H1365     1.0  0.46936  0.95208  0.14580  1.0000
  H   H1366     1.0  0.48628  0.96919  0.10560  1.0000
  C   C867      1.0  0.46026  0.92785  0.37713  1.0000
  C   C868      1.0  0.47680  0.92617  0.36802  1.0000
  C   C869      1.0  0.47847  0.92303  0.34046  1.0000
  C   C870      1.0  0.46406  0.92249  0.32165  1.0000
  C   C871      1.0  0.44788  0.92491  0.33064  1.0000
  C   C872      1.0  0.44591  0.92735  0.35829  1.0000
  H   H1367     1.0  0.48832  0.92742  0.38212  1.0000
  H   H1368     1.0  0.49114  0.92138  0.33358  1.0000
  H   H1369     1.0  0.43668  0.92450  0.31637  1.0000
  H   H1370     1.0  0.43311  0.92876  0.36515  1.0000
  S   S351      1.0  0.52172  0.94804  0.00464  1.0000
  H   H1371     1.0  0.49573  0.99402  0.01244  1.0000
  H   H1372     1.0  0.58141  0.76380  0.26018  1.0000
  H   H1373     1.0  0.47843  0.98583  0.33977  1.0000
  H   H1374     1.0  0.47668  0.90375  0.41644  1.0000
  H   H1375     1.0  0.50411  0.92831  0.09547  1.0000
  C   C873      1.0  0.50447  0.91382  0.09656  1.0000
  Fe  Fe175     1.0  0.50707  0.95437  0.48775  1.0000
  H   H1376     1.0  0.44774  0.86017  0.37657  1.0000
  H   H1377     1.0  0.46070  0.97751  0.04888  1.0000
  H   H1378     1.0  0.51956  0.88786  0.08639  1.0000
  C   C874      1.0  0.48051  0.97392  0.28969  1.0000
  H   H1379     1.0  0.46448  0.86780  0.44862  1.0000
  C   C875      1.0  0.48387  0.89379  0.41278  1.0000
  C   C876      1.0  0.45869  0.87460  0.38180  1.0000
  H   H1380     1.0  0.37771  0.88650  0.11379  1.0000
  N   N84       1.0  0.46971  0.87431  0.40672  1.0000
  N   N85       1.0  0.50810  0.90744  0.06993  1.0000
  H   H1381     1.0  0.50053  0.98535  0.21903  1.0000
  H   H1382     1.0  0.62003  0.84968  0.07999  1.0000
  H   H1383     1.0  0.51100  0.88309  0.05196  1.0000
  C   C877      1.0  0.50822  0.88812  0.07190  1.0000
  H   H1384     1.0  0.65072  0.83982  0.16636  1.0000
  H   H1385     1.0  0.47838  0.89747  0.05745  1.0000
  H   H1386     1.0  0.38029  0.88756  0.17406  1.0000
  H   H1387     1.0  0.49422  0.87754  0.07864  1.0000
  C   C878      1.0  0.64099  0.86874  0.33512  1.0000
  H   H1388     1.0  0.49677  0.99005  0.47735  1.0000
  C   C879      1.0  0.63527  0.85679  0.08705  1.0000
  H   H1389     1.0  0.65834  0.83559  0.41589  1.0000
  Fe  Fe176     1.0  0.60966  0.83386  0.47751  1.0000
  H   H1390     1.0  0.44838  0.87683  0.43221  1.0000
  H   H1391     1.0  0.44288  0.97608  0.02334  1.0000
  H   H1392     1.0  0.49460  0.90152  0.03054  1.0000
  N   N86       1.0  0.38632  0.90899  0.14356  1.0000
  C   C880      1.0  0.40299  0.92159  0.12846  1.0000
  C   C881      1.0  0.37783  0.92066  0.15788  1.0000
  C   C882      1.0  0.39261  0.89795  0.16328  1.0000
  C   C883      1.0  0.37182  0.89568  0.12468  1.0000
  H   H1393     1.0  0.41433  0.93157  0.14222  1.0000
  H   H1394     1.0  0.39890  0.93033  0.11356  1.0000
  H   H1395     1.0  0.40976  0.91323  0.11745  1.0000
  H   H1396     1.0  0.36532  0.91159  0.16971  1.0000
  H   H1397     1.0  0.38833  0.93082  0.17244  1.0000
  H   H1398     1.0  0.37285  0.92919  0.14374  1.0000
  H   H1399     1.0  0.59981  0.76176  0.11830  1.0000
  H   H1400     1.0  0.40271  0.90749  0.17873  1.0000
  H   H1401     1.0  0.40018  0.88986  0.15348  1.0000
  H   H1402     1.0  0.35900  0.88609  0.13552  1.0000
  H   H1403     1.0  0.62732  0.86969  0.34096  1.0000
  H   H1404     1.0  0.36683  0.90352  0.10937  1.0000
  H   H1405     1.0  0.47932  0.96270  0.34095  1.0000
  H   H1406     1.0  0.61074  0.84378  0.30682  1.0000
  H   H1407     1.0  0.65446  0.83356  0.31364  1.0000
  S   S352      1.0  0.46852  0.99611  0.23067  1.0000
  H   H1408     1.0  0.49387  0.89950  0.39600  1.0000
  C   C884      1.0  0.52683  0.92088  0.06047  1.0000
  H   H1409     1.0  0.51577  0.91449  0.11176  1.0000
  N   N87       1.0  0.49622  0.98096  0.31022  1.0000
  H   H1410     1.0  0.49004  0.86617  0.38642  1.0000
  N   N88       1.0  0.63791  0.84908  0.32682  1.0000
  H   H1411     1.0  0.62728  0.82101  0.34401  1.0000
  C   C885      1.0  0.50760  0.00150  0.30615  1.0000
  H   H1412     1.0  0.64068  0.89338  0.07783  1.0000
  C   C886      1.0  0.49280  0.90696  0.05058  1.0000
  H   H1413     1.0  0.50038  0.95462  0.30957  1.0000
  C   C887      1.0  0.48804  0.97807  0.33730  1.0000
  H   H1414     1.0  0.57970  0.76498  0.08000  1.0000
  H   H1415     1.0  0.45105  0.88439  0.38398  1.0000
  H   H1416     1.0  0.48831  0.86109  0.42177  1.0000
  H   H1417     1.0  0.46963  0.84654  0.39859  1.0000
  H   H1418     1.0  0.58221  0.76272  0.14078  1.0000
  H   H1419     1.0  0.53882  0.92120  0.07413  1.0000
  C   C888      1.0  0.62922  0.83590  0.34904  1.0000
  H   H1420     1.0  0.46820  0.87973  0.36434  1.0000
  H   H1421     1.0  0.61831  0.79877  0.10804  1.0000
  H   H1422     1.0  0.49040  0.90404  0.10427  1.0000
  C   C889      1.0  0.45652  0.86760  0.42931  1.0000
  C   C890      1.0  0.47984  0.86143  0.40316  1.0000
  H   H1423     1.0  0.63128  0.85176  0.03305  1.0000
  H   H1424     1.0  0.46213  0.96896  0.01577  1.0000
  H   H1425     1.0  0.53884  0.91324  0.46255  1.0000
  H   H1426     1.0  0.61493  0.83571  0.35378  1.0000
  C   C891      1.0  0.50618  0.99957  0.22775  1.0000
  H   H1427     1.0  0.51530  0.97244  0.28747  1.0000
  H   H1428     1.0  0.55704  0.76221  0.29402  1.0000
  H   H1429     1.0  0.56211  0.76553  0.10283  1.0000
  H   H1430     1.0  0.47123  0.98218  0.28999  1.0000
  H   H1431     1.0  0.63819  0.84014  0.36790  1.0000
  C   C892      1.0  0.55693  0.89799  0.45441  1.0000
  H   H1432     1.0  0.52045  0.97476  0.32318  1.0000
  H   H1433     1.0  0.62238  0.82874  0.29579  1.0000
  H   H1434     1.0  0.65538  0.86703  0.02566  1.0000
  N   N89       1.0  0.47024  0.99928  0.01879  1.0000
  C   C893      1.0  0.64006  0.88448  0.05977  1.0000
  C   C894      1.0  0.56680  0.75577  0.09103  1.0000
  H   H1435     1.0  0.62490  0.87821  0.05207  1.0000
  S   S353      1.0  0.50294  0.88449  0.48110  1.0000
  H   H1436     1.0  0.63561  0.86484  0.10588  1.0000
  N   N90       1.0  0.64721  0.86944  0.06623  1.0000
  C   C895      1.0  0.32748  0.86963  0.21495  1.0000
  H   H1437     1.0  0.64708  0.87909  0.31869  1.0000
  H   H1438     1.0  0.64030  0.84528  0.09244  1.0000
  C   C896      1.0  0.65643  0.84817  0.32044  1.0000
  H   H1439     1.0  0.51445  0.85292  0.47703  1.0000
  S   S354      1.0  0.65892  0.87391  0.40962  1.0000
  H   H1440     1.0  0.49344  0.00095  0.04605  1.0000
  C   C897      1.0  0.58638  0.75286  0.12846  1.0000
  H   H1441     1.0  0.57462  0.85459  0.49213  1.0000
  H   H1442     1.0  0.54865  0.75891  0.24578  1.0000
  Fe  Fe177     1.0  0.52084  0.96401  0.96708  1.0000
  S   S355      1.0  0.49197  0.96373  0.97491  1.0000
  C   C898      1.0  0.40216  0.90360  0.66638  1.0000
  Fe  Fe178     1.0  0.50791  0.92157  0.97903  1.0000
  S   S356      1.0  0.46979  0.99604  0.73572  1.0000
  C   C899      1.0  0.53679  0.87482  0.98187  1.0000
  Fe  Fe179     1.0  0.48073  0.93657  0.95068  1.0000
  S   S357      1.0  0.45661  0.93464  0.92136  1.0000
  C   C900      1.0  0.59711  0.75851  0.81786  1.0000
  S   S358      1.0  0.44805  0.92525  0.54131  1.0000
  S   S359      1.0  0.50986  0.93778  0.94034  1.0000
  C   C901      1.0  0.50562  0.99980  0.81772  1.0000
  Fe  Fe180     1.0  0.44785  0.92717  0.76271  1.0000
  S   S360      1.0  0.43343  0.94788  0.76407  1.0000
  S   S361      1.0  0.46078  0.91642  0.79741  1.0000
  Fe  Fe181     1.0  0.44851  0.92749  0.70105  1.0000
  S   S362      1.0  0.43457  0.94850  0.69792  1.0000
  S   S363      1.0  0.45872  0.91465  0.66663  1.0000
  Fe  Fe182     1.0  0.45439  0.96381  0.73262  1.0000
  N   N91       1.0  0.58391  0.86665  0.53161  1.0000
  Fe  Fe183     1.0  0.41475  0.93049  0.72942  1.0000
  S   S364      1.0  0.38309  0.92530  0.72343  1.0000
  S   S365      1.0  0.46983  0.94419  0.73330  1.0000
  S   S366      1.0  0.42767  0.90845  0.73048  1.0000
  Fe  Fe184     1.0  0.63496  0.85548  0.93427  1.0000
  S   S367      1.0  0.62255  0.82368  0.93778  1.0000
  H   H1443     1.0  0.49334  0.97430  0.53172  1.0000
  Fe  Fe185     1.0  0.59771  0.85907  0.94939  1.0000
  S   S368      1.0  0.58228  0.82724  0.95464  1.0000
  H   H1444     1.0  0.58760  0.75512  0.61406  1.0000
  H   H1445     1.0  0.41607  0.87800  0.68345  1.0000
  C   C902      1.0  0.58581  0.85999  0.55908  1.0000
  Fe  Fe186     1.0  0.59663  0.82492  0.91626  1.0000
  S   S369      1.0  0.57977  0.80541  0.88172  1.0000
  C   C903      1.0  0.32827  0.86998  0.71783  1.0000
  S   S370      1.0  0.61024  0.85642  0.90990  1.0000
  H   H1446     1.0  0.57403  0.88261  0.86046  1.0000
  S   S371      1.0  0.58534  0.77690  0.70452  1.0000
  Fe  Fe187     1.0  0.63948  0.80124  0.68791  1.0000
  S   S372      1.0  0.62019  0.81714  0.68829  1.0000
  S   S373      1.0  0.58797  0.88374  0.94805  1.0000
  Fe  Fe188     1.0  0.60905  0.80113  0.72649  1.0000
  S   S374      1.0  0.61320  0.81973  0.76389  1.0000
  Fe  Fe189     1.0  0.59895  0.79151  0.66610  1.0000
  S   S375      1.0  0.58092  0.79111  0.62843  1.0000
  S   S376      1.0  0.62930  0.78625  0.72675  1.0000
  S   S377      1.0  0.61903  0.77645  0.66332  1.0000
  H   H1447     1.0  0.47846  0.95855  0.60071  1.0000
  C   C904      1.0  0.60852  0.82032  0.55011  1.0000
  C   C905      1.0  0.58876  0.80958  0.55080  1.0000
  C   C906      1.0  0.58046  0.80075  0.57492  1.0000
  C   C907      1.0  0.59182  0.80247  0.59847  1.0000
  C   C908      1.0  0.61155  0.81317  0.59770  1.0000
  C   C909      1.0  0.61981  0.82210  0.57370  1.0000
  H   H1448     1.0  0.57990  0.80801  0.53280  1.0000
  H   H1449     1.0  0.56518  0.79250  0.57533  1.0000
  C   C910      1.0  0.54863  0.90622  0.96212  1.0000
  C   C911      1.0  0.55303  0.87196  0.97334  1.0000
  C   C912      1.0  0.58941  0.80897  0.84918  1.0000
  C   C913      1.0  0.57899  0.79706  0.82768  1.0000
  C   C914      1.0  0.58613  0.79992  0.80143  1.0000
  C   C915      1.0  0.60379  0.81472  0.79654  1.0000
  C   C916      1.0  0.61412  0.82664  0.81805  1.0000
  C   C917      1.0  0.60705  0.82372  0.84425  1.0000
  H   H1450     1.0  0.56519  0.78580  0.83128  1.0000
  H   H1451     1.0  0.57767  0.79116  0.78489  1.0000
  H   H1452     1.0  0.62763  0.83833  0.81447  1.0000
  H   H1453     1.0  0.61522  0.83301  0.86059  1.0000
  C   C918      1.0  0.36225  0.90372  0.72180  1.0000
  C   C919      1.0  0.36298  0.88590  0.72660  1.0000
  C   C920      1.0  0.34608  0.86914  0.72452  1.0000
  H   H1454     1.0  0.46704  0.98236  0.81592  1.0000
  H   H1455     1.0  0.60201  0.88481  0.50175  1.0000
  C   C921      1.0  0.34443  0.90454  0.71525  1.0000
  H   H1456     1.0  0.37650  0.88508  0.73216  1.0000
  H   H1457     1.0  0.34679  0.85543  0.72823  1.0000
  C   C922      1.0  0.49408  0.97011  0.55300  1.0000
  H   H1458     1.0  0.34370  0.91826  0.71160  1.0000
  H   H1459     1.0  0.39351  0.87335  0.69863  1.0000
  H   H1460     1.0  0.36867  0.86029  0.64708  1.0000
  C   C923      1.0  0.46689  0.97766  0.56296  1.0000
  H   H1461     1.0  0.50179  0.98366  0.73365  1.0000
  C   C924      1.0  0.53455  0.89198  0.97634  1.0000
  H   H1462     1.0  0.52869  0.83952  0.86466  1.0000
  H   H1463     1.0  0.39884  0.91243  0.65078  1.0000
  H   H1464     1.0  0.59566  0.85229  0.55968  1.0000
  H   H1465     1.0  0.42071  0.88713  0.63622  1.0000
  H   H1466     1.0  0.65013  0.85002  0.74884  1.0000
  C   C925      1.0  0.32752  0.88780  0.71333  1.0000
  C   C926      1.0  0.45181  0.92299  0.57614  1.0000
  C   C927      1.0  0.44105  0.92841  0.59452  1.0000
  C   C928      1.0  0.44380  0.92699  0.62243  1.0000
  C   C929      1.0  0.45670  0.91929  0.63210  1.0000
  C   C930      1.0  0.46744  0.91390  0.61371  1.0000
  C   C931      1.0  0.46526  0.91605  0.58585  1.0000
  H   H1467     1.0  0.43064  0.93384  0.58712  1.0000
  H   H1468     1.0  0.43566  0.93147  0.63635  1.0000
  H   H1469     1.0  0.47740  0.90787  0.62105  1.0000
  H   H1470     1.0  0.47357  0.91178  0.57187  1.0000
  C   C932      1.0  0.45766  0.92922  0.88702  1.0000
  C   C933      1.0  0.47101  0.92223  0.87813  1.0000
  C   C934      1.0  0.47152  0.91805  0.85066  1.0000
  C   C935      1.0  0.45891  0.92111  0.83179  1.0000
  C   C936      1.0  0.44557  0.92815  0.84063  1.0000
  C   C937      1.0  0.44489  0.93208  0.86819  1.0000
  H   H1471     1.0  0.48079  0.91981  0.89247  1.0000
  H   H1472     1.0  0.48181  0.91251  0.84398  1.0000
  H   H1473     1.0  0.43565  0.93037  0.82631  1.0000
  H   H1474     1.0  0.43443  0.93737  0.87496  1.0000
  H   H1475     1.0  0.40223  0.89066  0.61654  1.0000
  H   H1476     1.0  0.61314  0.87237  0.52239  1.0000
  H   H1477     1.0  0.60932  0.89244  0.53597  1.0000
  H   H1478     1.0  0.46596  0.95902  0.80740  1.0000
  S   S378      1.0  0.61993  0.83235  0.52082  1.0000
  H   H1479     1.0  0.47638  0.97839  0.78480  1.0000
  H   H1480     1.0  0.54866  0.85427  0.91883  1.0000
  N   N92       1.0  0.55785  0.85534  0.87807  1.0000
  H   H1481     1.0  0.51045  0.99724  0.93727  1.0000
  C   C938      1.0  0.57607  0.85004  0.51308  1.0000
  S   S379      1.0  0.50064  0.93080  0.51808  1.0000
  H   H1482     1.0  0.55467  0.85876  0.97780  1.0000
  H   H1483     1.0  0.57619  0.88939  0.54545  1.0000
  H   H1484     1.0  0.54709  0.91948  0.95778  1.0000
  C   C939      1.0  0.53939  0.85452  0.86649  1.0000
  H   H1485     1.0  0.56851  0.84763  0.91465  1.0000
  C   C940      1.0  0.50726  0.99844  0.74013  1.0000
  C   C941      1.0  0.48721  0.97413  0.59915  1.0000
  H   H1486     1.0  0.48300  0.95840  0.85089  1.0000
  H   H1487     1.0  0.50547  0.97730  0.85938  1.0000
  H   H1488     1.0  0.54113  0.86089  0.84607  1.0000
  H   H1489     1.0  0.37028  0.88356  0.63701  1.0000
  Fe  Fe190     1.0  0.46992  0.92638  0.51037  1.0000
  S   S380      1.0  0.47775  0.91861  0.98769  1.0000
  N   N93       1.0  0.39540  0.88337  0.65792  1.0000
  H   H1490     1.0  0.48139  0.98155  0.61352  1.0000
  H   H1491     1.0  0.53318  0.86252  0.87935  1.0000
  H   H1492     1.0  0.48555  0.95447  0.55406  1.0000
  C   C942      1.0  0.40488  0.88192  0.63292  1.0000
  H   H1493     1.0  0.55621  0.86735  0.53765  1.0000
  Fe  Fe191     1.0  0.60652  0.76299  0.70245  1.0000
  H   H1494     1.0  0.50564  0.97165  0.78481  1.0000
  H   H1495     1.0  0.56937  0.88222  0.51103  1.0000
  H   H1496     1.0  0.50930  0.97264  0.55789  1.0000
  C   C943      1.0  0.55478  0.84672  0.90508  1.0000
  Fe  Fe192     1.0  0.60965  0.82876  0.97592  1.0000
  C   C944      1.0  0.56565  0.84463  0.86045  1.0000
  H   H1497     1.0  0.57429  0.75666  0.77504  1.0000
  H   H1498     1.0  0.63507  0.83044  0.57343  1.0000
  H   H1499     1.0  0.39975  0.86691  0.62549  1.0000
  H   H1500     1.0  0.55588  0.82927  0.85867  1.0000
  H   H1501     1.0  0.57962  0.84501  0.86854  1.0000
  H   H1502     1.0  0.59168  0.87213  0.57369  1.0000
  H   H1503     1.0  0.56633  0.88385  0.89413  1.0000
  C   C945      1.0  0.57085  0.87684  0.53150  1.0000
  C   C946      1.0  0.56719  0.88631  0.95931  1.0000
  H   H1504     1.0  0.58570  0.87666  0.88883  1.0000
  H   H1505     1.0  0.54497  0.83137  0.90419  1.0000
  C   C947      1.0  0.56487  0.90338  0.95368  1.0000
  S   S381      1.0  0.62389  0.86074  0.97348  1.0000
  H   H1506     1.0  0.57175  0.84994  0.56643  1.0000
  S   S382      1.0  0.51417  0.89517  0.98798  1.0000
  C   C948      1.0  0.60294  0.87966  0.52256  1.0000
  H   H1507     1.0  0.57578  0.91457  0.94286  1.0000
  H   H1508     1.0  0.39534  0.90522  0.68520  1.0000
  H   H1509     1.0  0.52593  0.86373  0.99284  1.0000
  H   H1510     1.0  0.41792  0.90980  0.67033  1.0000
  H   H1511     1.0  0.56166  0.83990  0.51908  1.0000
  C   C949      1.0  0.49146  0.97393  0.84856  1.0000
  C   C950      1.0  0.57154  0.87548  0.88035  1.0000
  H   H1512     1.0  0.46606  0.98230  0.54186  1.0000
  H   H1513     1.0  0.56808  0.85062  0.83982  1.0000
  C   C951      1.0  0.47500  0.97456  0.80647  1.0000
  H   H1514     1.0  0.62655  0.76931  0.78439  1.0000
  C   C952      1.0  0.40027  0.87242  0.67938  1.0000
  N   N94       1.0  0.49395  0.97912  0.81984  1.0000
  H   H1515     1.0  0.39538  0.85706  0.67379  1.0000
  H   H1516     1.0  0.49518  0.95248  0.80784  1.0000
  S   S383      1.0  0.54388  0.99307  0.95967  1.0000
  N   N95       1.0  0.48678  0.98082  0.57130  1.0000
  H   H1517     1.0  0.36688  0.87678  0.67160  1.0000
  H   H1518     1.0  0.62046  0.81469  0.61565  1.0000
  C   C953      1.0  0.37440  0.87563  0.65315  1.0000
  H   H1519     1.0  0.50204  0.97650  0.60611  1.0000
  C   C954      1.0  0.50368  0.96817  0.80657  1.0000
  C   C955      1.0  0.58926  0.75875  0.77052  1.0000
  H   H1520     1.0  0.56637  0.75446  0.65109  1.0000
  H   H1521     1.0  0.60554  0.77425  0.81817  1.0000
  H   H1522     1.0  0.45728  0.96230  0.56372  1.0000
  H   H1523     1.0  0.51806  0.97120  0.81601  1.0000
  H   H1524     1.0  0.46089  0.98559  0.57619  1.0000
  H   H1525     1.0  0.59778  0.77440  0.76911  1.0000
  H   H1526     1.0  0.58559  0.84203  0.51273  1.0000
  H   H1527     1.0  0.48370  0.98151  0.85909  1.0000
  H   H1528     1.0  0.53667  0.00116  0.74367  1.0000
  H   H1529     1.0  0.65316  0.84122  0.88834  1.0000
  H   H1530     1.0  0.47203  0.99185  0.97746  1.0000
  H   H1531     1.0  0.45155  0.99719  0.98444  1.0000
  H   H1532     1.0  0.65376  0.83275  0.78948  1.0000
  H   H1533     1.0  0.65492  0.84333  0.66764  1.0000
  H   H1534     1.0  0.65820  0.83526  0.72870  1.0000
  H   H1535     1.0  0.58223  0.75615  0.82333  1.0000
  S   S384      1.0  0.52996  0.98359  0.49807  1.0000
  C   C956      1.0  0.49891  0.00142  0.56994  1.0000
  C   C957      1.0  0.61756  0.75372  0.78474  1.0000
  C   C958      1.0  0.46699  0.00115  0.98965  1.0000
  C   C959      1.0  0.52263  0.00273  0.50171  1.0000
  Fe  Fe193     1.0  0.75199  0.19424  0.28649  1.0000
  H   H1536     1.0  0.77779  0.16997  0.09138  1.0000
  S   S385      1.0  0.71971  0.18749  0.28512  1.0000
  Fe  Fe194     1.0  0.78871  0.18789  0.30039  1.0000
  S   S386      1.0  0.80736  0.21884  0.29726  1.0000
  S   S387      1.0  0.80331  0.16848  0.31408  1.0000
  Fe  Fe195     1.0  0.78467  0.22386  0.31973  1.0000
  H   H1537     1.0  0.85001  0.04376  0.04888  1.0000
  Fe  Fe196     1.0  0.79007  0.21760  0.25918  1.0000
  H   H1538     1.0  0.78612  0.19448  0.08097  1.0000
  S   S388      1.0  0.76697  0.19286  0.32579  1.0000
  S   S389      1.0  0.77213  0.18604  0.26133  1.0000
  Fe  Fe197     1.0  0.91110  0.15350  0.32782  1.0000
  S   S390      1.0  0.92907  0.18423  0.32029  1.0000
  S   S391      1.0  0.90266  0.13074  0.29481  1.0000
  Fe  Fe198     1.0  0.90753  0.16112  0.38868  1.0000
  S   S392      1.0  0.92574  0.19250  0.38482  1.0000
  S   S393      1.0  0.88914  0.14908  0.42515  1.0000
  Fe  Fe199     1.0  0.90823  0.19014  0.34649  1.0000
  S   S394      1.0  0.89347  0.20945  0.33286  1.0000
  Fe  Fe200     1.0  0.94486  0.18328  0.35905  1.0000
  S   S395      1.0  0.97700  0.18948  0.35984  1.0000
  S   S396      1.0  0.88936  0.15943  0.35138  1.0000
  S   S397      1.0  0.92749  0.15181  0.36555  1.0000
  S   S398      1.0  0.81551  0.22831  0.04583  1.0000
  S   S399      1.0  0.86639  0.23148  0.06091  1.0000
  Fe  Fe201     1.0  0.85233  0.09030  0.10547  1.0000
  S   S400      1.0  0.88420  0.10740  0.11167  1.0000
  S   S401      1.0  0.84586  0.05814  0.10377  1.0000
  Fe  Fe202     1.0  0.84573  0.12707  0.09393  1.0000
  S   S402      1.0  0.87681  0.14552  0.09875  1.0000
  S   S403      1.0  0.82648  0.14208  0.08048  1.0000
  Fe  Fe203     1.0  0.88151  0.12316  0.07449  1.0000
  S   S404      1.0  0.90335  0.13080  0.04151  1.0000
  Fe  Fe204     1.0  0.87612  0.12805  0.13555  1.0000
  S   S405      1.0  0.89133  0.14741  0.17127  1.0000
  S   S406      1.0  0.85035  0.10548  0.06714  1.0000
  S   S407      1.0  0.84439  0.11026  0.13191  1.0000
  C   C960      1.0  0.85526  0.20661  0.06593  1.0000
  C   C961      1.0  0.83945  0.19507  0.04998  1.0000
  C   C962      1.0  0.83088  0.17527  0.05434  1.0000
  C   C963      1.0  0.83804  0.16684  0.07465  1.0000
  C   C964      1.0  0.85372  0.17842  0.09077  1.0000
  C   C965      1.0  0.86244  0.19817  0.08619  1.0000
  H   H1539     1.0  0.83397  0.20135  0.03398  1.0000
  H   H1540     1.0  0.81872  0.16644  0.04183  1.0000
  H   H1541     1.0  0.85899  0.17223  0.10709  1.0000
  H   H1542     1.0  0.87458  0.20699  0.09877  1.0000
  H   H1543     1.0  0.97074  0.13948  0.26487  1.0000
  C   C966      1.0  0.89939  0.13548  0.26053  1.0000
  C   C967      1.0  0.89169  0.12018  0.24204  1.0000
  C   C968      1.0  0.88893  0.12348  0.21461  1.0000
  C   C969      1.0  0.89416  0.14216  0.20541  1.0000
  C   C970      1.0  0.90191  0.15743  0.22392  1.0000
  C   C971      1.0  0.90432  0.15412  0.25136  1.0000
  H   H1544     1.0  0.88782  0.10570  0.24894  1.0000
  H   H1545     1.0  0.88298  0.11162  0.20053  1.0000
  H   H1546     1.0  0.90591  0.17192  0.21697  1.0000
  H   H1547     1.0  0.91000  0.16603  0.26535  1.0000
  C   C972      1.0  0.89503  0.14259  0.45734  1.0000
  C   C973      1.0  0.91358  0.14439  0.46480  1.0000
  H   H1548     1.0  0.72569  0.22295  0.32371  1.0000
  H   H1549     1.0  0.98312  0.23008  0.36296  1.0000
  H   H1550     1.0  0.73928  0.20595  0.40108  1.0000
  C   C974      1.0  0.88053  0.13583  0.47626  1.0000
  H   H1551     1.0  0.92486  0.14954  0.45039  1.0000
  H   H1552     1.0  0.66783  0.14438  0.22545  1.0000
  H   H1553     1.0  0.70616  0.19083  0.34067  1.0000
  H   H1554     1.0  0.86612  0.13432  0.47061  1.0000
  H   H1555     1.0  0.86043  0.12223  0.27937  1.0000
  C   C975      1.0  0.78536  0.23283  0.18235  1.0000
  C   C976      1.0  0.78173  0.23661  0.15544  1.0000
  H   H1556     1.0  0.77381  0.22778  0.19635  1.0000
  S   S408      1.0  0.79126  0.24680  0.10310  1.0000
  H   H1557     1.0  0.84509  0.25055  0.33208  1.0000
  C   C977      1.0  0.79403  0.22348  0.39515  1.0000
  C   C978      1.0  0.79861  0.22050  0.42191  1.0000
  H   H1558     1.0  0.78894  0.21164  0.38097  1.0000
  H   H1559     1.0  0.79691  0.20632  0.42818  1.0000
  C   C979      1.0  0.82835  0.17998  0.31914  1.0000
  C   C980      1.0  0.83934  0.19478  0.30239  1.0000
  C   C981      1.0  0.85930  0.20371  0.30669  1.0000
  C   C982      1.0  0.86844  0.19786  0.32766  1.0000
  C   C983      1.0  0.85742  0.18317  0.34454  1.0000
  C   C984      1.0  0.83749  0.17410  0.34007  1.0000
  H   H1560     1.0  0.83252  0.19915  0.28579  1.0000
  H   H1561     1.0  0.86772  0.21504  0.29351  1.0000
  H   H1562     1.0  0.86421  0.17892  0.36128  1.0000
  H   H1563     1.0  0.82908  0.16272  0.35319  1.0000
  C   C985      1.0  0.80400  0.23581  0.19111  1.0000
  C   C986      1.0  0.82711  0.01900  0.10569  1.0000
  C   C987      1.0  0.82562  0.03666  0.10996  1.0000
  C   C988      1.0  0.80832  0.03664  0.11900  1.0000
  C   C989      1.0  0.79278  0.01918  0.12368  1.0000
  H   H1564     1.0  0.84041  0.01881  0.09877  1.0000
  H   H1565     1.0  0.80690  0.05005  0.12237  1.0000
  H   H1566     1.0  0.77948  0.01938  0.13066  1.0000
  C   C990      1.0  0.87915  0.17287  0.03512  1.0000
  C   C991      1.0  0.68338  0.13113  0.27793  1.0000
  C   C992      1.0  0.70024  0.14796  0.27983  1.0000
  C   C993      1.0  0.69905  0.16570  0.28301  1.0000
  C   C994      1.0  0.68081  0.16637  0.28444  1.0000
  H   H1567     1.0  0.86398  0.09129  0.01781  1.0000
  H   H1568     1.0  0.68449  0.11750  0.27531  1.0000
  H   H1569     1.0  0.71413  0.14717  0.27871  1.0000
  H   H1570     1.0  0.67970  0.18001  0.28693  1.0000
  H   H1571     1.0  0.89685  0.08542  0.04808  1.0000
  C   C995      1.0  0.86561  0.23365  0.38197  1.0000
  N   N96       1.0  0.84646  0.14162  0.27242  1.0000
  C   C996      1.0  0.84935  0.14241  0.24308  1.0000
  C   C997      1.0  0.86210  0.15781  0.28586  1.0000
  C   C998      1.0  0.84655  0.12351  0.28301  1.0000
  C   C999      1.0  0.82790  0.14280  0.27783  1.0000
  H   H1572     1.0  0.83768  0.13056  0.23218  1.0000
  H   H1573     1.0  0.86305  0.14120  0.23829  1.0000
  H   H1574     1.0  0.84985  0.15611  0.23453  1.0000
  H   H1575     1.0  0.86272  0.17178  0.27826  1.0000
  H   H1576     1.0  0.86021  0.15767  0.30795  1.0000
  H   H1577     1.0  0.87630  0.15722  0.28274  1.0000
  H   H1578     1.0  0.66635  0.16491  0.20954  1.0000
  H   H1579     1.0  0.83496  0.11092  0.27335  1.0000
  H   H1580     1.0  0.84456  0.12255  0.30517  1.0000
  H   H1581     1.0  0.82517  0.14212  0.29980  1.0000
  H   H1582     1.0  0.81571  0.13093  0.26785  1.0000
  H   H1583     1.0  0.82745  0.15646  0.27052  1.0000
  H   H1584     1.0  0.71178  0.18346  0.37311  1.0000
  C   C1000     1.0  0.81522  0.24605  0.14581  1.0000
  H   H1585     1.0  0.88564  0.09186  0.00379  1.0000
  H   H1586     1.0  0.74680  0.21833  0.32889  1.0000
  N   N97       1.0  0.89498  0.18806  0.02168  1.0000
  H   H1587     1.0  0.75354  0.22917  0.38825  1.0000
  H   H1588     1.0  0.70412  0.21951  0.36184  1.0000
  C   C1001     1.0  0.89433  0.20679  0.02784  1.0000
  S   S409      1.0  0.81124  0.23088  0.47381  1.0000
  S   S410      1.0  0.80965  0.23157  0.22463  1.0000
  Fe  Fe205     1.0  0.84684  0.24634  0.04827  1.0000
  C   C1002     1.0  0.66346  0.14954  0.20643  1.0000
  C   C1003     1.0  0.95205  0.16295  0.26367  1.0000
  H   H1589     1.0  0.92579  0.19904  0.02177  1.0000
  C   C1004     1.0  0.79616  0.24172  0.38684  1.0000
  C   C1005     1.0  0.91751  0.13950  0.49102  1.0000
  H   H1590     1.0  0.74568  0.23913  0.34391  1.0000
  H   H1591     1.0  0.94231  0.14798  0.25834  1.0000
  C   C1006     1.0  0.89805  0.13416  0.00741  1.0000
  C   C1007     1.0  0.73709  0.22382  0.33891  1.0000
  C   C1008     1.0  0.81719  0.20773  0.11408  1.0000
  H   H1592     1.0  0.79359  0.16112  0.13039  1.0000
  H   H1593     1.0  0.83494  0.21035  0.35320  1.0000
  C   C1009     1.0  0.95881  0.15298  0.30747  1.0000
  S   S411      1.0  0.76909  0.22592  0.28143  1.0000
  H   H1594     1.0  0.79353  0.19884  0.15501  1.0000
  H   H1595     1.0  0.81326  0.21919  0.10527  1.0000
  C   C1010     1.0  0.78661  0.19313  0.13502  1.0000
  C   C1011     1.0  0.79069  0.18352  0.09013  1.0000
  H   H1596     1.0  0.78128  0.20368  0.12637  1.0000
  N   N98       1.0  0.96744  0.16356  0.28302  1.0000
  N   N99       1.0  0.80013  0.18981  0.11688  1.0000
  H   H1597     1.0  0.82754  0.21446  0.38565  1.0000
  H   H1598     1.0  0.77390  0.17975  0.13850  1.0000
  H   H1599     1.0  0.90607  0.21866  0.01808  1.0000
  H   H1600     1.0  0.94981  0.15944  0.31729  1.0000
  H   H1601     1.0  0.97081  0.19076  0.29993  1.0000
  H   H1602     1.0  0.98616  0.16228  0.25213  1.0000
  H   H1603     1.0  0.99108  0.18466  0.30518  1.0000
  C   C1012     1.0  0.80605  0.17495  0.12825  1.0000
  C   C1013     1.0  0.85065  0.05517  0.03442  1.0000
  H   H1604     1.0  0.89573  0.20983  0.04990  1.0000
  H   H1605     1.0  0.82774  0.20577  0.10065  1.0000
  H   H1606     1.0  0.87955  0.04360  0.02850  1.0000
  H   H1607     1.0  0.76728  0.23431  0.14881  1.0000
  H   H1608     1.0  0.82466  0.21303  0.13386  1.0000
  H   H1609     1.0  0.95791  0.17042  0.24466  1.0000
  H   H1610     1.0  0.94938  0.13782  0.30278  1.0000
  H   H1611     1.0  0.80368  0.00385  0.21066  1.0000
  H   H1612     1.0  0.88436  0.17508  0.47257  1.0000
  H   H1613     1.0  0.87314  0.19159  0.47761  1.0000
  H   H1614     1.0  0.96994  0.15323  0.32273  1.0000
  H   H1615     1.0  0.98615  0.19214  0.27244  1.0000
  H   H1616     1.0  0.82682  0.25100  0.13190  1.0000
  C   C1014     1.0  0.88176  0.07601  0.05239  1.0000
  C   C1015     1.0  0.91346  0.18786  0.03159  1.0000
  C   C1016     1.0  0.81889  0.24251  0.17274  1.0000
  H   H1617     1.0  0.87544  0.08505  0.06250  1.0000
  N   N100      1.0  0.72899  0.21264  0.36315  1.0000
  H   H1618     1.0  0.83336  0.24489  0.17941  1.0000
  H   H1619     1.0  0.86143  0.22726  0.40215  1.0000
  C   C1017     1.0  0.80547  0.23569  0.44064  1.0000
  S   S412      1.0  0.79099  0.24610  0.35315  1.0000
  H   H1620     1.0  0.91543  0.19035  0.05375  1.0000
  H   H1621     1.0  0.72398  0.23558  0.38196  1.0000
  H   H1622     1.0  0.88187  0.06510  0.06725  1.0000
  C   C1018     1.0  0.87076  0.08221  0.00881  1.0000
  H   H1623     1.0  0.84123  0.24644  0.40632  1.0000
  H   H1624     1.0  0.86872  0.22309  0.36954  1.0000
  C   C1019     1.0  0.71807  0.19241  0.35538  1.0000
  H   H1625     1.0  0.75465  0.20828  0.37339  1.0000
  H   H1626     1.0  0.86492  0.17244  0.02817  1.0000
  H   H1627     1.0  0.86749  0.12401  0.01147  1.0000
  C   C1020     1.0  0.97941  0.15464  0.27064  1.0000
  N   N101      1.0  0.85037  0.23861  0.36920  1.0000
  Fe  Fe206     1.0  0.81542  0.24486  0.00828  1.0000
  H   H1628     1.0  0.82090  0.22439  0.35611  1.0000
  H   H1629     1.0  0.81322  0.17927  0.14843  1.0000
  C   C1021     1.0  0.66395  0.14954  0.28273  1.0000
  H   H1630     1.0  0.87927  0.24641  0.38457  1.0000
  C   C1022     1.0  0.83266  0.22119  0.36592  1.0000
  H   H1631     1.0  0.70976  0.21222  0.39427  1.0000
  H   H1632     1.0  0.81631  0.17216  0.11509  1.0000
  H   H1633     1.0  0.89849  0.20023  0.47231  1.0000
  H   H1634     1.0  0.80052  0.18101  0.07589  1.0000
  H   H1635     1.0  0.72732  0.18621  0.34544  1.0000
  H   H1636     1.0  0.84366  0.06382  0.04426  1.0000
  C   C1023     1.0  0.85646  0.24700  0.34248  1.0000
  C   C1024     1.0  0.71612  0.22033  0.37589  1.0000
  Fe  Fe207     1.0  0.81223  0.25187  0.06927  1.0000
  H   H1637     1.0  0.85958  0.23691  0.32913  1.0000
  C   C1025     1.0  0.74474  0.21405  0.38237  1.0000
  N   N102      1.0  0.87063  0.06710  0.02758  1.0000
  H   H1638     1.0  0.94304  0.16993  0.27226  1.0000
  C   C1026     1.0  0.97942  0.18365  0.29035  1.0000
  C   C1027     1.0  0.79660  0.24306  0.13701  1.0000
  C   C1028     1.0  0.87938  0.05510  0.01477  1.0000
  H   H1639     1.0  0.84177  0.04820  0.01624  1.0000
  H   H1640     1.0  0.99113  0.15483  0.28481  1.0000
  H   H1641     1.0  0.89446  0.06375  0.00936  1.0000
  C   C1029     1.0  0.66514  0.13179  0.27931  1.0000
  H   H1642     1.0  0.88032  0.17509  0.05730  1.0000
  H   H1643     1.0  0.87929  0.15854  0.03128  1.0000
  C   C1030     1.0  0.88632  0.18895  0.48226  1.0000
  H   H1644     1.0  0.88051  0.20738  0.02078  1.0000
  H   H1645     1.0  0.67304  0.14850  0.19053  1.0000
  H   H1646     1.0  0.91431  0.17382  0.02745  1.0000
  C   C1031     1.0  0.87923  0.12945  0.99783  1.0000
  H   H1647     1.0  0.92774  0.14529  0.99664  1.0000
  C   C1032     1.0  0.84665  0.25257  0.38635  1.0000
  H   H1648     1.0  0.87133  0.04816  0.99597  1.0000
  Fe  Fe208     1.0  0.75186  0.19326  0.78054  1.0000
  S   S413      1.0  0.76840  0.22520  0.77728  1.0000
  S   S414      1.0  0.71993  0.18476  0.76988  1.0000
  Fe  Fe209     1.0  0.78831  0.18770  0.79831  1.0000
  S   S415      1.0  0.80645  0.21886  0.79659  1.0000
  S   S416      1.0  0.80273  0.16844  0.81341  1.0000
  Fe  Fe210     1.0  0.78236  0.22279  0.81692  1.0000
  H   H1649     1.0  0.95989  0.14852  0.77673  1.0000
  Fe  Fe211     1.0  0.79090  0.21800  0.75704  1.0000
  S   S417      1.0  0.78869  0.24466  0.85084  1.0000
  S   S418      1.0  0.76486  0.19152  0.82136  1.0000
  S   S419      1.0  0.77376  0.18628  0.75771  1.0000
  Fe  Fe212     1.0  0.91925  0.15692  0.82836  1.0000
  S   S420      1.0  0.93470  0.18873  0.82663  1.0000
  S   S421      1.0  0.91837  0.13694  0.79380  1.0000
  Fe  Fe213     1.0  0.90593  0.15835  0.88648  1.0000
  S   S422      1.0  0.92048  0.19034  0.88847  1.0000
  S   S423      1.0  0.88498  0.14148  0.91814  1.0000
  Fe  Fe214     1.0  0.90846  0.18923  0.84630  1.0000
  S   S424      1.0  0.89315  0.20737  0.83001  1.0000
  Fe  Fe215     1.0  0.94534  0.18659  0.86881  1.0000
  S   S425      1.0  0.97599  0.19886  0.88650  1.0000
  S   S426      1.0  0.89248  0.15758  0.84524  1.0000
  S   S427      1.0  0.93127  0.15438  0.86951  1.0000
  S   S428      1.0  0.82277  0.23331  0.54742  1.0000
  S   S429      1.0  0.87283  0.23545  0.56685  1.0000
  Fe  Fe216     1.0  0.85916  0.09396  0.61157  1.0000
  S   S430      1.0  0.89125  0.11030  0.61585  1.0000
  S   S431      1.0  0.85222  0.06186  0.61527  1.0000
  Fe  Fe217     1.0  0.85373  0.13086  0.59674  1.0000
  S   S432      1.0  0.88515  0.14859  0.59894  1.0000
  S   S433      1.0  0.83421  0.14561  0.58341  1.0000
  Fe  Fe218     1.0  0.88816  0.12429  0.57712  1.0000
  S   S434      1.0  0.90851  0.12750  0.54300  1.0000
  Fe  Fe219     1.0  0.88480  0.13286  0.63752  1.0000
  S   S435      1.0  0.90011  0.15292  0.67250  1.0000
  S   S436      1.0  0.85661  0.10736  0.57197  1.0000
  S   S437      1.0  0.85292  0.11584  0.63619  1.0000
  C   C1033     1.0  0.86155  0.21058  0.57208  1.0000
  C   C1034     1.0  0.84473  0.19931  0.55780  1.0000
  C   C1035     1.0  0.83634  0.17948  0.56172  1.0000
  C   C1036     1.0  0.84489  0.17064  0.57955  1.0000
  C   C1037     1.0  0.86166  0.18190  0.59392  1.0000
  C   C1038     1.0  0.87003  0.20176  0.59005  1.0000
  H   H1650     1.0  0.83846  0.20575  0.54308  1.0000
  H   H1651     1.0  0.82342  0.17088  0.55040  1.0000
  H   H1652     1.0  0.86810  0.17539  0.60834  1.0000
  H   H1653     1.0  0.88304  0.21033  0.60120  1.0000
  H   H1654     1.0  0.89369  0.17079  0.98691  1.0000
  C   C1039     1.0  0.91377  0.14151  0.75993  1.0000
  C   C1040     1.0  0.90689  0.12633  0.74115  1.0000
  C   C1041     1.0  0.90253  0.12947  0.71424  1.0000
  C   C1042     1.0  0.90545  0.14791  0.70581  1.0000
  C   C1043     1.0  0.91274  0.16311  0.72449  1.0000
  C   C1044     1.0  0.91682  0.15994  0.75141  1.0000
  H   H1655     1.0  0.90463  0.11204  0.74752  1.0000
  H   H1656     1.0  0.89702  0.11767  0.70000  1.0000
  H   H1657     1.0  0.91512  0.17743  0.71809  1.0000
  H   H1658     1.0  0.92219  0.17178  0.76556  1.0000
  C   C1045     1.0  0.89057  0.13909  0.95240  1.0000
  C   C1046     1.0  0.90943  0.14422  0.96208  1.0000
  H   H1659     1.0  0.84759  0.06648  0.55450  1.0000
  H   H1660     1.0  0.95496  0.15856  0.82166  1.0000
  H   H1661     1.0  0.70390  0.19678  0.88683  1.0000
  C   C1047     1.0  0.87551  0.13167  0.97041  1.0000
  H   H1662     1.0  0.92114  0.14993  0.94841  1.0000
  C   C1048     1.0  0.78559  0.23977  0.65399  1.0000
  H   H1663     1.0  0.84827  0.12455  0.73981  1.0000
  H   H1664     1.0  0.86088  0.12776  0.96308  1.0000
  H   H1665     1.0  0.87324  0.23902  0.88188  1.0000
  C   C1049     1.0  0.84009  0.22846  0.90706  1.0000
  H   H1666     1.0  0.85178  0.24068  0.91727  1.0000
  C   C1050     1.0  0.80681  0.23731  0.69009  1.0000
  H   H1667     1.0  0.78065  0.20172  0.92796  1.0000
  C   C1051     1.0  0.79080  0.23913  0.88510  1.0000
  N   N103      1.0  0.80645  0.18949  0.62758  1.0000
  H   H1668     1.0  0.73253  0.18422  0.86059  1.0000
  C   C1052     1.0  0.78384  0.22026  0.89396  1.0000
  C   C1053     1.0  0.78605  0.21637  0.92126  1.0000
  C   C1054     1.0  0.82790  0.17903  0.81738  1.0000
  C   C1055     1.0  0.83882  0.19484  0.80218  1.0000
  C   C1056     1.0  0.85881  0.20340  0.80622  1.0000
  C   C1057     1.0  0.86807  0.19613  0.82528  1.0000
  C   C1058     1.0  0.85721  0.18015  0.84021  1.0000
  C   C1059     1.0  0.83719  0.17161  0.83622  1.0000
  H   H1669     1.0  0.83192  0.20033  0.78700  1.0000
  H   H1670     1.0  0.86713  0.21566  0.79441  1.0000
  H   H1671     1.0  0.86417  0.17457  0.85523  1.0000
  H   H1672     1.0  0.82885  0.15939  0.84807  1.0000
  C   C1060     1.0  0.97136  0.18617  0.78538  1.0000
  C   C1061     1.0  0.83171  0.02299  0.61431  1.0000
  C   C1062     1.0  0.83058  0.04103  0.61377  1.0000
  C   C1063     1.0  0.81251  0.04187  0.61209  1.0000
  C   C1064     1.0  0.79581  0.02487  0.61129  1.0000
  H   H1673     1.0  0.84562  0.02216  0.61542  1.0000
  H   H1674     1.0  0.81137  0.05559  0.61163  1.0000
  H   H1675     1.0  0.86524  0.07501  0.49829  1.0000
  S   S438      1.0  0.81158  0.23214  0.72357  1.0000
  C   C1065     1.0  0.68038  0.13402  0.79677  1.0000
  C   C1066     1.0  0.69800  0.14911  0.79137  1.0000
  C   C1067     1.0  0.69828  0.16484  0.77653  1.0000
  C   C1068     1.0  0.68072  0.16521  0.76723  1.0000
  H   H1676     1.0  0.77675  0.20865  0.87983  1.0000
  H   H1677     1.0  0.68035  0.12189  0.80815  1.0000
  H   H1678     1.0  0.71133  0.14847  0.79850  1.0000
  H   H1679     1.0  0.68072  0.17727  0.75571  1.0000
  C   C1069     1.0  0.86203  0.13616  0.74645  1.0000
  N   N104      1.0  0.87285  0.06598  0.53643  1.0000
  H   H1680     1.0  0.84346  0.16626  0.77238  1.0000
  H   H1681     1.0  0.83175  0.14592  0.75085  1.0000
  C   C1070     1.0  0.84599  0.15702  0.75693  1.0000
  H   H1682     1.0  0.85193  0.16606  0.73911  1.0000
  H   H1683     1.0  0.97778  0.19142  0.76560  1.0000
  H   H1684     1.0  0.86043  0.13007  0.79976  1.0000
  C   C1071     1.0  0.79542  0.23124  0.93991  1.0000
  C   C1072     1.0  0.90749  0.18515  0.51691  1.0000
  H   H1685     1.0  0.87834  0.04041  0.53848  1.0000
  H   H1686     1.0  0.77148  0.23850  0.64712  1.0000
  C   C1073     1.0  0.79693  0.00685  0.61201  1.0000
  C   C1074     1.0  0.80274  0.16918  0.62260  1.0000
  H   H1687     1.0  0.87084  0.15925  0.51495  1.0000
  H   H1688     1.0  0.82857  0.24797  0.87027  1.0000
  H   H1689     1.0  0.72952  0.20945  0.88869  1.0000
  H   H1690     1.0  0.83622  0.19926  0.61818  1.0000
  C   C1075     1.0  0.66282  0.13433  0.78734  1.0000
  N   N105      1.0  0.97956  0.17337  0.79802  1.0000
  C   C1076     1.0  0.88451  0.13123  0.50253  1.0000
  C   C1077     1.0  0.97562  0.15660  0.78026  1.0000
  C   C1078     1.0  0.82193  0.24328  0.67204  1.0000
  H   H1691     1.0  0.95560  0.17867  0.78181  1.0000
  H   H1692     1.0  0.97279  0.17921  0.83783  1.0000
  H   H1693     1.0  0.86129  0.21349  0.87888  1.0000
  N   N106      1.0  0.71748  0.20188  0.84859  1.0000
  C   C1079     1.0  0.69982  0.19984  0.83316  1.0000
  C   C1080     1.0  0.71628  0.20764  0.87665  1.0000
  C   C1081     1.0  0.73421  0.21660  0.83602  1.0000
  H   H1694     1.0  0.82633  0.19830  0.87271  1.0000
  H   H1695     1.0  0.83032  0.21551  0.63843  1.0000
  H   H1696     1.0  0.87323  0.12628  0.51694  1.0000
  H   H1697     1.0  0.90458  0.21933  0.51478  1.0000
  N   N107      1.0  0.88993  0.18874  0.51165  1.0000
  C   C1082     1.0  0.88524  0.07475  0.56031  1.0000
  H   H1698     1.0  0.97682  0.15767  0.83483  1.0000
  C   C1083     1.0  0.87776  0.16370  0.77530  1.0000
  C   C1084     1.0  0.85085  0.13679  0.79132  1.0000
  H   H1699     1.0  0.88474  0.17252  0.75775  1.0000
  H   H1700     1.0  0.87612  0.17350  0.79063  1.0000
  H   H1701     1.0  0.88777  0.15770  0.78422  1.0000
  H   H1702     1.0  0.87177  0.12934  0.75390  1.0000
  H   H1703     1.0  0.83667  0.12521  0.78633  1.0000
  H   H1704     1.0  0.86006  0.17594  0.52090  1.0000
  H   H1705     1.0  0.83136  0.19439  0.65314  1.0000
  N   N108      1.0  0.85914  0.14841  0.76749  1.0000
  H   H1706     1.0  0.86859  0.14454  0.72831  1.0000
  H   H1707     1.0  0.87010  0.04496  0.50599  1.0000
  H   H1708     1.0  0.84870  0.14568  0.80768  1.0000
  C   C1085     1.0  0.87348  0.17346  0.52387  1.0000
  H   H1709     1.0  0.83998  0.21505  0.91615  1.0000
  C   C1086     1.0  0.71966  0.18342  0.84849  1.0000
  H   H1710     1.0  0.86953  0.09184  0.52544  1.0000
  H   H1711     1.0  0.82782  0.21202  0.84294  1.0000
  H   H1712     1.0  0.70694  0.17176  0.85676  1.0000
  H   H1713     1.0  0.72132  0.17902  0.82768  1.0000
  C   C1087     1.0  0.82698  0.20012  0.63467  1.0000
  H   H1714     1.0  0.73543  0.21275  0.81474  1.0000
  H   H1715     1.0  0.78738  0.16068  0.61733  1.0000
  C   C1088     1.0  0.78857  0.23549  0.68093  1.0000
  H   H1716     1.0  0.90632  0.17147  0.50753  1.0000
  H   H1717     1.0  0.79674  0.20602  0.65380  1.0000
  H   H1718     1.0  0.80541  0.00617  0.66945  1.0000
  H   H1719     1.0  0.98596  0.22224  0.83775  1.0000
  H   H1720     1.0  0.87593  0.17251  0.54592  1.0000
  H   H1721     1.0  0.69756  0.21342  0.83299  1.0000
  H   H1722     1.0  0.85121  0.04493  0.55965  1.0000
  H   H1723     1.0  0.88077  0.08537  0.57006  1.0000
  C   C1089     1.0  0.82659  0.21215  0.86512  1.0000
  Fe  Fe220     1.0  0.82490  0.25052  0.50988  1.0000
  H   H1724     1.0  0.87933  0.21049  0.52034  1.0000
  H   H1725     1.0  0.80996  0.19677  0.58568  1.0000
  H   H1726     1.0  0.92030  0.19664  0.50859  1.0000
  H   H1727     1.0  0.87896  0.18425  0.98416  1.0000
  C   C1090     1.0  0.85276  0.05631  0.54468  1.0000
  C   C1091     1.0  0.90304  0.13309  0.51007  1.0000
  H   H1728     1.0  0.90050  0.08245  0.55494  1.0000
  H   H1729     1.0  0.83531  0.01348  0.69590  1.0000
  H   H1730     1.0  0.81244  0.21264  0.86906  1.0000
  H   H1731     1.0  0.78189  0.02570  0.61022  1.0000
  H   H1732     1.0  0.97385  0.19890  0.79838  1.0000
  H   H1733     1.0  0.77682  0.23093  0.69464  1.0000
  H   H1734     1.0  0.80416  0.21309  0.60603  1.0000
  C   C1092     1.0  0.89295  0.18465  0.99225  1.0000
  H   H1735     1.0  0.81123  0.16746  0.60566  1.0000
  H   H1736     1.0  0.71457  0.22150  0.87749  1.0000
  H   H1737     1.0  0.73318  0.23077  0.83587  1.0000
  H   H1738     1.0  0.86357  0.22815  0.84993  1.0000
  C   C1093     1.0  0.81887  0.24719  0.64503  1.0000
  C   C1094     1.0  0.97065  0.16691  0.82421  1.0000
  H   H1739     1.0  0.89524  0.20775  0.54574  1.0000
  H   H1740     1.0  0.88445  0.06394  0.57584  1.0000
  H   H1741     1.0  0.82635  0.22951  0.91201  1.0000
  H   H1742     1.0  0.79856  0.18552  0.66915  1.0000
  C   C1095     1.0  0.89240  0.20737  0.52359  1.0000
  H   H1743     1.0  0.77914  0.18280  0.64563  1.0000
  S   S439      1.0  0.79841  0.22533  0.97371  1.0000
  C   C1096     1.0  0.80140  0.19771  0.60304  1.0000
  H   H1744     1.0  0.80668  0.16260  0.64057  1.0000
  N   N109      1.0  0.84249  0.22859  0.87763  1.0000
  H   H1745     1.0  0.90454  0.19594  0.98138  1.0000
  H   H1746     1.0  0.74784  0.21841  0.84694  1.0000
  C   C1097     1.0  0.79470  0.19096  0.65001  1.0000
  H   H1747     1.0  0.91027  0.18422  0.53890  1.0000
  H   H1748     1.0  0.78598  0.19020  0.59714  1.0000
  C   C1098     1.0  0.81501  0.00600  0.61326  1.0000
  H   H1749     1.0  0.70048  0.19580  0.81179  1.0000
  C   C1099     1.0  0.91312  0.14158  0.98943  1.0000
  C   C1100     1.0  0.86094  0.22726  0.87190  1.0000
  H   H1750     1.0  0.68691  0.18851  0.84160  1.0000
  C   C1101     1.0  0.66311  0.15008  0.77254  1.0000
  H   H1751     1.0  0.98207  0.16090  0.76024  1.0000
  C   C1102     1.0  0.80239  0.25012  0.93106  1.0000
  C   C1103     1.0  0.84229  0.24650  0.86636  1.0000
  C   C1104     1.0  0.80070  0.24559  0.63593  1.0000
  H   H1752     1.0  0.93188  0.14092  0.49667  1.0000
  H   H1753     1.0  0.83609  0.24472  0.67900  1.0000
  C   C1105     1.0  0.87426  0.08101  0.51674  1.0000
  C   C1106     1.0  0.87918  0.05189  0.52406  1.0000
  H   H1754     1.0  0.84290  0.04962  0.52722  1.0000
  H   H1755     1.0  0.86278  0.07615  0.98961  1.0000
  H   H1756     1.0  0.84383  0.24693  0.84411  1.0000
  Fe  Fe221     1.0  0.85405  0.25085  0.55292  1.0000
  H   H1757     1.0  0.88931  0.08889  0.51052  1.0000
  H   H1758     1.0  0.89428  0.05876  0.51762  1.0000
  S   S440      1.0  0.79648  0.25108  0.60234  1.0000
  H   H1759     1.0  0.82197  0.00764  0.72624  1.0000
  H   H1760     1.0  0.83062  0.25155  0.63135  1.0000
  H   H1761     1.0  0.98142  0.14651  0.78928  1.0000
  H   H1762     1.0  0.92686  0.42458  0.44724  1.0000
  H   H1763     1.0  0.91801  0.35282  0.03197  1.0000
  S   S441      1.0  0.84729  0.26205  0.00952  1.0000
  Fe  Fe222     1.0  0.92901  0.42417  0.03082  1.0000
  S   S442      1.0  0.90709  0.43730  0.03183  1.0000
  H   H1764     1.0  0.97852  0.48662  0.12796  1.0000
  C   C1107     1.0  0.81507  0.30214  0.08731  1.0000
  S   S443      1.0  0.91523  0.45849  0.45214  1.0000
  Fe  Fe223     1.0  0.92938  0.46067  0.05701  1.0000
  S   S444      1.0  0.92435  0.47828  0.09078  1.0000
  H   H1765     1.0  0.89739  0.39462  0.41004  1.0000
  S   S445      1.0  0.95050  0.44656  0.05841  1.0000
  Fe  Fe224     1.0  0.96208  0.46322  0.02087  1.0000
  C   C1108     1.0  0.80279  0.25690  0.40561  1.0000
  Fe  Fe225     1.0  0.93061  0.49038  0.24671  1.0000
  S   S446      1.0  0.91701  0.46533  0.21745  1.0000
  S   S447      1.0  0.95840  0.49198  0.26601  1.0000
  H   H1766     1.0  0.92935  0.40415  0.43257  1.0000
  Fe  Fe226     1.0  0.84099  0.28324  0.03562  1.0000
  S   S448      1.0  0.80890  0.26673  0.03154  1.0000
  S   S449      1.0  0.84792  0.31544  0.03367  1.0000
  H   H1767     1.0  0.90144  0.46083  0.39831  1.0000
  C   C1109     1.0  0.96903  0.48643  0.14471  1.0000
  H   H1768     1.0  0.90422  0.37157  0.43982  1.0000
  H   H1769     1.0  0.82939  0.33077  0.14290  1.0000
  H   H1770     1.0  0.82151  0.33598  0.11055  1.0000
  S   S450      1.0  0.91912  0.49606  0.28614  1.0000
  S   S451      1.0  0.84371  0.26906  0.07449  1.0000
  H   H1771     1.0  0.79976  0.29419  0.09224  1.0000
  H   H1772     1.0  0.96025  0.47123  0.14933  1.0000
  S   S452      1.0  0.94236  0.47861  0.02088  1.0000
  N   N110      1.0  0.82715  0.31046  0.11162  1.0000
  C   C1110     1.0  0.92049  0.48815  0.14255  1.0000
  C   C1111     1.0  0.84733  0.32043  0.10392  1.0000
  S   S453      1.0  0.92379  0.39238  0.03210  1.0000
  H   H1773     1.0  0.83437  0.30068  0.14943  1.0000
  H   H1774     1.0  0.90732  0.37592  0.47547  1.0000
  H   H1775     1.0  0.80443  0.27107  0.39937  1.0000
  C   C1112     1.0  0.90252  0.37121  0.03375  1.0000
  C   C1113     1.0  0.92368  0.40912  0.45010  1.0000
  C   C1114     1.0  0.88754  0.33613  0.03306  1.0000
  C   C1115     1.0  0.86932  0.33657  0.03391  1.0000
  C   C1116     1.0  0.86782  0.35443  0.03485  1.0000
  C   C1117     1.0  0.88429  0.37164  0.03492  1.0000
  H   H1776     1.0  0.87685  0.39185  0.42951  1.0000
  C   C1118     1.0  0.90400  0.35335  0.03287  1.0000
  H   H1777     1.0  0.85381  0.35496  0.03557  1.0000
  H   H1778     1.0  0.88286  0.38521  0.03588  1.0000
  C   C1119     1.0  0.92093  0.47355  0.12561  1.0000
  C   C1120     1.0  0.80756  0.25395  0.43239  1.0000
  C   C1121     1.0  0.91916  0.48574  0.17060  1.0000
  C   C1122     1.0  0.91807  0.46859  0.18208  1.0000
  C   C1123     1.0  0.91807  0.45379  0.16511  1.0000
  C   C1124     1.0  0.91966  0.45629  0.13699  1.0000
  C   C1125     1.0  0.82056  0.32419  0.12449  1.0000
  H   H1779     1.0  0.80537  0.31710  0.13050  1.0000
  H   H1780     1.0  0.91708  0.44041  0.17379  1.0000
  H   H1781     1.0  0.91995  0.44493  0.12418  1.0000
  C   C1126     1.0  0.92744  0.46895  0.42267  1.0000
  C   C1127     1.0  0.94740  0.47812  0.42279  1.0000
  H   H1782     1.0  0.88897  0.32255  0.03232  1.0000
  C   C1128     1.0  0.94622  0.48523  0.37489  1.0000
  C   C1129     1.0  0.92623  0.47603  0.37472  1.0000
  C   C1130     1.0  0.91689  0.46797  0.39857  1.0000
  H   H1783     1.0  0.95567  0.47897  0.44121  1.0000
  H   H1784     1.0  0.81592  0.31329  0.07228  1.0000
  H   H1785     1.0  0.91799  0.47494  0.35622  1.0000
  C   C1131     1.0  0.82561  0.29503  0.13065  1.0000
  N   N111      1.0  0.90292  0.39798  0.45281  1.0000
  C   C1132     1.0  0.89941  0.37767  0.45709  1.0000
  C   C1133     1.0  0.89608  0.40531  0.47609  1.0000
  H   H1786     1.0  0.95819  0.48031  0.19576  1.0000
  H   H1787     1.0  0.90415  0.40476  0.49486  1.0000
  H   H1788     1.0  0.93192  0.40780  0.46839  1.0000
  H   H1789     1.0  0.89511  0.41523  0.42450  1.0000
  H   H1790     1.0  0.86968  0.26030  0.34414  1.0000
  N   N112      1.0  0.98008  0.49696  0.16871  1.0000
  H   H1791     1.0  0.88064  0.39684  0.47948  1.0000
  C   C1134     1.0  0.89258  0.39995  0.42809  1.0000
  H   H1792     1.0  0.88394  0.36886  0.45990  1.0000
  C   C1135     1.0  0.95671  0.48623  0.39901  1.0000
  H   H1793     1.0  0.89799  0.42044  0.47323  1.0000
  H   H1794     1.0  0.95904  0.49285  0.13690  1.0000
  H   H1795     1.0  0.81277  0.26574  0.44667  1.0000
  H   H1796     1.0  0.85271  0.31053  0.09381  1.0000
  H   H1797     1.0  0.81050  0.28690  0.13641  1.0000
  H   H1798     1.0  0.84898  0.33209  0.08939  1.0000
  H   H1799     1.0  0.81981  0.29188  0.07710  1.0000
  H   H1800     1.0  0.83060  0.28452  0.12155  1.0000
  H   H1801     1.0  0.85696  0.32684  0.12171  1.0000
  S   S454      1.0  0.95350  0.44588  0.49289  1.0000
  C   C1136     1.0  0.96690  0.49545  0.19073  1.0000
  Fe  Fe227     1.0  0.93151  0.45870  0.49146  1.0000
  H   H1802     1.0  0.98646  0.47338  0.18285  1.0000
  S   S455      1.0  0.95888  0.49613  0.34591  1.0000
  H   H1803     1.0  0.91886  0.49713  0.18333  1.0000
  H   H1804     1.0  0.95682  0.50234  0.18534  1.0000
  H   H1805     1.0  0.85983  0.26567  0.39005  1.0000
  H   H1806     1.0  0.97217  0.49330  0.39932  1.0000
  H   H1807     1.0  0.97483  0.50260  0.20945  1.0000
  Fe  Fe228     1.0  0.94822  0.50051  0.30406  1.0000
  H   H1808     1.0  0.83566  0.25706  0.37676  1.0000
  H   H1809     1.0  0.92138  0.50152  0.13392  1.0000
  H   H1810     1.0  0.66061  0.49961  0.44018  1.0000
  Fe  Fe229     1.0  0.92222  0.45403  0.99590  1.0000
  S   S456      1.0  0.94895  0.48366  0.51822  1.0000
  H   H1811     1.0  0.94864  0.48334  0.95878  1.0000
  H   H1812     1.0  0.90873  0.47743  0.86431  1.0000
  Fe  Fe230     1.0  0.93741  0.42926  0.52826  1.0000
  S   S457      1.0  0.91463  0.44119  0.52573  1.0000
  H   H1813     1.0  0.88874  0.36340  0.94299  1.0000
  Fe  Fe231     1.0  0.81868  0.25661  0.57021  1.0000
  S   S458      1.0  0.90600  0.45876  0.95928  1.0000
  Fe  Fe232     1.0  0.93446  0.46484  0.55283  1.0000
  S   S459      1.0  0.92710  0.48036  0.58692  1.0000
  H   H1814     1.0  0.87072  0.46232  0.71215  1.0000
  S   S460      1.0  0.95620  0.45180  0.55801  1.0000
  Fe  Fe233     1.0  0.93322  0.48356  0.80549  1.0000
  S   S461      1.0  0.94058  0.46978  0.84249  1.0000
  Fe  Fe234     1.0  0.92563  0.47720  0.74379  1.0000
  S   S462      1.0  0.91933  0.45552  0.70961  1.0000
  S   S463      1.0  0.95170  0.48410  0.77067  1.0000
  S   S464      1.0  0.90651  0.47345  0.77898  1.0000
  Fe  Fe235     1.0  0.84930  0.28837  0.53962  1.0000
  S   S465      1.0  0.81738  0.27220  0.53221  1.0000
  S   S466      1.0  0.85678  0.32074  0.53995  1.0000
  H   H1815     1.0  0.89716  0.32760  0.53046  1.0000
  C   C1137     1.0  0.88178  0.47716  0.71246  1.0000
  S   S467      1.0  0.85674  0.26746  0.51450  1.0000
  C   C1138     1.0  0.89065  0.39774  0.92692  1.0000
  H   H1816     1.0  0.87503  0.39457  0.92686  1.0000
  H   H1817     1.0  0.89548  0.47633  0.70682  1.0000
  S   S468      1.0  0.84996  0.27330  0.57853  1.0000
  C   C1139     1.0  0.91232  0.35838  0.53010  1.0000
  H   H1818     1.0  0.96742  0.48626  0.60817  1.0000
  H   H1819     1.0  0.85373  0.33440  0.59608  1.0000
  H   H1820     1.0  0.83282  0.33164  0.64893  1.0000
  H   H1821     1.0  0.83820  0.30174  0.65474  1.0000
  H   H1822     1.0  0.89208  0.39049  0.53965  1.0000
  C   C1140     1.0  0.85848  0.49077  0.70298  1.0000
  S   S469      1.0  0.94277  0.43967  0.99341  1.0000
  H   H1823     1.0  0.82512  0.29415  0.58187  1.0000
  C   C1141     1.0  0.85192  0.32251  0.61028  1.0000
  C   C1142     1.0  0.91113  0.37632  0.53260  1.0000
  H   H1824     1.0  0.89322  0.38941  0.91019  1.0000
  C   C1143     1.0  0.89594  0.34123  0.53237  1.0000
  C   C1144     1.0  0.87808  0.34179  0.53707  1.0000
  C   C1145     1.0  0.87689  0.35973  0.53954  1.0000
  C   C1146     1.0  0.89327  0.37687  0.53741  1.0000
  S   S470      1.0  0.93221  0.39744  0.52844  1.0000
  N   N113      1.0  0.83160  0.31213  0.61701  1.0000
  C   C1147     1.0  0.89402  0.40487  0.97450  1.0000
  H   H1825     1.0  0.87129  0.36903  0.96085  1.0000
  C   C1148     1.0  0.92542  0.47315  0.62083  1.0000
  C   C1149     1.0  0.92684  0.48657  0.64103  1.0000
  C   C1150     1.0  0.92547  0.48144  0.66831  1.0000
  C   C1151     1.0  0.92209  0.46268  0.67561  1.0000
  C   C1152     1.0  0.92066  0.44924  0.65538  1.0000
  C   C1153     1.0  0.92251  0.45449  0.62808  1.0000
  C   C1154     1.0  0.97551  0.48353  0.66072  1.0000
  H   H1826     1.0  0.82120  0.31558  0.57738  1.0000
  H   H1827     1.0  0.91806  0.43469  0.66087  1.0000
  H   H1828     1.0  0.92128  0.44401  0.61264  1.0000
  C   C1155     1.0  0.91472  0.46050  0.92633  1.0000
  C   C1156     1.0  0.92954  0.45474  0.92038  1.0000
  C   C1157     1.0  0.93697  0.45733  0.89441  1.0000
  C   C1158     1.0  0.92966  0.46569  0.87411  1.0000
  C   C1159     1.0  0.91451  0.47105  0.87984  1.0000
  C   C1160     1.0  0.90698  0.46832  0.90584  1.0000
  H   H1829     1.0  0.93552  0.44855  0.93586  1.0000
  C   C1161     1.0  0.98284  0.49033  0.61392  1.0000
  H   H1830     1.0  0.80915  0.31793  0.63538  1.0000
  C   C1162     1.0  0.88691  0.37270  0.95902  1.0000
  H   H1831     1.0  0.82551  0.33739  0.61652  1.0000
  H   H1832     1.0  0.89540  0.47269  0.91024  1.0000
  N   N114      1.0  0.89742  0.39316  0.95315  1.0000
  C   C1163     1.0  0.96389  0.49094  0.95341  1.0000
  H   H1833     1.0  0.87003  0.49106  0.65194  1.0000
  H   H1834     1.0  0.89216  0.36876  0.97833  1.0000
  Fe  Fe236     1.0  0.96983  0.46960  0.52219  1.0000
  H   H1835     1.0  0.89931  0.40211  0.99449  1.0000
  H   H1836     1.0  0.86317  0.36037  0.54322  1.0000
  H   H1837     1.0  0.97268  0.49191  0.97203  1.0000
  H   H1838     1.0  0.92121  0.38844  0.93693  1.0000
  H   H1839     1.0  0.92387  0.39475  0.97208  1.0000
  C   C1164     1.0  0.82009  0.30419  0.59210  1.0000
  H   H1840     1.0  0.80469  0.29603  0.59633  1.0000
  H   H1841     1.0  0.94864  0.45308  0.89005  1.0000
  H   H1842     1.0  0.87852  0.40187  0.97613  1.0000
  H   H1843     1.0  0.96013  0.47988  0.65593  1.0000
  N   N115      1.0  0.87649  0.48972  0.69415  1.0000
  H   H1844     1.0  0.85410  0.25925  0.87525  1.0000
  H   H1845     1.0  0.92648  0.41262  0.94716  1.0000
  C   C1165     1.0  0.91815  0.39743  0.95226  1.0000
  C   C1166     1.0  0.79992  0.25403  0.90380  1.0000
  H   H1846     1.0  0.88715  0.48071  0.65939  1.0000
  H   H1847     1.0  0.97963  0.49967  0.73266  1.0000
  H   H1848     1.0  0.80528  0.26868  0.89712  1.0000
  H   H1849     1.0  0.81467  0.28798  0.64063  1.0000
  H   H1850     1.0  0.90151  0.42037  0.97051  1.0000
  C   C1167     1.0  0.82988  0.29639  0.63556  1.0000
  C   C1168     1.0  0.82445  0.32538  0.63005  1.0000
  H   H1851     1.0  0.83525  0.28620  0.62636  1.0000
  H   H1852     1.0  0.95888  0.49915  0.90201  1.0000
  H   H1853     1.0  0.96742  0.48184  0.93876  1.0000
  H   H1854     1.0  0.86110  0.32867  0.62854  1.0000
  H   H1855     1.0  0.85773  0.31296  0.60016  1.0000
  H   H1856     1.0  0.80957  0.26169  0.94524  1.0000
  H   H1857     1.0  0.89816  0.41319  0.92220  1.0000
  H   H1858     1.0  0.84660  0.47639  0.70309  1.0000
  H   H1859     1.0  0.92926  0.50108  0.63555  1.0000
  H   H1860     1.0  0.98325  0.45524  0.61352  1.0000
  N   N116      1.0  0.98515  0.47948  0.63752  1.0000
  H   H1861     1.0  0.98991  0.48760  0.59595  1.0000
  C   C1169     1.0  0.87383  0.48186  0.66643  1.0000
  H   H1862     1.0  0.92604  0.35774  0.52642  1.0000
  H   H1863     1.0  0.92709  0.49202  0.68362  1.0000
  H   H1864     1.0  0.96083  0.45407  0.62588  1.0000
  H   H1865     1.0  0.94006  0.50080  0.92152  1.0000
  H   H1866     1.0  0.97625  0.47502  0.67862  1.0000
  C   C1170     1.0  0.97640  0.45882  0.63106  1.0000
  H   H1867     1.0  0.66135  0.49197  0.95912  1.0000
  H   H1868     1.0  0.86228  0.46727  0.66516  1.0000
  H   H1869     1.0  0.98203  0.49889  0.66673  1.0000
  H   H1870     1.0  0.97782  0.45015  0.64840  1.0000
  H   H1871     1.0  0.88363  0.48245  0.73363  1.0000
  H   H1872     1.0  0.86020  0.49679  0.72382  1.0000
  H   H1873     1.0  0.85399  0.50010  0.68963  1.0000
  S   S471      1.0  0.96116  0.53155  0.29381  1.0000
  Fe  Fe237     1.0  0.86041  0.74550  0.36099  1.0000
  H   H1874     1.0  0.98533  0.51072  0.02534  1.0000
  H   H1875     1.0  0.84291  0.67499  0.25124  1.0000
  H   H1876     1.0  0.91652  0.55279  0.34632  1.0000
  S   S472      1.0  0.92522  0.55216  0.28619  1.0000
  S   S473      1.0  0.84434  0.71547  0.37574  1.0000
  Fe  Fe238     1.0  0.85451  0.63264  0.30539  1.0000
  S   S474      1.0  0.82543  0.63233  0.29607  1.0000
  S   S475      1.0  0.87725  0.65988  0.32192  1.0000
  Fe  Fe239     1.0  0.84255  0.59083  0.28929  1.0000
  S   S476      1.0  0.81236  0.58792  0.27869  1.0000
  S   S477      1.0  0.84571  0.56232  0.28683  1.0000
  Fe  Fe240     1.0  0.82612  0.61627  0.25842  1.0000
  S   S478      1.0  0.81788  0.62833  0.22032  1.0000
  Fe  Fe241     1.0  0.81486  0.60428  0.31733  1.0000
  S   S479      1.0  0.79069  0.59610  0.34685  1.0000
  S   S480      1.0  0.85621  0.61829  0.26642  1.0000
  S   S481      1.0  0.84409  0.60565  0.32902  1.0000
  S   S482      1.0  0.89932  0.71377  0.08300  1.0000
  H   H1877     1.0  0.81607  0.63999  0.42345  1.0000
  H   H1878     1.0  0.77828  0.51348  0.34906  1.0000
  H   H1879     1.0  0.86616  0.72043  0.29095  1.0000
  Fe  Fe242     1.0  0.78558  0.60113  0.07112  1.0000
  S   S483      1.0  0.77090  0.62142  0.07259  1.0000
  S   S484      1.0  0.78758  0.58467  0.10850  1.0000
  Fe  Fe243     1.0  0.75684  0.60807  0.03302  1.0000
  S   S485      1.0  0.72509  0.60310  0.02769  1.0000
  Fe  Fe244     1.0  0.79544  0.64097  0.04875  1.0000
  S   S486      1.0  0.80951  0.67230  0.06049  1.0000
  S   S487      1.0  0.77040  0.58648  0.03252  1.0000
  S   S488      1.0  0.81111  0.62153  0.05004  1.0000
  C   C1171     1.0  0.87440  0.70273  0.07599  1.0000
  C   C1172     1.0  0.86208  0.71169  0.08223  1.0000
  C   C1173     1.0  0.84225  0.70231  0.07694  1.0000
  C   C1174     1.0  0.83459  0.68395  0.06531  1.0000
  C   C1175     1.0  0.84697  0.67520  0.05839  1.0000
  C   C1176     1.0  0.86677  0.68449  0.06395  1.0000
  H   H1880     1.0  0.86772  0.72568  0.09162  1.0000
  H   H1881     1.0  0.83276  0.70921  0.08225  1.0000
  H   H1882     1.0  0.84128  0.66122  0.04893  1.0000
  H   H1883     1.0  0.87626  0.67759  0.05868  1.0000
  C   C1177     1.0  0.79464  0.59632  0.14018  1.0000
  C   C1178     1.0  0.79501  0.61460  0.14455  1.0000
  C   C1179     1.0  0.80158  0.62391  0.16956  1.0000
  C   C1180     1.0  0.80794  0.61512  0.19038  1.0000
  C   C1181     1.0  0.80713  0.59665  0.18625  1.0000
  C   C1182     1.0  0.80041  0.58726  0.16128  1.0000
  H   H1884     1.0  0.79049  0.62170  0.12857  1.0000
  H   H1885     1.0  0.80200  0.63814  0.17267  1.0000
  H   H1886     1.0  0.81200  0.58972  0.20211  1.0000
  H   H1887     1.0  0.80013  0.57308  0.15809  1.0000
  C   C1183     1.0  0.79591  0.59816  0.38197  1.0000
  C   C1184     1.0  0.81393  0.60020  0.39232  1.0000
  C   C1185     1.0  0.81742  0.60068  0.42029  1.0000
  C   C1186     1.0  0.80308  0.59950  0.43826  1.0000
  C   C1187     1.0  0.78515  0.59791  0.42802  1.0000
  C   C1188     1.0  0.78153  0.59704  0.39994  1.0000
  H   H1888     1.0  0.82514  0.60109  0.37886  1.0000
  H   H1889     1.0  0.83134  0.60192  0.42805  1.0000
  H   H1890     1.0  0.77397  0.59697  0.44169  1.0000
  H   H1891     1.0  0.76753  0.59543  0.39212  1.0000
  C   C1189     1.0  0.85397  0.69941  0.36377  1.0000
  C   C1190     1.0  0.87333  0.70580  0.35765  1.0000
  C   C1191     1.0  0.88061  0.69325  0.34630  1.0000
  C   C1192     1.0  0.86848  0.67428  0.34049  1.0000
  C   C1193     1.0  0.84931  0.66758  0.34794  1.0000
  C   C1194     1.0  0.84207  0.68012  0.35961  1.0000
  H   H1892     1.0  0.88281  0.72041  0.36166  1.0000
  H   H1893     1.0  0.89556  0.69845  0.34124  1.0000
  H   H1894     1.0  0.84000  0.65279  0.34456  1.0000
  H   H1895     1.0  0.82713  0.67495  0.36465  1.0000
  C   C1195     1.0  0.90291  0.55460  0.28527  1.0000
  C   C1196     1.0  0.88552  0.53909  0.28032  1.0000
  C   C1197     1.0  0.86813  0.54170  0.28078  1.0000
  C   C1198     1.0  0.86797  0.55982  0.28591  1.0000
  C   C1199     1.0  0.88537  0.57530  0.29082  1.0000
  C   C1200     1.0  0.90272  0.57265  0.29066  1.0000
  H   H1896     1.0  0.88546  0.52512  0.27615  1.0000
  H   H1897     1.0  0.85474  0.52964  0.27690  1.0000
  H   H1898     1.0  0.88546  0.58930  0.29486  1.0000
  H   H1899     1.0  0.91611  0.58473  0.29454  1.0000
  Fe  Fe245     1.0  0.96910  0.52272  0.25482  1.0000
  C   C1201     1.0  0.93004  0.52702  0.39250  1.0000
  C   C1202     1.0  0.68584  0.58430  0.02848  1.0000
  C   C1203     1.0  0.70347  0.58223  0.02782  1.0000
  C   C1204     1.0  0.70334  0.56380  0.02768  1.0000
  C   C1205     1.0  0.68585  0.54774  0.02878  1.0000
  C   C1206     1.0  0.81425  0.55709  0.34260  1.0000
  H   H1900     1.0  0.71669  0.56193  0.02640  1.0000
  Fe  Fe246     1.0  0.91346  0.74595  0.09000  1.0000
  H   H1901     1.0  0.85353  0.70736  0.23130  1.0000
  H   H1902     1.0  0.74255  0.56037  0.13155  1.0000
  H   H1903     1.0  0.71970  0.54358  0.11895  1.0000
  C   C1207     1.0  0.88484  0.73781  0.02255  1.0000
  H   H1904     1.0  0.75051  0.57189  0.08573  1.0000
  C   C1208     1.0  0.79902  0.53342  0.30792  1.0000
  H   H1905     1.0  0.80443  0.63839  0.45479  1.0000
  N   N117      1.0  0.72659  0.57262  0.10710  1.0000
  C   C1209     1.0  0.91778  0.54696  0.36659  1.0000
  H   H1906     1.0  0.76810  0.71515  0.34651  1.0000
  N   N118      1.0  0.89019  0.72870  0.99969  1.0000
  H   H1907     1.0  0.84199  0.62139  0.10881  1.0000
  H   H1908     1.0  0.82140  0.68194  0.46638  1.0000
  C   C1210     1.0  0.73545  0.57032  0.08200  1.0000
  H   H1909     1.0  0.80044  0.71409  0.35231  1.0000
  H   H1910     1.0  0.72086  0.55968  0.14609  1.0000
  H   H1911     1.0  0.75264  0.59493  0.12200  1.0000
  C   C1211     1.0  0.94801  0.54560  0.35574  1.0000
  C   C1212     1.0  0.70643  0.56974  0.10116  1.0000
  H   H1912     1.0  0.73569  0.58123  0.06701  1.0000
  N   N119      1.0  0.85326  0.64797  0.13117  1.0000
  C   C1213     1.0  0.83835  0.65403  0.11978  1.0000
  C   C1214     1.0  0.85750  0.65440  0.15957  1.0000
  H   H1913     1.0  0.83384  0.64838  0.09895  1.0000
  H   H1914     1.0  0.84349  0.66988  0.11895  1.0000
  H   H1915     1.0  0.82528  0.64885  0.13191  1.0000
  H   H1916     1.0  0.84450  0.64812  0.17195  1.0000
  H   H1917     1.0  0.86270  0.67022  0.16132  1.0000
  H   H1918     1.0  0.86808  0.65184  0.09405  1.0000
  H   H1919     1.0  0.73640  0.60312  0.10413  1.0000
  N   N120      1.0  0.83224  0.66129  0.45300  1.0000
  C   C1215     1.0  0.81383  0.64863  0.44010  1.0000
  H   H1920     1.0  0.88899  0.70407  0.02174  1.0000
  C   C1216     1.0  0.88246  0.70780  0.00342  1.0000
  C   C1217     1.0  0.99040  0.51727  0.16190  1.0000
  S   S489      1.0  0.85377  0.75187  0.31881  1.0000
  C   C1218     1.0  0.84450  0.67412  0.43257  1.0000
  H   H1921     1.0  0.95645  0.53652  0.35418  1.0000
  H   H1922     1.0  0.76685  0.53608  0.32542  1.0000
  H   H1923     1.0  0.84435  0.64016  0.44939  1.0000
  H   H1924     1.0  0.81327  0.75016  0.31974  1.0000
  C   C1219     1.0  0.82861  0.67277  0.47451  1.0000
  H   H1925     1.0  0.89137  0.73554  0.04182  1.0000
  H   H1926     1.0  0.92672  0.50923  0.34433  1.0000
  H   H1927     1.0  0.83332  0.64005  0.48079  1.0000
  H   H1928     1.0  0.84350  0.70312  0.27845  1.0000
  H   H1929     1.0  0.94739  0.55154  0.33539  1.0000
  N   N121      1.0  0.86820  0.69940  0.26370  1.0000
  H   H1930     1.0  0.68574  0.59848  0.02843  1.0000
  H   H1931     1.0  0.86904  0.73204  0.02494  1.0000
  H   H1932     1.0  0.89611  0.71885  0.27799  1.0000
  H   H1933     1.0  0.81120  0.52872  0.30884  1.0000
  Fe  Fe247     1.0  0.79470  0.60919  0.01118  1.0000
  N   N122      1.0  0.79638  0.54099  0.33424  1.0000
  H   H1934     1.0  0.88248  0.65239  0.12361  1.0000
  C   C1220     1.0  0.78062  0.54776  0.33180  1.0000
  C   C1221     1.0  0.80511  0.72810  0.36299  1.0000
  H   H1935     1.0  0.78987  0.53127  0.37473  1.0000
  H   H1936     1.0  0.87624  0.70692  0.22279  1.0000
  H   H1937     1.0  0.80584  0.65691  0.43141  1.0000
  H   H1938     1.0  0.85756  0.62188  0.13708  1.0000
  H   H1939     1.0  0.83754  0.68312  0.42303  1.0000
  H   H1940     1.0  0.80248  0.54455  0.29208  1.0000
  S   S490      1.0  0.94196  0.52098  0.23362  1.0000
  H   H1941     1.0  0.72757  0.55601  0.07258  1.0000
  H   H1942     1.0  0.85787  0.67012  0.27618  1.0000
  H   H1943     1.0  0.87644  0.67244  0.11596  1.0000
  H   H1944     1.0  0.69805  0.55534  0.09224  1.0000
  H   H1945     1.0  0.82076  0.73561  0.36004  1.0000
  H   H1946     1.0  0.88861  0.69515  0.29103  1.0000
  H   H1947     1.0  0.92497  0.55936  0.38045  1.0000
  H   H1948     1.0  0.93746  0.53877  0.40727  1.0000
  H   H1949     1.0  0.79207  0.72941  0.31195  1.0000
  H   H1950     1.0  0.89620  0.69962  0.25707  1.0000
  H   H1951     1.0  0.91772  0.73239  0.01704  1.0000
  H   H1952     1.0  0.80342  0.52048  0.35689  1.0000
  C   C1222     1.0  0.79176  0.52585  0.35464  1.0000
  H   H1953     1.0  0.85712  0.69653  0.30344  1.0000
  H   H1954     1.0  0.86517  0.67383  0.24200  1.0000
  H   H1955     1.0  0.84760  0.66591  0.41611  1.0000
  H   H1956     1.0  0.69917  0.57127  0.11961  1.0000
  Fe  Fe248     1.0  0.93268  0.52703  0.27415  1.0000
  C   C1223     1.0  0.66832  0.56822  0.02928  1.0000
  C   C1224     1.0  0.73718  0.59205  0.11825  1.0000
  C   C1225     1.0  0.72741  0.55841  0.12682  1.0000
  H   H1957     1.0  0.87541  0.72603  0.24316  1.0000
  N   N123      1.0  0.92857  0.53451  0.36543  1.0000
  H   H1958     1.0  0.73128  0.59415  0.13766  1.0000
  C   C1226     1.0  0.66824  0.54983  0.02959  1.0000
  C   C1227     1.0  0.84637  0.62692  0.12976  1.0000
  H   H1959     1.0  0.86865  0.65002  0.16884  1.0000
  H   H1960     1.0  0.70549  0.58038  0.08634  1.0000
  C   C1228     1.0  0.87084  0.65653  0.11554  1.0000
  H   H1961     1.0  0.83375  0.62001  0.14245  1.0000
  S   S491      1.0  0.80843  0.60003  0.47318  1.0000
  C   C1229     1.0  0.88815  0.70345  0.27280  1.0000
  N   N124      1.0  0.79453  0.73958  0.35290  1.0000
  C   C1230     1.0  0.85829  0.70514  0.28504  1.0000
  H   H1962     1.0  0.80319  0.72526  0.38491  1.0000
  H   H1963     1.0  0.78594  0.52110  0.30095  1.0000
  S   S492      1.0  0.78019  0.62990  0.00901  1.0000
  C   C1231     1.0  0.86833  0.71037  0.23910  1.0000
  C   C1232     1.0  0.77384  0.72920  0.35725  1.0000
  H   H1964     1.0  0.68596  0.53357  0.02881  1.0000
  H   H1965     1.0  0.91566  0.51826  0.40029  1.0000
  H   H1966     1.0  0.82655  0.55264  0.34481  1.0000
  H   H1967     1.0  0.81822  0.56838  0.32720  1.0000
  C   C1233     1.0  0.85808  0.67872  0.25795  1.0000
  C   C1234     1.0  0.91849  0.51840  0.34671  1.0000
  H   H1968     1.0  0.85850  0.68398  0.44157  1.0000
  H   H1969     1.0  0.90297  0.53902  0.37356  1.0000
  H   H1970     1.0  0.77840  0.55380  0.35124  1.0000
  H   H1971     1.0  0.78378  0.55938  0.31676  1.0000
  H   H1972     1.0  0.77093  0.72641  0.37902  1.0000
  H   H1973     1.0  0.81275  0.56371  0.36193  1.0000
  H   H1974     1.0  0.95613  0.55782  0.36944  1.0000
  H   H1975     1.0  0.93828  0.51770  0.39213  1.0000
  H   H1976     1.0  0.91649  0.52356  0.32636  1.0000
  C   C1235     1.0  0.84200  0.64956  0.46484  1.0000
  H   H1977     1.0  0.86665  0.70183  0.00590  1.0000
  H   H1978     1.0  0.90405  0.50920  0.35383  1.0000
  H   H1979     1.0  0.76550  0.73753  0.34981  1.0000
  C   C1236     1.0  0.79773  0.74299  0.32380  1.0000
  H   H1980     1.0  0.85618  0.65861  0.47420  1.0000
  H   H1981     1.0  0.84218  0.68231  0.48497  1.0000
  C   C1237     1.0  0.91130  0.73602  0.99850  1.0000
  H   H1982     1.0  0.91772  0.75182  0.99668  1.0000
  H   H1983     1.0  0.91166  0.74679  0.23193  1.0000
  H   H1984     1.0  0.98027  0.52377  0.15483  1.0000
  H   H1985     1.0  0.81923  0.66350  0.49013  1.0000
  H   H1986     1.0  0.79082  0.75245  0.31570  1.0000
  C   C1238     1.0  0.90580  0.73910  0.74438  1.0000
  H   H1987     1.0  0.90563  0.50894  0.68794  1.0000
  H   H1988     1.0  0.97081  0.52313  0.98156  1.0000
  H   H1989     1.0  0.87549  0.57109  0.84122  1.0000
  H   H1990     1.0  0.82753  0.63377  0.87163  1.0000
  H   H1991     1.0  0.88554  0.70036  0.98604  1.0000
  S   S493      1.0  0.83610  0.73208  0.82550  1.0000
  Fe  Fe249     1.0  0.85017  0.63765  0.80555  1.0000
  S   S494      1.0  0.81833  0.62515  0.79985  1.0000
  S   S495      1.0  0.86772  0.66676  0.82331  1.0000
  Fe  Fe250     1.0  0.85369  0.60042  0.78936  1.0000
  S   S496      1.0  0.82171  0.58493  0.78225  1.0000
  S   S497      1.0  0.87862  0.59087  0.78911  1.0000
  Fe  Fe251     1.0  0.82348  0.61209  0.76165  1.0000
  S   S498      1.0  0.80685  0.61735  0.72569  1.0000
  Fe  Fe252     1.0  0.81936  0.59952  0.82087  1.0000
  S   S499      1.0  0.79820  0.58552  0.85363  1.0000
  S   S500      1.0  0.85561  0.62659  0.76622  1.0000
  S   S501      1.0  0.85089  0.61293  0.82922  1.0000
  S   S502      1.0  0.89974  0.71353  0.56298  1.0000
  H   H1992     1.0  0.68473  0.59280  0.53807  1.0000
  H   H1993     1.0  0.89785  0.73846  0.72498  1.0000
  S   S503      1.0  0.81435  0.60718  0.97844  1.0000
  Fe  Fe253     1.0  0.78903  0.60100  0.56880  1.0000
  S   S504      1.0  0.77394  0.62089  0.57187  1.0000
  S   S505      1.0  0.79726  0.58692  0.60457  1.0000
  Fe  Fe254     1.0  0.75638  0.60493  0.53564  1.0000
  S   S506      1.0  0.72454  0.59938  0.53699  1.0000
  Fe  Fe255     1.0  0.79516  0.63901  0.54233  1.0000
  S   S507      1.0  0.80941  0.67105  0.54783  1.0000
  S   S508      1.0  0.77039  0.58374  0.53416  1.0000
  S   S509      1.0  0.81158  0.62032  0.54198  1.0000
  C   C1239     1.0  0.87467  0.70226  0.55769  1.0000
  C   C1240     1.0  0.86252  0.71135  0.56427  1.0000
  C   C1241     1.0  0.84255  0.70170  0.56076  1.0000
  C   C1242     1.0  0.83457  0.68286  0.55087  1.0000
  C   C1243     1.0  0.84671  0.67381  0.54401  1.0000
  C   C1244     1.0  0.86669  0.68349  0.54740  1.0000
  H   H1994     1.0  0.86845  0.72572  0.57236  1.0000
  H   H1995     1.0  0.83325  0.70881  0.56606  1.0000
  H   H1996     1.0  0.84076  0.65939  0.53606  1.0000
  H   H1997     1.0  0.87604  0.67642  0.54218  1.0000
  C   C1245     1.0  0.79954  0.59525  0.63826  1.0000
  C   C1246     1.0  0.80882  0.58817  0.65767  1.0000
  C   C1247     1.0  0.81133  0.59484  0.68454  1.0000
  C   C1248     1.0  0.80429  0.60846  0.69228  1.0000
  C   C1249     1.0  0.79481  0.61537  0.67290  1.0000
  C   C1250     1.0  0.79249  0.60886  0.64601  1.0000
  H   H1998     1.0  0.81427  0.57759  0.65186  1.0000
  H   H1999     1.0  0.81859  0.58937  0.69930  1.0000
  H   H2000     1.0  0.78929  0.62587  0.67879  1.0000
  H   H2001     1.0  0.78528  0.61439  0.63133  1.0000
  C   C1251     1.0  0.80283  0.59198  0.88821  1.0000
  C   C1252     1.0  0.82153  0.60080  0.89886  1.0000
  C   C1253     1.0  0.82472  0.60523  0.92654  1.0000
  C   C1254     1.0  0.80930  0.60131  0.94380  1.0000
  C   C1255     1.0  0.79057  0.59281  0.93308  1.0000
  C   C1256     1.0  0.78739  0.58797  0.90546  1.0000
  H   H2002     1.0  0.83356  0.60404  0.88588  1.0000
  H   H2003     1.0  0.83925  0.61181  0.93468  1.0000
  H   H2004     1.0  0.77858  0.58965  0.94617  1.0000
  H   H2005     1.0  0.77286  0.58108  0.89743  1.0000
  C   C1257     1.0  0.84389  0.71319  0.82633  1.0000
  C   C1258     1.0  0.85979  0.71454  0.84236  1.0000
  C   C1259     1.0  0.86672  0.69999  0.84158  1.0000
  C   C1260     1.0  0.85769  0.68392  0.82497  1.0000
  C   C1261     1.0  0.84137  0.68220  0.80954  1.0000
  C   C1262     1.0  0.83449  0.69686  0.81021  1.0000
  H   H2006     1.0  0.86675  0.72678  0.85549  1.0000
  H   H2007     1.0  0.87926  0.70130  0.85372  1.0000
  H   H2008     1.0  0.83438  0.66986  0.79653  1.0000
  H   H2009     1.0  0.82215  0.69577  0.79778  1.0000
  C   C1263     1.0  0.88376  0.53326  0.77618  1.0000
  C   C1264     1.0  0.89980  0.54966  0.78328  1.0000
  C   C1265     1.0  0.89792  0.56719  0.78683  1.0000
  C   C1266     1.0  0.88006  0.56854  0.78320  1.0000
  C   C1267     1.0  0.86400  0.55215  0.77592  1.0000
  C   C1268     1.0  0.86585  0.53457  0.77254  1.0000
  H   H2010     1.0  0.91366  0.54886  0.78613  1.0000
  H   H2011     1.0  0.91043  0.57981  0.79243  1.0000
  H   H2012     1.0  0.85022  0.55305  0.77273  1.0000
  H   H2013     1.0  0.85337  0.52193  0.76697  1.0000
  H   H2014     1.0  0.89452  0.51533  0.71556  1.0000
  C   C1269     1.0  0.83627  0.53786  0.86962  1.0000
  C   C1270     1.0  0.68553  0.57903  0.53545  1.0000
  C   C1271     1.0  0.70358  0.57799  0.53369  1.0000
  C   C1272     1.0  0.70440  0.56008  0.53035  1.0000
  C   C1273     1.0  0.68734  0.54346  0.52884  1.0000
  H   H2015     1.0  0.91197  0.74898  0.79657  1.0000
  H   H2016     1.0  0.71813  0.55902  0.52885  1.0000
  C   C1274     1.0  0.66847  0.56243  0.53374  1.0000
  C   C1275     1.0  0.74141  0.57150  0.59171  1.0000
  H   H2017     1.0  0.91588  0.72993  0.98098  1.0000
  C   C1276     1.0  0.66928  0.54453  0.53043  1.0000
  H   H2018     1.0  0.83573  0.57204  0.88210  1.0000
  H   H2019     1.0  0.79747  0.64910  0.91639  1.0000
  S   S510      1.0  0.93832  0.51471  0.80252  1.0000
  H   H2020     1.0  0.81262  0.67304  0.85100  1.0000
  H   H2021     1.0  0.73736  0.57600  0.57199  1.0000
  C   C1277     1.0  0.83724  0.55875  0.83270  1.0000
  H   H2022     1.0  0.75203  0.57689  0.64384  1.0000
  H   H2023     1.0  0.82175  0.53688  0.87493  1.0000
  S   S511      1.0  0.88529  0.51081  0.77182  1.0000
  H   H2024     1.0  0.80883  0.63267  0.91256  1.0000
  C   C1278     1.0  0.88222  0.73317  0.97436  1.0000
  H   H2025     1.0  0.86536  0.54583  0.83515  1.0000
  H   H2026     1.0  0.89443  0.72731  0.80938  1.0000
  N   N125      1.0  0.89266  0.73044  0.76651  1.0000
  H   H2027     1.0  0.66238  0.52260  0.97814  1.0000
  H   H2028     1.0  0.89236  0.70233  0.76039  1.0000
  H   H2029     1.0  0.87388  0.70695  0.74193  1.0000
  H   H2030     1.0  0.73893  0.55615  0.58980  1.0000
  C   C1279     1.0  0.86655  0.55711  0.85022  1.0000
  S   S512      1.0  0.93003  0.50768  0.73699  1.0000
  C   C1280     1.0  0.84986  0.57203  0.87658  1.0000
  Fe  Fe256     1.0  0.91379  0.74473  0.57573  1.0000
  C   C1281     1.0  0.90387  0.73346  0.79215  1.0000
  N   N126      1.0  0.84750  0.55643  0.85729  1.0000
  Fe  Fe257     1.0  0.95516  0.51440  0.76585  1.0000
  H   H2031     1.0  0.82318  0.65744  0.91877  1.0000
  H   H2032     1.0  0.84579  0.57217  0.82223  1.0000
  H   H2033     1.0  0.85837  0.58624  0.86792  1.0000
  S   S513      1.0  0.77645  0.62518  0.50615  1.0000
  H   H2034     1.0  0.82319  0.55933  0.83737  1.0000
  N   N127      1.0  0.84442  0.65066  0.62059  1.0000
  C   C1282     1.0  0.82482  0.64544  0.60909  1.0000
  C   C1283     1.0  0.85550  0.64383  0.60234  1.0000
  C   C1284     1.0  0.84346  0.64166  0.64719  1.0000
  C   C1285     1.0  0.85386  0.67165  0.62366  1.0000
  H   H2035     1.0  0.81759  0.62977  0.60547  1.0000
  H   H2036     1.0  0.82496  0.65247  0.58944  1.0000
  H   H2037     1.0  0.81578  0.64976  0.62268  1.0000
  H   H2038     1.0  0.85646  0.65029  0.58207  1.0000
  H   H2039     1.0  0.87041  0.64757  0.61029  1.0000
  H   H2040     1.0  0.84869  0.62802  0.59954  1.0000
  H   H2041     1.0  0.83468  0.64596  0.66132  1.0000
  H   H2042     1.0  0.85795  0.64561  0.65676  1.0000
  H   H2043     1.0  0.83684  0.62581  0.64545  1.0000
  H   H2044     1.0  0.85465  0.67889  0.60399  1.0000
  H   H2045     1.0  0.86881  0.67619  0.63186  1.0000
  H   H2046     1.0  0.84590  0.67726  0.63740  1.0000
  N   N128      1.0  0.73038  0.57488  0.61369  1.0000
  C   C1286     1.0  0.70970  0.56376  0.60826  1.0000
  C   C1287     1.0  0.73408  0.59543  0.61520  1.0000
  C   C1288     1.0  0.73639  0.56889  0.63947  1.0000
  H   H2047     1.0  0.70090  0.56568  0.62464  1.0000
  H   H2048     1.0  0.70474  0.56830  0.58917  1.0000
  H   H2049     1.0  0.70639  0.54822  0.60621  1.0000
  H   H2050     1.0  0.72566  0.59847  0.63118  1.0000
  H   H2051     1.0  0.73015  0.60054  0.59579  1.0000
  H   H2052     1.0  0.72859  0.57147  0.65666  1.0000
  H   H2053     1.0  0.73369  0.55343  0.63907  1.0000
  H   H2054     1.0  0.91580  0.73186  0.74139  1.0000
  H   H2055     1.0  0.82928  0.65084  0.84621  1.0000
  Fe  Fe258     1.0  0.79169  0.60515  0.50730  1.0000
  H   H2056     1.0  0.84350  0.53569  0.88839  1.0000
  H   H2057     1.0  0.94683  0.51423  0.96765  1.0000
  H   H2058     1.0  0.87218  0.70289  0.77747  1.0000
  H   H2059     1.0  0.84167  0.65868  0.87790  1.0000
  H   H2060     1.0  0.87007  0.73772  0.74925  1.0000
  C   C1289     1.0  0.96221  0.52134  0.96249  1.0000
  H   H2061     1.0  0.83435  0.52577  0.85562  1.0000
  H   H2062     1.0  0.87463  0.55513  0.86818  1.0000
  C   C1290     1.0  0.87867  0.73948  0.76831  1.0000
  H   H2063     1.0  0.96470  0.53586  0.95496  1.0000
  H   H2064     1.0  0.91444  0.72668  0.79166  1.0000
  H   H2065     1.0  0.99225  0.51162  0.92106  1.0000
  C   C1291     1.0  0.88233  0.70975  0.76126  1.0000
  H   H2066     1.0  0.75708  0.57961  0.59519  1.0000
  H   H2067     1.0  0.85742  0.57071  0.89551  1.0000
  H   H2068     1.0  0.88591  0.72651  0.95661  1.0000
  H   H2069     1.0  0.74949  0.60424  0.61974  1.0000
  H   H2070     1.0  0.86849  0.73326  0.78478  1.0000
  N   N129      1.0  0.81110  0.65072  0.87850  1.0000
  C   C1292     1.0  0.79367  0.63676  0.86483  1.0000
  C   C1293     1.0  0.81250  0.67031  0.87301  1.0000
  C   C1294     1.0  0.82814  0.64840  0.86822  1.0000
  C   C1295     1.0  0.81011  0.64739  0.90783  1.0000
  H   H2071     1.0  0.79223  0.62182  0.86842  1.0000
  H   H2072     1.0  0.79400  0.63879  0.84262  1.0000
  H   H2073     1.0  0.78048  0.63801  0.87210  1.0000
  H   H2074     1.0  0.80019  0.67283  0.88122  1.0000
  H   H2075     1.0  0.82592  0.68126  0.88202  1.0000
  H   H2076     1.0  0.88819  0.51905  0.68162  1.0000
  H   H2077     1.0  0.83450  0.54684  0.81808  1.0000
  S   S514      1.0  0.98446  0.53649  0.75644  1.0000
  H   H2078     1.0  0.98890  0.51618  0.50847  1.0000
  H   H2079     1.0  0.68814  0.52969  0.52630  1.0000
  C   C1296     1.0  0.98791  0.51978  0.93625  1.0000
  H   H2080     1.0  0.88803  0.74884  0.97091  1.0000
  N   N130      1.0  0.96742  0.51002  0.94240  1.0000
  H   H2081     1.0  0.95805  0.52202  0.90840  1.0000
  C   C1297     1.0  0.89187  0.50910  0.69481  1.0000
  H   H2082     1.0  0.98907  0.50596  0.61811  1.0000
  H   H2083     1.0  0.99122  0.53437  0.92831  1.0000
  Fe  Fe259     1.0  0.91254  0.50478  0.77384  1.0000
  H   H2084     1.0  0.86634  0.72807  0.97475  1.0000
  C   C1298     1.0  0.95561  0.50793  0.91749  1.0000
  Fe  Fe260     1.0  0.85417  0.77938  0.33591  1.0000
  S   S515      1.0  0.88561  0.79526  0.32937  1.0000
  S   S516      1.0  0.83223  0.79062  0.32017  1.0000
  H   H2085     1.0  0.93468  0.79030  0.99985  1.0000
  C   C1299     1.0  0.80134  0.96271  0.18110  1.0000
  C   C1300     1.0  0.92060  0.82358  0.45057  1.0000
  H   H2086     1.0  0.73801  0.89774  0.42799  1.0000
  C   C1301     1.0  0.77545  0.90787  0.47112  1.0000
  S   S517      1.0  0.93336  0.76356  0.05858  1.0000
  C   C1302     1.0  0.91212  0.76703  0.20127  1.0000
  S   S518      1.0  0.89731  0.76492  0.09338  1.0000
  Fe  Fe261     1.0  0.95269  0.78003  0.09328  1.0000
  S   S519      1.0  0.93890  0.80128  0.09552  1.0000
  H   H2087     1.0  0.80114  0.97893  0.24474  1.0000
  H   H2088     1.0  0.89463  0.79160  0.25721  1.0000
  C   C1303     1.0  0.90504  0.84675  0.36482  1.0000
  Fe  Fe262     1.0  0.91805  0.78328  0.06336  1.0000
  S   S520      1.0  0.90349  0.79342  0.02960  1.0000
  Fe  Fe263     1.0  0.91947  0.78095  0.12526  1.0000
  S   S521      1.0  0.91387  0.79441  0.16328  1.0000
  H   H2089     1.0  0.70308  0.83132  0.30705  1.0000
  H   H2090     1.0  0.91484  0.84931  0.38285  1.0000
  Fe  Fe264     1.0  0.74555  0.85681  0.37239  1.0000
  S   S522      1.0  0.75252  0.88802  0.37090  1.0000
  S   S523      1.0  0.71458  0.83628  0.36952  1.0000
  Fe  Fe265     1.0  0.78757  0.86280  0.37534  1.0000
  S   S524      1.0  0.79740  0.89493  0.37286  1.0000
  S   S525      1.0  0.80882  0.84926  0.38612  1.0000
  Fe  Fe266     1.0  0.77476  0.89131  0.40318  1.0000
  S   S526      1.0  0.77847  0.91322  0.43644  1.0000
  Fe  Fe267     1.0  0.77411  0.88870  0.34059  1.0000
  S   S527      1.0  0.76949  0.90543  0.30506  1.0000
  S   S528      1.0  0.76600  0.85971  0.40730  1.0000
  S   S529      1.0  0.76607  0.85693  0.34065  1.0000
  Fe  Fe268     1.0  0.77464  0.91563  0.15026  1.0000
  S   S530      1.0  0.75387  0.92961  0.15539  1.0000
  S   S531      1.0  0.79084  0.90625  0.18227  1.0000
  Fe  Fe269     1.0  0.77029  0.91445  0.08886  1.0000
  S   S532      1.0  0.74908  0.92848  0.08912  1.0000
  S   S533      1.0  0.78118  0.90074  0.05601  1.0000
  Fe  Fe270     1.0  0.76894  0.94840  0.12090  1.0000
  S   S534      1.0  0.77432  0.98003  0.12649  1.0000
  Fe  Fe271     1.0  0.73584  0.90885  0.12364  1.0000
  S   S535      1.0  0.70365  0.89240  0.12573  1.0000
  S   S536      1.0  0.79107  0.93571  0.11814  1.0000
  S   S537      1.0  0.75552  0.89352  0.12106  1.0000
  C   C1304     1.0  0.90936  0.78893  0.47791  1.0000
  H   H2091     1.0  0.78349  0.93735  0.48273  1.0000
  H   H2092     1.0  0.70887  0.86569  0.30804  1.0000
  C   C1305     1.0  0.69784  0.85232  0.18321  1.0000
  C   C1306     1.0  0.70596  0.86773  0.16556  1.0000
  C   C1307     1.0  0.69413  0.87312  0.14824  1.0000
  C   C1308     1.0  0.67419  0.86296  0.14872  1.0000
  H   H2093     1.0  0.90367  0.83283  0.35598  1.0000
  H   H2094     1.0  0.70710  0.84817  0.19635  1.0000
  H   H2095     1.0  0.72134  0.87543  0.16535  1.0000
  H   H2096     1.0  0.73380  0.87090  0.31405  1.0000
  C   C1309     1.0  0.80151  0.75807  0.36756  1.0000
  H   H2097     1.0  0.81295  0.98813  0.10682  1.0000
  C   C1310     1.0  0.78301  0.89175  0.00288  1.0000
  C   C1311     1.0  0.77722  0.90253  0.02097  1.0000
  C   C1312     1.0  0.76861  0.91446  0.01081  1.0000
  S   S538      1.0  0.85765  0.77152  0.37867  1.0000
  H   H2098     1.0  0.79394  0.86977  0.07381  1.0000
  H   H2099     1.0  0.78974  0.88253  0.01054  1.0000
  H   H2100     1.0  0.76419  0.92291  0.02449  1.0000
  H   H2101     1.0  0.76852  0.95338  0.20776  1.0000
  C   C1313     1.0  0.77521  0.90465  0.27104  1.0000
  C   C1314     1.0  0.78785  0.89653  0.26285  1.0000
  C   C1315     1.0  0.79245  0.89696  0.23551  1.0000
  C   C1316     1.0  0.78416  0.90514  0.21621  1.0000
  C   C1317     1.0  0.77111  0.91274  0.22435  1.0000
  C   C1318     1.0  0.76684  0.91268  0.25168  1.0000
  H   H2102     1.0  0.79443  0.89038  0.27763  1.0000
  H   H2103     1.0  0.80259  0.89108  0.22936  1.0000
  H   H2104     1.0  0.76445  0.91882  0.20966  1.0000
  H   H2105     1.0  0.75695  0.91888  0.25789  1.0000
  C   C1319     1.0  0.69849  0.84635  0.37936  1.0000
  H   H2106     1.0  0.73216  0.87855  0.45141  1.0000
  H   H2107     1.0  0.88001  0.85299  0.33156  1.0000
  H   H2108     1.0  0.91217  0.85800  0.34988  1.0000
  C   C1320     1.0  0.68886  0.87319  0.38123  1.0000
  C   C1321     1.0  0.70132  0.86502  0.37225  1.0000
  H   H2109     1.0  0.67311  0.86749  0.08209  1.0000
  H   H2110     1.0  0.69177  0.88803  0.48092  1.0000
  H   H2111     1.0  0.69127  0.88771  0.37583  1.0000
  H   H2112     1.0  0.71307  0.87318  0.35977  1.0000
  C   C1322     1.0  0.82481  0.80605  0.33901  1.0000
  C   C1323     1.0  0.81410  0.81524  0.32615  1.0000
  C   C1324     1.0  0.80855  0.82813  0.34042  1.0000
  C   C1325     1.0  0.81372  0.83192  0.36770  1.0000
  C   C1326     1.0  0.82399  0.82232  0.38069  1.0000
  C   C1327     1.0  0.82942  0.80935  0.36647  1.0000
  H   H2113     1.0  0.81037  0.81265  0.30492  1.0000
  H   H2114     1.0  0.80067  0.83547  0.33022  1.0000
  H   H2115     1.0  0.82781  0.82504  0.40187  1.0000
  H   H2116     1.0  0.83732  0.80208  0.37670  1.0000
  C   C1328     1.0  0.68261  0.83561  0.39445  1.0000
  C   C1329     1.0  0.89951  0.78471  0.24176  1.0000
  C   C1330     1.0  0.90294  0.79248  0.21575  1.0000
  C   C1331     1.0  0.90918  0.78366  0.19536  1.0000
  H   H2117     1.0  0.79433  0.94714  0.18519  1.0000
  H   H2118     1.0  0.79626  0.96522  0.16081  1.0000
  C   C1332     1.0  0.91797  0.80622  0.49242  1.0000
  C   C1333     1.0  0.76906  0.88911  0.48035  1.0000
  H   H2119     1.0  0.66868  0.88739  0.09460  1.0000
  C   C1334     1.0  0.69950  0.88154  0.46816  1.0000
  C   C1335     1.0  0.91178  0.80652  0.43591  1.0000
  C   C1336     1.0  0.90608  0.78909  0.44964  1.0000
  H   H2120     1.0  0.71603  0.87716  0.42375  1.0000
  C   C1337     1.0  0.97208  0.81879  0.19912  1.0000
  S   S539      1.0  0.98441  0.78542  0.09904  1.0000
  C   C1338     1.0  0.66610  0.84749  0.16620  1.0000
  H   H2121     1.0  0.89936  0.77579  0.43850  1.0000
  H   H2122     1.0  0.78245  0.84930  0.09466  1.0000
  N   N131      1.0  0.88616  0.84645  0.37204  1.0000
  C   C1339     1.0  0.88862  0.86518  0.38363  1.0000
  C   C1340     1.0  0.87751  0.83142  0.39214  1.0000
  C   C1341     1.0  0.87349  0.84247  0.34767  1.0000
  H   H2123     1.0  0.89510  0.87688  0.36902  1.0000
  H   H2124     1.0  0.89806  0.86860  0.40210  1.0000
  H   H2125     1.0  0.87459  0.86540  0.38931  1.0000
  H   H2126     1.0  0.86360  0.83124  0.39889  1.0000
  H   H2127     1.0  0.87490  0.81701  0.38380  1.0000
  H   H2128     1.0  0.88708  0.83352  0.41033  1.0000
  H   H2129     1.0  0.87042  0.82799  0.33916  1.0000
  H   H2130     1.0  0.85947  0.84315  0.35210  1.0000
  H   H2131     1.0  0.66492  0.86713  0.13570  1.0000
  H   H2132     1.0  0.70247  0.91608  0.45064  1.0000
  C   C1342     1.0  0.80645  0.99467  0.19532  1.0000
  H   H2133     1.0  0.70389  0.87187  0.48094  1.0000
  H   H2134     1.0  0.68896  0.87252  0.45260  1.0000
  C   C1343     1.0  0.67788  0.84215  0.18363  1.0000
  H   H2135     1.0  0.95515  0.81529  0.15079  1.0000
  C   C1344     1.0  0.96701  0.78972  0.17475  1.0000
  H   H2136     1.0  0.79437  0.76745  0.35990  1.0000
  C   C1345     1.0  0.67345  0.86273  0.39731  1.0000
  H   H2137     1.0  0.79560  0.89983  0.11476  1.0000
  C   C1346     1.0  0.80427  0.97064  0.22845  1.0000
  C   C1347     1.0  0.77610  0.96871  0.20270  1.0000
  H   H2138     1.0  0.72659  0.88209  0.28668  1.0000
  H   H2139     1.0  0.70869  0.86697  0.99956  1.0000
  C   C1348     1.0  0.67019  0.84382  0.40358  1.0000
  H   H2140     1.0  0.66364  0.85829  0.30421  1.0000
  N   N132      1.0  0.72108  0.85243  0.27998  1.0000
  C   C1349     1.0  0.70567  0.84926  0.25933  1.0000
  C   C1350     1.0  0.71664  0.83496  0.29609  1.0000
  C   C1351     1.0  0.72256  0.86847  0.29792  1.0000
  C   C1352     1.0  0.73950  0.85706  0.26662  1.0000
  H   H2141     1.0  0.69149  0.84556  0.26854  1.0000
  H   H2142     1.0  0.70420  0.83727  0.24537  1.0000
  H   H2143     1.0  0.70849  0.86216  0.24679  1.0000
  H   H2144     1.0  0.71511  0.82244  0.28323  1.0000
  H   H2145     1.0  0.72809  0.83675  0.31163  1.0000
  H   H2146     1.0  0.93003  0.83685  0.48943  1.0000
  N   N133      1.0  0.71621  0.89633  0.45567  1.0000
  H   H2147     1.0  0.76676  0.87752  0.46628  1.0000
  H   H2148     1.0  0.75159  0.86024  0.28161  1.0000
  H   H2149     1.0  0.74303  0.86992  0.25377  1.0000
  H   H2150     1.0  0.73917  0.84509  0.25350  1.0000
  N   N134      1.0  0.80146  0.87453  0.11606  1.0000
  C   C1353     1.0  0.81817  0.86925  0.11441  1.0000
  C   C1354     1.0  0.80789  0.89547  0.11383  1.0000
  C   C1355     1.0  0.79221  0.86836  0.14215  1.0000
  C   C1356     1.0  0.78756  0.86512  0.09383  1.0000
  H   H2151     1.0  0.82894  0.87618  0.13088  1.0000
  C   C1357     1.0  0.97075  0.81836  0.15061  1.0000
  H   H2152     1.0  0.82006  0.97470  0.22862  1.0000
  H   H2153     1.0  0.81481  0.90070  0.09429  1.0000
  H   H2154     1.0  0.68021  0.82107  0.39976  1.0000
  H   H2155     1.0  0.82545  0.87376  0.09493  1.0000
  H   H2156     1.0  0.77955  0.87219  0.14403  1.0000
  H   H2157     1.0  0.80220  0.87543  0.15940  1.0000
  H   H2158     1.0  0.78720  0.85265  0.14466  1.0000
  H   H2159     1.0  0.77476  0.86882  0.09451  1.0000
  H   H2160     1.0  0.91693  0.76011  0.18579  1.0000
  H   H2161     1.0  0.96941  0.80994  0.48544  1.0000
  H   H2162     1.0  0.79754  0.95523  0.23380  1.0000
  C   C1358     1.0  0.92344  0.82344  0.47851  1.0000
  H   H2163     1.0  0.72194  0.91978  0.42848  1.0000
  Fe  Fe272     1.0  0.88555  0.76713  0.31533  1.0000
  C   C1359     1.0  0.90904  0.75947  0.22742  1.0000
  C   C1360     1.0  0.77852  0.92279  0.48971  1.0000
  Fe  Fe273     1.0  0.88920  0.78575  0.37160  1.0000
  H   H2164     1.0  0.69925  0.90025  0.42270  1.0000
  H   H2165     1.0  0.90495  0.77551  0.48844  1.0000
  C   C1361     1.0  0.90265  0.76821  0.24775  1.0000
  S   S540      1.0  0.90894  0.80839  0.40057  1.0000
  S   S541      1.0  0.66803  0.82316  0.20651  1.0000
  N   N135      1.0  0.79705  0.97419  0.20192  1.0000
  H   H2166     1.0  0.81815  0.90313  0.13049  1.0000
  H   H2167     1.0  0.92518  0.83709  0.44026  1.0000
  H   H2168     1.0  0.90067  0.80537  0.21135  1.0000
  H   H2169     1.0  0.97336  0.81182  0.13195  1.0000
  H   H2170     1.0  0.81386  0.85354  0.11601  1.0000
  H   H2171     1.0  0.74252  0.91930  0.46796  1.0000
  H   H2172     1.0  0.95116  0.78529  0.17455  1.0000
  S   S542      1.0  0.93402  0.76043  0.12437  1.0000
  H   H2173     1.0  0.81700  0.96637  0.18002  1.0000
  N   N136      1.0  0.97697  0.81074  0.17475  1.0000
  H   H2174     1.0  0.95631  0.81492  0.19985  1.0000
  C   C1362     1.0  0.70971  0.90868  0.43862  1.0000
  S   S543      1.0  0.89229  0.75926  0.35701  1.0000
  H   H2175     1.0  0.79904  0.75612  0.38953  1.0000
  H   H2176     1.0  0.67687  0.88778  0.06109  1.0000
  H   H2177     1.0  0.77013  0.97099  0.18287  1.0000
  S   S544      1.0  0.89893  0.75803  0.28026  1.0000
  H   H2178     1.0  0.77236  0.97728  0.21793  1.0000
  H   H2179     1.0  0.97925  0.83466  0.19962  1.0000
  H   H2180     1.0  0.97652  0.81333  0.21778  1.0000
  C   C1363     1.0  0.72970  0.90812  0.47688  1.0000
  H   H2181     1.0  0.66630  0.85174  0.33842  1.0000
  H   H2182     1.0  0.97861  0.83409  0.14908  1.0000
  C   C1364     1.0  0.66731  0.87838  0.07637  1.0000
  C   C1365     1.0  0.72599  0.88704  0.43898  1.0000
  H   H2183     1.0  0.80104  0.99775  0.17551  1.0000
  C   C1366     1.0  0.81155  0.00154  0.11027  1.0000
  H   H2184     1.0  0.97113  0.78342  0.19282  1.0000
  H   H2185     1.0  0.97054  0.78319  0.15667  1.0000
  H   H2186     1.0  0.99134  0.82596  0.09158  1.0000
  C   C1367     1.0  0.98457  0.81658  0.49316  1.0000
  C   C1368     1.0  0.79423  0.00153  0.11924  1.0000
  H   H2187     1.0  0.73496  0.89933  0.49020  1.0000
  H   H2188     1.0  0.72294  0.91549  0.48984  1.0000
  H   H2189     1.0  0.82224  0.99930  0.19398  1.0000
  H   H2190     1.0  0.81715  0.76604  0.36515  1.0000
  H   H2191     1.0  0.88982  0.75349  0.01998  1.0000
  C   C1369     1.0  0.90618  0.78967  0.99514  1.0000
  H   H2192     1.0  0.98851  0.83227  0.49443  1.0000
  Fe  Fe274     1.0  0.87130  0.80352  0.84045  1.0000
  S   S545      1.0  0.90273  0.80895  0.84202  1.0000
  S   S546      1.0  0.86504  0.83024  0.84479  1.0000
  H   H2193     1.0  0.96674  0.78047  0.50909  1.0000
  C   C1370     1.0  0.67879  0.87002  0.66191  1.0000
  Fe  Fe275     1.0  0.89424  0.78383  0.86966  1.0000
  H   H2194     1.0  0.93825  0.78636  0.95094  1.0000
  Fe  Fe276     1.0  0.89588  0.78806  0.80747  1.0000
  S   S547      1.0  0.91695  0.79121  0.77424  1.0000
  C   C1371     1.0  0.97426  0.81237  0.53901  1.0000
  H   H2195     1.0  0.93954  0.79167  0.72884  1.0000
  Fe  Fe277     1.0  0.95245  0.77651  0.59235  1.0000
  S   S548      1.0  0.93951  0.79828  0.59592  1.0000
  S   S549      1.0  0.98426  0.78198  0.59649  1.0000
  H   H2196     1.0  0.99130  0.78472  0.50304  1.0000
  C   C1372     1.0  0.77176  0.90495  0.96470  1.0000
  Fe  Fe278     1.0  0.92347  0.78558  0.55710  1.0000
  S   S550      1.0  0.92165  0.80777  0.52793  1.0000
  Fe  Fe279     1.0  0.91522  0.77530  0.61640  1.0000
  S   S551      1.0  0.89682  0.78054  0.64836  1.0000
  H   H2197     1.0  0.86373  0.81680  0.61537  1.0000
  C   C1373     1.0  0.87929  0.82032  0.61888  1.0000
  Fe  Fe280     1.0  0.74197  0.86399  0.85052  1.0000
  S   S552      1.0  0.75872  0.89558  0.85499  1.0000
  S   S553      1.0  0.71066  0.85063  0.83730  1.0000
  Fe  Fe281     1.0  0.77596  0.85473  0.86957  1.0000
  S   S554      1.0  0.79504  0.88562  0.87627  1.0000
  S   S555      1.0  0.78393  0.82919  0.87553  1.0000
  Fe  Fe282     1.0  0.76940  0.88835  0.89462  1.0000
  S   S556      1.0  0.76737  0.90663  0.92979  1.0000
  Fe  Fe283     1.0  0.78254  0.88999  0.83625  1.0000
  S   S557      1.0  0.80428  0.90854  0.80702  1.0000
  S   S558      1.0  0.75113  0.85699  0.89105  1.0000
  S   S559      1.0  0.76505  0.85888  0.82860  1.0000
  Fe  Fe284     1.0  0.78145  0.92727  0.65251  1.0000
  S   S560      1.0  0.76212  0.94260  0.65956  1.0000
  S   S561      1.0  0.80479  0.92884  0.68286  1.0000
  Fe  Fe285     1.0  0.76593  0.91564  0.59465  1.0000
  S   S562      1.0  0.74567  0.93049  0.59784  1.0000
  S   S563      1.0  0.76335  0.89454  0.56063  1.0000
  Fe  Fe286     1.0  0.77044  0.95462  0.61828  1.0000
  S   S564      1.0  0.77537  0.98594  0.61178  1.0000
  Fe  Fe287     1.0  0.73950  0.91726  0.63878  1.0000
  S   S565      1.0  0.70879  0.90372  0.65208  1.0000
  S   S566      1.0  0.79121  0.94062  0.61211  1.0000
  S   S567      1.0  0.75831  0.90104  0.63470  1.0000
  H   H2198     1.0  0.71209  0.88255  0.60818  1.0000
  H   H2199     1.0  0.69923  0.84248  0.98806  1.0000
  H   H2200     1.0  0.87449  0.85684  0.92798  1.0000
  C   C1374     1.0  0.70178  0.85020  0.67567  1.0000
  C   C1375     1.0  0.71028  0.86967  0.66904  1.0000
  C   C1376     1.0  0.69879  0.87960  0.66191  1.0000
  H   H2201     1.0  0.70118  0.85880  0.73834  1.0000
  H   H2202     1.0  0.91105  0.81332  0.61497  1.0000
  H   H2203     1.0  0.71075  0.84259  0.68108  1.0000
  H   H2204     1.0  0.72570  0.87700  0.66957  1.0000
  H   H2205     1.0  0.81114  0.96460  0.72312  1.0000
  C   C1377     1.0  0.67031  0.85057  0.66840  1.0000
  H   H2206     1.0  0.93203  0.78680  0.67971  1.0000
  H   H2207     1.0  0.70016  0.85379  0.54478  1.0000
  C   C1378     1.0  0.76855  0.90023  0.52644  1.0000
  C   C1379     1.0  0.77502  0.91900  0.51725  1.0000
  H   H2208     1.0  0.70059  0.87995  0.57564  1.0000
  H   H2209     1.0  0.80770  0.96745  0.66105  1.0000
  H   H2210     1.0  0.76076  0.87077  0.51485  1.0000
  H   H2211     1.0  0.77736  0.93060  0.53133  1.0000
  H   H2212     1.0  0.83545  0.87181  0.82003  1.0000
  C   C1380     1.0  0.80253  0.91363  0.77254  1.0000
  C   C1381     1.0  0.78519  0.90804  0.75748  1.0000
  C   C1382     1.0  0.78532  0.91266  0.72979  1.0000
  C   C1383     1.0  0.80280  0.92254  0.71725  1.0000
  C   C1384     1.0  0.81991  0.92784  0.73246  1.0000
  C   C1385     1.0  0.81976  0.92356  0.75981  1.0000
  H   H2213     1.0  0.77178  0.90037  0.76718  1.0000
  H   H2214     1.0  0.77200  0.90849  0.71818  1.0000
  H   H2215     1.0  0.83345  0.93541  0.72302  1.0000
  H   H2216     1.0  0.83320  0.92794  0.77120  1.0000
  C   C1386     1.0  0.69681  0.85790  0.85901  1.0000
  H   H2217     1.0  0.79495  0.97592  0.73038  1.0000
  C   C1387     1.0  0.69350  0.84661  0.75173  1.0000
  H   H2218     1.0  0.68994  0.84930  0.61770  1.0000
  C   C1388     1.0  0.69457  0.88095  0.89094  1.0000
  C   C1389     1.0  0.70501  0.87559  0.87218  1.0000
  H   H2219     1.0  0.74012  0.86459  0.59528  1.0000
  H   H2220     1.0  0.71379  0.85451  0.91704  1.0000
  H   H2221     1.0  0.70115  0.89464  0.90115  1.0000
  H   H2222     1.0  0.71947  0.88519  0.86807  1.0000
  C   C1390     1.0  0.84255  0.82957  0.85436  1.0000
  C   C1391     1.0  0.84049  0.84685  0.85898  1.0000
  C   C1392     1.0  0.82265  0.84696  0.86581  1.0000
  C   C1393     1.0  0.80677  0.82973  0.86817  1.0000
  C   C1394     1.0  0.80898  0.81244  0.86425  1.0000
  C   C1395     1.0  0.82679  0.81234  0.85728  1.0000
  H   H2223     1.0  0.85271  0.86024  0.85711  1.0000
  H   H2224     1.0  0.82116  0.86033  0.86927  1.0000
  H   H2225     1.0  0.79677  0.79905  0.86621  1.0000
  H   H2226     1.0  0.82823  0.79893  0.85387  1.0000
  C   C1396     1.0  0.91108  0.78853  0.73929  1.0000
  C   C1397     1.0  0.89263  0.78516  0.72925  1.0000
  C   C1398     1.0  0.88848  0.78265  0.70135  1.0000
  C   C1399     1.0  0.90262  0.78319  0.68331  1.0000
  C   C1400     1.0  0.92100  0.78629  0.69338  1.0000
  C   C1401     1.0  0.92523  0.78911  0.72123  1.0000
  H   H2227     1.0  0.88161  0.78466  0.74293  1.0000
  H   H2228     1.0  0.69082  0.84966  0.93089  1.0000
  S   S568      1.0  0.93800  0.76530  0.55207  1.0000
  C   C1402     1.0  0.92501  0.78664  0.95807  1.0000
  C   C1403     1.0  0.91022  0.78525  0.93947  1.0000
  C   C1404     1.0  0.89316  0.78555  0.94888  1.0000
  H   H2229     1.0  0.72644  0.88718  0.93259  1.0000
  C   C1405     1.0  0.87922  0.79877  0.58329  1.0000
  H   H2230     1.0  0.72568  0.86131  0.54951  1.0000
  C   C1406     1.0  0.89122  0.78793  0.97661  1.0000
  H   H2231     1.0  0.88149  0.78386  0.93478  1.0000
  N   N137      1.0  0.71025  0.85765  0.58607  1.0000
  N   N138      1.0  0.81151  0.98624  0.69495  1.0000
  C   C1407     1.0  0.70533  0.84997  0.93560  1.0000
  H   H2232     1.0  0.67642  0.83144  0.79780  1.0000
  H   H2233     1.0  0.68798  0.85821  0.97713  1.0000
  H   H2234     1.0  0.82779  0.98991  0.65913  1.0000
  C   C1408     1.0  0.71156  0.85219  0.55788  1.0000
  H   H2235     1.0  0.70384  0.84630  0.76794  1.0000
  H   H2236     1.0  0.68943  0.83330  0.73940  1.0000
  N   N139      1.0  0.71464  0.86297  0.95855  1.0000
  H   H2237     1.0  0.69265  0.86653  0.79593  1.0000
  H   H2238     1.0  0.67004  0.86076  0.72715  1.0000
  H   H2239     1.0  0.89346  0.83066  0.55432  1.0000
  C   C1409     1.0  0.78024  0.89288  0.97485  1.0000
  H   H2240     1.0  0.98815  0.82141  0.60626  1.0000
  H   H2241     1.0  0.88000  0.78830  0.59846  1.0000
  C   C1410     1.0  0.98173  0.78798  0.51698  1.0000
  H   H2242     1.0  0.87807  0.78837  0.98379  1.0000
  N   N140      1.0  0.67647  0.84837  0.76313  1.0000
  H   H2243     1.0  0.88596  0.83505  0.62748  1.0000
  C   C1411     1.0  0.79807  0.99415  0.68326  1.0000
  H   H2244     1.0  0.72607  0.89315  0.96734  1.0000
  C   C1412     1.0  0.80135  0.97078  0.71383  1.0000
  H   H2245     1.0  0.91659  0.83791  0.60758  1.0000
  H   H2246     1.0  0.68945  0.82999  0.59668  1.0000
  C   C1413     1.0  0.68175  0.84056  0.67528  1.0000
  H   H2247     1.0  0.89857  0.86504  0.91608  1.0000
  H   H2248     1.0  0.72527  0.85955  0.62399  1.0000
  C   C1414     1.0  0.92301  0.78882  0.98579  1.0000
  H   H2249     1.0  0.74313  0.86649  0.94847  1.0000
  C   C1415     1.0  0.81935  0.97852  0.67314  1.0000
  C   C1416     1.0  0.69143  0.84527  0.59661  1.0000
  C   C1417     1.0  0.66314  0.84864  0.74100  1.0000
  S   S569      1.0  0.67157  0.81603  0.68306  1.0000
  Fe  Fe288     1.0  0.85981  0.76096  0.83376  1.0000
  H   H2250     1.0  0.83785  0.99609  0.71848  1.0000
  N   N141      1.0  0.88544  0.83489  0.92356  1.0000
  C   C1418     1.0  0.89848  0.83043  0.90582  1.0000
  C   C1419     1.0  0.88425  0.85302  0.91509  1.0000
  C   C1420     1.0  0.89288  0.83677  0.95169  1.0000
  C   C1421     1.0  0.86613  0.81936  0.92151  1.0000
  H   H2251     1.0  0.89930  0.81652  0.91091  1.0000
  H   H2252     1.0  0.91332  0.84155  0.90730  1.0000
  H   H2253     1.0  0.89357  0.82955  0.88438  1.0000
  H   H2254     1.0  0.87862  0.85203  0.89394  1.0000
  H   H2255     1.0  0.87422  0.78027  0.69373  1.0000
  H   H2256     1.0  0.70361  0.83506  0.93985  1.0000
  H   H2257     1.0  0.88319  0.83969  0.96578  1.0000
  H   H2258     1.0  0.90731  0.84855  0.95400  1.0000
  H   H2259     1.0  0.89441  0.82350  0.95848  1.0000
  H   H2260     1.0  0.85574  0.82246  0.93403  1.0000
  H   H2261     1.0  0.86636  0.80552  0.92819  1.0000
  H   H2262     1.0  0.86033  0.81727  0.90039  1.0000
  N   N142      1.0  0.88853  0.81853  0.59382  1.0000
  H   H2263     1.0  0.81609  0.99226  0.61322  1.0000
  C   C1422     1.0  0.90907  0.82310  0.59962  1.0000
  H   H2264     1.0  0.66981  0.87761  0.65641  1.0000
  C   C1423     1.0  0.66677  0.83194  0.78073  1.0000
  H   H2265     1.0  0.91647  0.82173  0.58120  1.0000
  H   H2266     1.0  0.67000  0.86792  0.78827  1.0000
  H   H2267     1.0  0.86380  0.79492  0.57810  1.0000
  H   H2268     1.0  0.71007  0.83709  0.55631  1.0000
  H   H2269     1.0  0.72457  0.84040  0.60241  1.0000
  S   S570      1.0  0.89015  0.76337  0.83527  1.0000
  N   N143      1.0  0.81524  0.86055  0.78687  1.0000
  C   C1424     1.0  0.83010  0.85910  0.76947  1.0000
  C   C1425     1.0  0.80464  0.84182  0.79927  1.0000
  C   C1426     1.0  0.80184  0.86629  0.77053  1.0000
  C   C1427     1.0  0.82447  0.87505  0.80821  1.0000
  H   H2270     1.0  0.83845  0.87304  0.75995  1.0000
  H   H2271     1.0  0.82363  0.84833  0.75307  1.0000
  H   H2272     1.0  0.84043  0.85474  0.78121  1.0000
  H   H2273     1.0  0.79403  0.84257  0.81378  1.0000
  H   H2274     1.0  0.79669  0.83071  0.78389  1.0000
  H   H2275     1.0  0.81448  0.83662  0.81059  1.0000
  H   H2276     1.0  0.80947  0.88018  0.76046  1.0000
  H   H2277     1.0  0.79087  0.86821  0.78322  1.0000
  H   H2278     1.0  0.79418  0.85550  0.75463  1.0000
  H   H2279     1.0  0.81379  0.87585  0.82257  1.0000
  H   H2280     1.0  0.83165  0.88958  0.79967  1.0000
  C   C1428     1.0  0.76603  0.91574  0.98281  1.0000
  H   H2281     1.0  0.88621  0.79673  0.56478  1.0000
  S   S571      1.0  0.86512  0.78449  0.80363  1.0000
  S   S572      1.0  0.86326  0.77963  0.87043  1.0000
  H   H2282     1.0  0.82885  0.97160  0.68127  1.0000
  H   H2283     1.0  0.97792  0.82790  0.54193  1.0000
  C   C1429     1.0  0.72571  0.85541  0.60265  1.0000
  H   H2284     1.0  0.88068  0.81041  0.63460  1.0000
  H   H2285     1.0  0.67939  0.84643  0.58446  1.0000
  H   H2286     1.0  0.89356  0.84695  0.58058  1.0000
  H   H2287     1.0  0.67137  0.83209  0.85391  1.0000
  H   H2288     1.0  0.78958  0.95877  0.70339  1.0000
  H   H2289     1.0  0.95899  0.80572  0.53203  1.0000
  C   C1430     1.0  0.66747  0.85097  0.88348  1.0000
  C   C1431     1.0  0.67607  0.86843  0.89736  1.0000
  H   H2290     1.0  0.72617  0.88751  0.57883  1.0000
  H   H2291     1.0  0.78476  0.88455  0.96111  1.0000
  H   H2292     1.0  0.87128  0.82883  0.56848  1.0000
  S   S573      1.0  0.66551  0.87400  0.92539  1.0000
  H   H2293     1.0  0.70425  0.88456  0.94734  1.0000
  S   S574      1.0  0.91376  0.78315  0.90482  1.0000
  C   C1432     1.0  0.67780  0.84580  0.86407  1.0000
  C   C1433     1.0  0.68249  0.86626  0.77912  1.0000
  C   C1434     1.0  0.88660  0.83186  0.57343  1.0000
  C   C1435     1.0  0.71234  0.87777  0.58715  1.0000
  H   H2294     1.0  0.73139  0.84693  0.97053  1.0000
  C   C1436     1.0  0.76563  0.88533  0.50788  1.0000
  C   C1437     1.0  0.71797  0.88280  0.95116  1.0000
  C   C1438     1.0  0.73318  0.86175  0.96553  1.0000
  S   S575      1.0  0.89828  0.76431  0.57766  1.0000
  S   S576      1.0  0.92924  0.75416  0.61586  1.0000
  H   H2295     1.0  0.75955  0.92518  0.97512  1.0000
  H   H2296     1.0  0.66210  0.81820  0.76934  1.0000
  H   H2297     1.0  0.68981  0.87900  0.76650  1.0000
  N   N144      1.0  0.98693  0.80877  0.51964  1.0000
  H   H2298     1.0  0.74039  0.87106  0.98317  1.0000
  H   H2299     1.0  0.97538  0.80635  0.55907  1.0000
  H   H2300     1.0  0.78624  0.98321  0.67124  1.0000
  H   H2301     1.0  0.98286  0.78154  0.53680  1.0000
  C   C1439     1.0  0.70209  0.85738  0.98193  1.0000
  H   H2302     1.0  0.79141  0.99961  0.69912  1.0000
  H   H2303     1.0  0.91477  0.75440  0.74877  1.0000
  H   H2304     1.0  0.88593  0.75505  0.77254  1.0000
  C   C1440     1.0  0.82738  0.00155  0.70956  1.0000
