data_image0
_chemical_formula_structural       CHCHSH2CSHFeS2FeSFeS3FeS2FeCHFeC2HSFeHC7H5C4H5CNCNH2SH3C7H4C2H3CH2SC2Fe2SH6CH3FeCH2CHSNSH4NC4H12CHCSH2CHCFeH3CHC3HSCH8S2C2HCHS3HNH3SHC2H2C2H2C2HN2HCHSC3H2CH2CH4C2HSCFeCHC2SCFeS2NHFeSCSFeHSH3FeH3SHCHC6HCH2C5SH6SHSH4CHCSC6H3C2FeH4NH2CH2CH6CH3CH2CHCHSFeNC2HNHCH2CH2SHC3HCSCHC4HCH15C3HNH2CNH2FeH2CHSH2SH2CH4CFeS2FeS2FeSFeS3FeS2FeS2FeSFeS3CH2SCHC5H4C6H5CH5C6H5NCH2C4HCH4C3H9CH3C3SCH2NSH3NC4H12SNHCH2C2H3C3NSCH2NH2C3H4CSHC2H2FeCSHCH3CH9C2HCH2CHCH2FeS2FeS2FeSFeS3FeS2FeHCFeSNCSH4CHCH2C3SH3C6H4C3SHSHC6H4CH4CHC4H3SCSNH4CHCNH2SCH4CH5CHCHC2HNH6NCHCH2FeCHCHCH2C2H8SHCH4C2H3NSHFeH4FeS2FeC2HSFe2S2FeS2FeSFeS4HCH3SCHC2HC2HCH3C3H6C6HCH2C6H5CHCH4FeHSC6H4C2SH7CNHCH2C4HCH7NHCH3CSH4NC2HCHSH4C2NH5CHC3HCHCH2CH3SH3SH2FeS2FeSHS3FeS2FeS2FeSFeS3H2CNSCHCHCFeH2C2H2NC6HCH2C6H4C6H4CNHCHCHCH3C6H4CHFeH2CH6CHSH2NCH3CHCH2CHCSH2CH2CH8CHNC2H5NH5C2H5C2HCHCH6FeH2SH4CHSCHCH2FeH2SH2CHSNFeS2FeS2FeSFeS3FeSHFeH2FeSFeHSH3C6H4C6H2CHC6H4C2HC3SH3CHC2H4CH9C5H5C2HCH2CHCH4NH2SH6NCSNC3H2CH2FeH2C5H5CHC2SH5NHCH5CH4CH3FeS2FeS2FeSFeS3FeSHFeH2FeSCS3HSC3HC2H4C6H3C7H4C6HCH2FeH2C3H3SH9CHSHNHCNH5C2NC2SHCH2SH2FeSHCHS2H2FeCH2CH3NH2CH2CHC3H2CH4SHCHCH3SFeSHSHCFe2S2FeHFeSCSFeS2HSHFeSFeS3H3C6H5C6H4CSC6H5CH3FeHNSHCSHS2H2CHNCHC3H4CHCH2CH3CH2C3HCH4C3FeNHCH3CHC2H3CH2CHCHCFeC2H5CH5CSHSFeSFeS2HSHS2H2FeSH2FeS2FeSHFeSFeHS2CNC7H4C6H4CSHC6H5C2H2NSH6FeHCH5C2H3FeCH2CH3CFeCH2NC4HSC2HC4H6CH3CFeSHFeC3HSCHSH3NH4C2HCH6SHCNH3SH3CH3CH3CH2CH7NSCHCH3FeSFeHSFeS2FeS2FeSFeS3H3FeS2HSFeNS2C4H3C7H4C6H6CSH3C6H3FeHCH5CNH2CH2FeC2HCHC2H2SHCH2CHCNHCH8CH6NSC3H4CH5CH3FeHCHCHC2H3CFeH2SC3NC2SH3CH3FeH3SH2CSH2SH2SH2NC2SH3FeS2FeS2FeSFeS3H3FeCSCHFeH2SNHCHC2HFeC6H4CH3C4H2C2H3CHC6H2CH3S2H4SC3HSNH7CNH7SCHNHCHCSHSC2SCH4FeCH6CFeCHC2HC2HSC3NC4FeHSNHCH3C2H6CHCHSFeSH3CFeSFeSHSFeHSFeS2FeS2FeSFeCS2CSH3NC6H4C6H9C2H2C2HCSNC4H14CNCHC2FeCHSCH2C2HC2HSH2SH2NHCH6SH2C2H2C2H2NC6H3CH2FeSCHS2C2H2SC2FeH3CFeSH3SFeHFeSFeSFeCSFeSHFeS2FeSHCS2NH2C2HC5H3FeC7H4C2H4NHC2HC2SH8C2H2CH2CH2C3H2CSHCH2CH6NSHFeH5SCH2CHC3HS2CHSCHS2CH3C2SHFeH3CFeH2C2H3C2NHCHCH2CH2CH3FeS2FeS2FeSFeS3FeS2FeS2FeHNHCFeS3C4H4C3HC2H2CHC6H4C6H5CH2SHSHFeH2SHCHNH4C2H3CH4NH3NCHCH7CHCH2NC2H2FeSCH4SNCHC3H3NC2H6C2HCHFeC2HC2FeCH2CH3CH6CH2SC2H2CH7CS2H3C2H3NHFeS2FeS2FeSFeS3FeS2FeS2FeH2CHFeS3HCH2CH2SC3H5SC7H4C6H4C3H3CHCFeSH3CHSCH6CHSC2HCFeHNHSH11NHC2HC2HCNHCH2NC3H2C2H3C2HSH3CH3C3S2H2C2HFeHSCHFeHSH3FeS2HFeC2SFeS2FeS2FeCFeS3C6H4C2H2C4HCH4C2H2CHC2H2C2HSC2HNH4CSH8C4H5CHCHCH5NHNC3H5CHSCSC2HCHC3H3SH2CHNHCFeH2CH9SFeS2FeS2FeNFeHS2C2FeS2HFeHCSFeS2FeS2FeSFeS3C6H4C2HC7H2SH5CH5CH4CHCHFeC4HNCH6CH3C2HNHFeC3H3C2HC2H2NH3CH2CH5SC2FeHC5H2CHCNHS2CH11CH3C2SC2H4C2SCHSH2CHC2H4CH3CH3FeS2FeCSHCFeS3FeS2FeSHFeHFeS2H3FeHCFeSNHSH4CHCH3CH5C3H5C7H4CH2CFeSNCH2CSHC2SCFeNHCH3CH6CH2C2HCH3SH2C4NHC3HC3H2CNH6CH2CH3SHCH4FeS2FeS2FeSFeS3FeS2HSHFeSFeS3CSFeHSFeH2CSHNHFeCH3CHCH2CH2CHCSH2C9H4CH9C2H2C2HNH2CNH4FeC2H2NH4FeSC2H5CH3C2HSHCH4C2HC3H2NCHCSH6CNHCHCFeHCHCH4FeS2FeS2FeSFeHS2FeS2HCSFeSH2SCFeS2C3FeH2SCH5C3H5C2HC7H5CHNH4C2HC3H2C6H4CHCNH5NHFeC2H2CHCH2C2SH3C4SCH2CH2CH2FeHCH5FeCH2SCH8CSHNFeS2FeS2FeSFeS3FeS2FeSHFeSFeHSCFeS2H2CFeHCSCH4S2C3H5CHC7H4C2HNC2HNHCHC2H3C3HC2H5CH3CHCHCH4CH4FeH4SH2CH2CHC2H3CH3CHNC4H11CNSC2H2C3HCHC3HCH6CH3C2H4CS3H2CHNSH3CSH3C2HCHFeNHFeH2FeSHCSC2HFeS2H2CSFe2SHFeS2FeHFeS3H2C2FeH2C6H4C6H4CSCHC2SH3CHCNHC2H2SH4CH2SHCHC3H3FeH3CH3NCHCH4C2H4CSHCH2SCH11SNSC2HCHCH4CNCH3CHNCHC2SHCHCH2CHSH5NHCH3NH4CFeHCFeSHFeSH2S2H3SHC3HCFeS2FeS2FeHFeS3C5H2C6H3SC6H4CH3SHCHSH4NH2S2CSC2H2FeHCHCH7CH4CHNHCH2SHCH3NC3HSH2SFeHNCHC2FeCH2FeHCSH3NH3FeCH2CHCH2SH2CHC3H2SHC2H3
_chemical_formula_sum              "C1280 H2048 S512 Fe256 N128"
_cell_length_a       70.4439
_cell_length_b       68.5053
_cell_length_c       33.8242
_cell_angle_alpha    90.161
_cell_angle_beta     90.886
_cell_angle_gamma    88.3413

_space_group_name_H-M_alt    "P 1"
_space_group_IT_number       1

loop_
  _space_group_symop_operation_xyz
  'x, y, z'

loop_
  _atom_site_type_symbol
  _atom_site_label
  _atom_site_symmetry_multiplicity
  _atom_site_fract_x
  _atom_site_fract_y
  _atom_site_fract_z
  _atom_site_occupancy
  C   C1        1.0  0.15421  0.13382  0.08510  1.0000
  H   H1        1.0  0.29914  0.13381  0.27254  1.0000
  C   C2        1.0  0.15224  0.04883  0.47955  1.0000
  H   H2        1.0  0.29770  0.17953  0.23902  1.0000
  S   S1        1.0  0.28432  0.15661  0.33846  1.0000
  H   H3        1.0  0.00860  0.03862  0.46604  1.0000
  H   H4        1.0  0.19233  0.23600  0.18312  1.0000
  C   C3        1.0  0.16035  0.11570  0.02462  1.0000
  S   S2        1.0  0.18600  0.20163  0.13329  1.0000
  H   H5        1.0  0.01717  0.03705  0.05654  1.0000
  Fe  Fe1       1.0  0.22870  0.16526  0.14908  1.0000
  S   S3        1.0  0.20209  0.16345  0.18354  1.0000
  S   S4        1.0  0.25363  0.14501  0.16300  1.0000
  Fe  Fe2       1.0  0.18690  0.16889  0.12555  1.0000
  S   S5        1.0  0.15986  0.15175  0.12057  1.0000
  Fe  Fe3       1.0  0.20335  0.19588  0.18832  1.0000
  S   S6        1.0  0.20091  0.20980  0.24823  1.0000
  S   S7        1.0  0.21379  0.16811  0.08992  1.0000
  S   S8        1.0  0.23123  0.19732  0.15834  1.0000
  Fe  Fe4       1.0  0.07889  0.05593  0.39872  1.0000
  S   S9        1.0  0.07442  0.02487  0.41578  1.0000
  S   S10       1.0  0.06752  0.06560  0.33917  1.0000
  Fe  Fe5       1.0  0.19998  0.15690  0.51124  1.0000
  C   C4        1.0  0.13829  0.12240  0.09127  1.0000
  H   H6        1.0  0.27142  0.18581  0.19077  1.0000
  Fe  Fe6       1.0  0.10445  0.02534  0.43731  1.0000
  C   C5        1.0  0.13345  0.10760  0.06438  1.0000
  C   C6        1.0  0.15141  0.01705  0.51000  1.0000
  H   H7        1.0  0.17154  0.11040  0.14624  1.0000
  S   S11       1.0  0.11001  0.05535  0.41493  1.0000
  Fe  Fe7       1.0  0.22549  0.19169  0.50276  1.0000
  H   H8        1.0  0.12120  0.09884  0.06955  1.0000
  C   C7        1.0  0.05013  0.05165  0.11825  1.0000
  C   C8        1.0  0.04297  0.06186  0.33586  1.0000
  C   C9        1.0  0.03370  0.05304  0.36708  1.0000
  C   C10       1.0  0.01423  0.04961  0.36415  1.0000
  C   C11       1.0  0.00384  0.05509  0.33020  1.0000
  C   C12       1.0  0.01305  0.06396  0.29888  1.0000
  C   C13       1.0  0.03261  0.06739  0.30178  1.0000
  H   H9        1.0  0.04146  0.04901  0.39372  1.0000
  H   H10       1.0  0.00726  0.04276  0.38834  1.0000
  H   H11       1.0  0.00509  0.06849  0.27274  1.0000
  H   H12       1.0  0.03960  0.07459  0.27786  1.0000
  H   H13       1.0  0.99862  0.00866  0.49833  1.0000
  C   C14       1.0  0.03560  0.04274  0.13867  1.0000
  C   C15       1.0  0.01864  0.05318  0.14654  1.0000
  C   C16       1.0  0.01623  0.07267  0.13468  1.0000
  C   C17       1.0  0.03075  0.08148  0.11401  1.0000
  H   H14       1.0  0.29729  0.16253  0.17385  1.0000
  H   H15       1.0  0.03729  0.02767  0.14785  1.0000
  H   H16       1.0  0.00736  0.04598  0.16102  1.0000
  H   H17       1.0  0.02901  0.09654  0.10471  1.0000
  H   H18       1.0  0.20230  0.11454  0.08242  1.0000
  C   C18       1.0  0.13938  0.16872  0.51511  1.0000
  N   N1        1.0  0.30043  0.19336  0.18238  1.0000
  C   C19       1.0  0.15333  0.11476  0.45342  1.0000
  N   N2        1.0  0.29028  0.17855  0.48556  1.0000
  H   H19       1.0  0.13654  0.05036  0.47745  1.0000
  H   H20       1.0  0.15775  0.06390  0.48109  1.0000
  S   S12       1.0  0.09690  0.03486  0.49828  1.0000
  H   H21       1.0  0.15594  0.11743  0.42249  1.0000
  H   H22       1.0  0.12996  0.09574  0.44136  1.0000
  H   H23       1.0  0.99115  0.05632  0.44859  1.0000
  C   C20       1.0  0.20562  0.10827  0.18196  1.0000
  C   C21       1.0  0.27603  0.15311  0.28965  1.0000
  C   C22       1.0  0.28605  0.14115  0.26310  1.0000
  C   C23       1.0  0.27882  0.13822  0.22460  1.0000
  C   C24       1.0  0.26182  0.14762  0.21220  1.0000
  C   C25       1.0  0.25191  0.15971  0.23869  1.0000
  C   C26       1.0  0.25892  0.16231  0.27736  1.0000
  H   H24       1.0  0.22033  0.12285  0.11636  1.0000
  H   H25       1.0  0.28651  0.12877  0.20434  1.0000
  H   H26       1.0  0.23886  0.16717  0.22944  1.0000
  H   H27       1.0  0.25124  0.17172  0.29761  1.0000
  C   C27       1.0  0.04761  0.07098  0.10568  1.0000
  C   C28       1.0  0.19903  0.23534  0.24545  1.0000
  H   H28       1.0  0.20984  0.08016  0.09935  1.0000
  H   H29       1.0  0.04837  0.03930  0.24217  1.0000
  H   H30       1.0  0.10102  0.04225  0.24377  1.0000
  C   C29       1.0  0.27984  0.19768  0.17803  1.0000
  H   H31       1.0  0.10529  0.01767  0.22682  1.0000
  H   H32       1.0  0.06809  0.01404  0.18014  1.0000
  S   S13       1.0  0.04341  0.02309  0.50757  1.0000
  C   C30       1.0  0.21406  0.23930  0.47647  1.0000
  C   C31       1.0  0.22789  0.23270  0.45006  1.0000
  Fe  Fe8       1.0  0.08304  0.04770  0.05010  1.0000
  Fe  Fe9       1.0  0.21407  0.20051  0.10224  1.0000
  S   S14       1.0  0.97940  0.05068  0.32762  1.0000
  H   H33       1.0  0.28604  0.20563  0.45420  1.0000
  H   H34       1.0  0.99416  0.01306  0.42467  1.0000
  H   H35       1.0  0.30783  0.21105  0.13267  1.0000
  H   H36       1.0  0.17723  0.08522  0.15662  1.0000
  H   H37       1.0  0.08282  0.02989  0.29880  1.0000
  H   H38       1.0  0.22068  0.11270  0.18527  1.0000
  C   C32       1.0  0.20522  0.11853  0.11381  1.0000
  H   H39       1.0  0.15435  0.16945  0.50513  1.0000
  H   H40       1.0  0.27562  0.21145  0.19355  1.0000
  H   H41       1.0  0.05884  0.07809  0.09053  1.0000
  Fe  Fe10      1.0  0.10026  0.06525  0.47499  1.0000
  C   C33       1.0  0.19500  0.24458  0.20935  1.0000
  H   H42       1.0  0.22835  0.08810  0.13240  1.0000
  H   H43       1.0  0.24360  0.23946  0.39788  1.0000
  C   C34       1.0  0.31104  0.20941  0.16484  1.0000
  H   H44       1.0  0.30705  0.20430  0.48522  1.0000
  S   S15       1.0  0.07131  0.03850  0.10844  1.0000
  N   N3        1.0  0.20113  0.10235  0.14086  1.0000
  S   S16       1.0  0.23907  0.20970  0.45615  1.0000
  H   H45       1.0  0.12970  0.12494  0.11714  1.0000
  H   H46       1.0  0.15725  0.04194  0.45160  1.0000
  H   H47       1.0  0.13027  0.17693  0.49334  1.0000
  H   H48       1.0  0.19620  0.13167  0.12049  1.0000
  N   N4        1.0  0.20796  0.18477  0.35932  1.0000
  C   C35       1.0  0.22401  0.19779  0.35308  1.0000
  C   C36       1.0  0.20955  0.17607  0.39923  1.0000
  C   C37       1.0  0.20838  0.16908  0.32924  1.0000
  C   C38       1.0  0.18988  0.19620  0.35578  1.0000
  H   H49       1.0  0.22351  0.20419  0.32282  1.0000
  H   H50       1.0  0.23794  0.18988  0.35703  1.0000
  H   H51       1.0  0.22374  0.21014  0.37446  1.0000
  H   H52       1.0  0.20875  0.18750  0.42260  1.0000
  H   H53       1.0  0.19795  0.16574  0.40465  1.0000
  H   H54       1.0  0.22330  0.16786  0.40353  1.0000
  H   H55       1.0  0.19635  0.15909  0.33281  1.0000
  H   H56       1.0  0.22180  0.16012  0.33137  1.0000
  H   H57       1.0  0.20734  0.17518  0.29874  1.0000
  H   H58       1.0  0.18814  0.20293  0.32597  1.0000
  H   H59       1.0  0.18925  0.20831  0.37782  1.0000
  H   H60       1.0  0.17745  0.18688  0.36051  1.0000
  C   C39       1.0  0.16528  0.13041  0.05171  1.0000
  H   H61       1.0  0.06229  0.01561  0.28990  1.0000
  C   C40       1.0  0.07670  0.01864  0.27885  1.0000
  S   S17       1.0  0.99509  0.08621  0.14374  1.0000
  H   H62       1.0  0.15719  0.00987  0.48295  1.0000
  H   H63       1.0  0.19647  0.12096  0.19123  1.0000
  C   C41       1.0  0.06312  0.04264  0.23369  1.0000
  H   H64       1.0  0.21027  0.07246  0.15009  1.0000
  C   C42       1.0  0.16452  0.12377  0.48252  1.0000
  Fe  Fe11      1.0  0.06708  0.03725  0.47506  1.0000
  H   H65       1.0  0.00498  0.07971  0.04476  1.0000
  H   H66       1.0  0.99457  0.02670  0.04448  1.0000
  H   H67       1.0  0.27546  0.19914  0.14638  1.0000
  C   C43       1.0  0.21293  0.08499  0.13021  1.0000
  H   H68       1.0  0.20329  0.09622  0.20316  1.0000
  C   C44       1.0  0.23281  0.24448  0.41828  1.0000
  C   C45       1.0  0.14440  0.10430  0.03081  1.0000
  C   C46       1.0  0.13492  0.09920  0.50390  1.0000
  H   H69       1.0  0.25237  0.23979  0.12618  1.0000
  S   S18       1.0  0.06935  0.06863  0.45680  1.0000
  C   C47       1.0  0.18080  0.09770  0.13740  1.0000
  H   H70       1.0  0.23510  0.24306  0.18971  1.0000
  H   H71       1.0  0.30646  0.19124  0.43934  1.0000
  H   H72       1.0  0.09510  0.03564  0.19360  1.0000
  H   H73       1.0  0.17671  0.09388  0.10642  1.0000
  H   H74       1.0  0.30201  0.20517  0.24134  1.0000
  H   H75       1.0  0.06791  0.05470  0.25329  1.0000
  H   H76       1.0  0.17746  0.13927  0.04650  1.0000
  H   H77       1.0  0.26599  0.17665  0.44664  1.0000
  S   S19       1.0  0.11185  0.03824  0.02854  1.0000
  S   S20       1.0  0.22499  0.22491  0.06473  1.0000
  C   C48       1.0  0.20213  0.24658  0.27944  1.0000
  C   C49       1.0  0.13861  0.10246  0.46403  1.0000
  H   H78       1.0  0.06258  0.04835  0.20289  1.0000
  C   C50       1.0  0.09521  0.03046  0.22481  1.0000
  H   H79       1.0  0.12540  0.01485  0.28870  1.0000
  S   S21       1.0  0.08463  0.07829  0.02689  1.0000
  S   S22       1.0  0.23100  0.15947  0.49873  1.0000
  S   S23       1.0  0.18227  0.13974  0.46776  1.0000
  H   H80       1.0  0.99448  0.05218  0.50078  1.0000
  N   N5        1.0  0.07598  0.02528  0.23727  1.0000
  H   H81       1.0  0.20508  0.23952  0.30754  1.0000
  H   H82       1.0  0.12604  0.02282  0.36021  1.0000
  H   H83       1.0  0.27256  0.15434  0.47184  1.0000
  S   S24       1.0  0.19416  0.18925  0.51073  1.0000
  H   H84       1.0  0.21032  0.23036  0.50132  1.0000
  C   C51       1.0  0.27828  0.16752  0.45763  1.0000
  C   C52       1.0  0.30530  0.17488  0.16177  1.0000
  H   H85       1.0  0.99565  0.04828  0.07456  1.0000
  H   H86       1.0  0.30175  0.17580  0.12963  1.0000
  C   C53       1.0  0.00208  0.04067  0.04861  1.0000
  C   C54       1.0  0.29776  0.19571  0.46520  1.0000
  H   H87       1.0  0.28642  0.16257  0.43125  1.0000
  H   H88       1.0  0.13542  0.15311  0.51341  1.0000
  C   C55       1.0  0.99407  0.04485  0.47133  1.0000
  C   C56       1.0  0.06898  0.00942  0.21165  1.0000
  H   H89       1.0  0.31135  0.24500  0.28410  1.0000
  N   N6        1.0  0.97966  0.02957  0.46977  1.0000
  N   N7        1.0  0.15814  0.03720  0.51457  1.0000
  H   H90       1.0  0.30741  0.22363  0.17923  1.0000
  C   C57       1.0  0.97995  0.01986  0.43069  1.0000
  H   H91       1.0  0.26704  0.19523  0.51032  1.0000
  S   S25       1.0  0.98004  0.04463  0.21545  1.0000
  C   C58       1.0  0.30619  0.16577  0.49983  1.0000
  C   C59       1.0  0.30550  0.19148  0.22483  1.0000
  C   C60       1.0  0.98393  0.01496  0.50097  1.0000
  H   H92       1.0  0.25660  0.25173  0.21241  1.0000
  H   H93       1.0  0.27360  0.24938  0.14879  1.0000
  C   C61       1.0  0.25989  0.25342  0.13376  1.0000
  H   H94       1.0  0.13566  0.01685  0.50700  1.0000
  H   H95       1.0  0.18577  0.03018  0.49153  1.0000
  C   C62       1.0  0.24350  0.25631  0.19569  1.0000
  H   H96       1.0  0.98660  0.01461  0.28165  1.0000
  H   H97       1.0  0.30097  0.15297  0.51629  1.0000
  H   H98       1.0  0.00779  0.00873  0.22426  1.0000
  H   H99       1.0  0.02627  0.06806  0.02633  1.0000
  C   C63       1.0  0.01096  0.07117  0.01950  1.0000
  C   C64       1.0  0.12438  0.00788  0.35069  1.0000
  H   H100      1.0  0.25946  0.22023  0.94929  1.0000
  S   S26       1.0  0.06737  0.03622  0.99737  1.0000
  C   C65       1.0  0.20211  0.23166  0.93793  1.0000
  Fe  Fe12      1.0  0.98988  0.04742  0.76212  1.0000
  C   C66       1.0  0.21758  0.24487  0.65794  1.0000
  H   H101      1.0  0.19059  0.21277  0.76264  1.0000
  C   C67       1.0  0.26920  0.22957  0.96673  1.0000
  C   C68       1.0  0.21812  0.18588  0.77685  1.0000
  S   S27       1.0  0.00927  0.03192  0.80645  1.0000
  C   C69       1.0  0.20592  0.21226  0.99804  1.0000
  Fe  Fe13      1.0  0.23521  0.16090  0.56449  1.0000
  S   S28       1.0  0.20465  0.15514  0.57711  1.0000
  S   S29       1.0  0.26087  0.14685  0.59437  1.0000
  N   N8        1.0  0.13718  0.17662  0.55558  1.0000
  H   H102      1.0  0.22196  0.21623  0.72877  1.0000
  Fe  Fe14      1.0  0.20128  0.18793  0.57567  1.0000
  S   S30       1.0  0.18223  0.20248  0.62078  1.0000
  C   C70       1.0  0.20872  0.25211  0.69196  1.0000
  S   S31       1.0  0.23222  0.19348  0.56746  1.0000
  Fe  Fe15      1.0  0.07124  0.06591  0.97205  1.0000
  H   H103      1.0  0.01390  0.01741  0.56384  1.0000
  S   S32       1.0  0.04706  0.08240  0.94203  1.0000
  H   H104      1.0  0.14077  0.20384  0.58646  1.0000
  H   H105      1.0  0.09815  0.10891  0.90660  1.0000
  H   H106      1.0  0.30935  0.12605  0.95583  1.0000
  Fe  Fe16      1.0  0.09621  0.02919  0.97338  1.0000
  H   H107      1.0  0.14914  0.17156  0.61374  1.0000
  H   H108      1.0  0.14347  0.10550  0.56396  1.0000
  H   H109      1.0  0.00154  0.02830  0.97325  1.0000
  S   S33       1.0  0.09886  0.05803  0.94326  1.0000
  H   H110      1.0  0.00115  0.07154  0.83410  1.0000
  C   C71       1.0  0.03187  0.06998  0.57670  1.0000
  H   H111      1.0  0.30944  0.20472  0.01681  1.0000
  C   C72       1.0  0.03686  0.06872  0.90351  1.0000
  C   C73       1.0  0.04376  0.04983  0.89541  1.0000
  C   C74       1.0  0.03529  0.03874  0.86541  1.0000
  C   C75       1.0  0.01991  0.04649  0.84312  1.0000
  C   C76       1.0  0.01303  0.06545  0.85109  1.0000
  C   C77       1.0  0.02146  0.07652  0.88137  1.0000
  H   H112      1.0  0.05574  0.04377  0.91205  1.0000
  C   C78       1.0  0.14621  0.10809  0.53305  1.0000
  H   H113      1.0  0.18448  0.24996  0.72953  1.0000
  H   H114      1.0  0.01606  0.09114  0.88750  1.0000
  C   C79       1.0  0.98036  0.05780  0.00409  1.0000
  C   C80       1.0  0.01878  0.03215  0.56713  1.0000
  C   C81       1.0  0.01046  0.04470  0.59528  1.0000
  C   C82       1.0  0.01707  0.06364  0.60011  1.0000
  C   C83       1.0  0.21178  0.24685  0.95631  1.0000
  S   S34       1.0  0.13829  0.08653  0.99536  1.0000
  H   H115      1.0  0.06109  0.04034  0.67287  1.0000
  H   H116      1.0  0.28154  0.22017  0.97639  1.0000
  H   H117      1.0  0.17011  0.22321  0.69057  1.0000
  H   H118      1.0  0.09136  0.14469  0.89998  1.0000
  H   H119      1.0  0.15406  0.06167  0.55390  1.0000
  H   H120      1.0  0.16978  0.12691  0.54501  1.0000
  S   S35       1.0  0.19388  0.23372  0.88861  1.0000
  H   H121      1.0  0.06758  0.12274  0.92925  1.0000
  S   S36       1.0  0.11647  0.08407  0.51855  1.0000
  H   H122      1.0  0.16514  0.16705  0.57418  1.0000
  H   H123      1.0  0.21137  0.18397  0.74714  1.0000
  H   H124      1.0  0.11521  0.18027  0.59861  1.0000
  H   H125      1.0  0.16882  0.11325  0.99856  1.0000
  C   C84       1.0  0.22786  0.20853  0.82747  1.0000
  H   H126      1.0  0.08617  0.02657  0.88859  1.0000
  C   C85       1.0  0.27070  0.17388  0.71672  1.0000
  S   S37       1.0  0.00763  0.07954  0.63585  1.0000
  C   C86       1.0  0.28171  0.15325  0.66257  1.0000
  C   C87       1.0  0.26469  0.15712  0.64153  1.0000
  C   C88       1.0  0.25073  0.16933  0.65820  1.0000
  C   C89       1.0  0.25374  0.17768  0.69553  1.0000
  C   C90       1.0  0.18341  0.22917  0.68149  1.0000
  C   C91       1.0  0.00888  0.04226  0.97887  1.0000
  H   H127      1.0  0.23747  0.17221  0.64251  1.0000
  H   H128      1.0  0.24286  0.18716  0.70771  1.0000
  H   H129      1.0  0.21024  0.17704  0.79832  1.0000
  C   C92       1.0  0.19242  0.22176  0.64768  1.0000
  C   C93       1.0  0.20944  0.22979  0.63586  1.0000
  Fe  Fe17      1.0  0.11224  0.06801  0.00058  1.0000
  H   H130      1.0  0.03707  0.08460  0.58052  1.0000
  H   H131      1.0  0.21625  0.22464  0.60937  1.0000
  H   H132      1.0  0.29253  0.14374  0.64986  1.0000
  H   H133      1.0  0.07182  0.11283  0.97743  1.0000
  N   N9        1.0  0.21819  0.20668  0.78859  1.0000
  H   H134      1.0  0.09671  0.14530  0.00968  1.0000
  H   H135      1.0  0.05409  0.03398  0.62325  1.0000
  C   C94       1.0  0.04528  0.00948  0.70797  1.0000
  H   H136      1.0  0.06667  0.13848  0.97194  1.0000
  H   H137      1.0  0.19045  0.20667  0.81441  1.0000
  C   C95       1.0  0.10335  0.13241  0.99464  1.0000
  H   H138      1.0  0.22800  0.23385  0.76586  1.0000
  H   H139      1.0  0.07940  0.02275  0.81697  1.0000
  H   H140      1.0  0.24356  0.21317  0.75712  1.0000
  H   H141      1.0  0.23284  0.17953  0.77540  1.0000
  H   H142      1.0  0.22037  0.20044  0.85080  1.0000
  H   H143      1.0  0.22817  0.22404  0.83719  1.0000
  C   C96       1.0  0.28475  0.16168  0.70010  1.0000
  H   H144      1.0  0.24279  0.20273  0.82644  1.0000
  H   H145      1.0  0.04098  0.02429  0.85913  1.0000
  H   H146      1.0  0.11985  0.11407  0.93320  1.0000
  C   C97       1.0  0.21573  0.22738  0.01628  1.0000
  H   H147      1.0  0.18406  0.02801  0.54430  1.0000
  H   H148      1.0  0.15678  0.19967  0.54681  1.0000
  C   C98       1.0  0.04012  0.05748  0.54858  1.0000
  H   H149      1.0  0.26145  0.23442  0.99371  1.0000
  C   C99       1.0  0.17908  0.03676  0.51826  1.0000
  H   H150      1.0  0.29782  0.15853  0.71631  1.0000
  S   S38       1.0  0.99168  0.03550  0.70058  1.0000
  Fe  Fe18      1.0  0.30282  0.18291  0.79217  1.0000
  N   N10       1.0  0.09489  0.12924  0.95493  1.0000
  C   C100      1.0  0.16105  0.12025  0.52242  1.0000
  C   C101      1.0  0.10431  0.11207  0.93637  1.0000
  H   H151      1.0  0.30400  0.24691  0.68740  1.0000
  N   N11       1.0  0.27535  0.24641  0.94338  1.0000
  H   H152      1.0  0.05164  0.06250  0.53098  1.0000
  C   C102      1.0  0.08620  0.01084  0.83330  1.0000
  H   H153      1.0  0.05510  0.01749  0.72797  1.0000
  H   H154      1.0  0.01034  0.08073  0.99288  1.0000
  C   C103      1.0  0.28595  0.23937  0.90851  1.0000
  H   H155      1.0  0.98259  0.02151  0.53099  1.0000
  H   H156      1.0  0.11890  0.13480  0.99308  1.0000
  S   S39       1.0  0.27354  0.18426  0.76417  1.0000
  H   H157      1.0  0.19173  0.20260  0.94481  1.0000
  C   C104      1.0  0.05062  0.03208  0.65500  1.0000
  C   C105      1.0  0.09758  0.14665  0.93016  1.0000
  C   C106      1.0  0.03350  0.03861  0.54352  1.0000
  H   H158      1.0  0.28770  0.19305  0.54180  1.0000
  C   C107      1.0  0.22837  0.21797  0.75882  1.0000
  S   S40       1.0  0.98984  0.07853  0.74240  1.0000
  C   C108      1.0  0.21870  0.24463  0.99530  1.0000
  H   H159      1.0  0.19797  0.23013  0.79919  1.0000
  C   C109      1.0  0.15011  0.16575  0.58302  1.0000
  C   C110      1.0  0.19842  0.21435  0.79124  1.0000
  C   C111      1.0  0.07436  0.12575  0.95855  1.0000
  C   C112      1.0  0.19925  0.21436  0.95884  1.0000
  H   H160      1.0  0.13238  0.20630  0.53609  1.0000
  C   C113      1.0  0.19155  0.24430  0.70364  1.0000
  H   H161      1.0  0.99897  0.03976  0.61320  1.0000
  H   H162      1.0  0.27721  0.22972  0.88951  1.0000
  H   H163      1.0  0.03642  0.03919  0.65982  1.0000
  H   H164      1.0  0.20358  0.19891  0.01402  1.0000
  H   H165      1.0  0.23081  0.25088  0.64861  1.0000
  H   H166      1.0  0.24862  0.24916  0.91187  1.0000
  H   H167      1.0  0.10274  0.09883  0.95470  1.0000
  H   H168      1.0  0.29895  0.23080  0.91742  1.0000
  H   H169      1.0  0.11293  0.14963  0.92683  1.0000
  H   H170      1.0  0.00772  0.05108  0.95126  1.0000
  H   H171      1.0  0.09067  0.15991  0.94335  1.0000
  H   H172      1.0  0.14693  0.14993  0.58369  1.0000
  H   H173      1.0  0.22614  0.25642  0.00947  1.0000
  H   H174      1.0  0.11336  0.15882  0.56819  1.0000
  H   H175      1.0  0.30081  0.25058  0.97802  1.0000
  C   C114      1.0  0.14980  0.04622  0.55034  1.0000
  C   C115      1.0  0.27891  0.18517  0.51966  1.0000
  C   C116      1.0  0.09003  0.01304  0.87391  1.0000
  H   H176      1.0  0.29061  0.25173  0.89007  1.0000
  N   N12       1.0  0.00058  0.05297  0.01278  1.0000
  H   H177      1.0  0.15420  0.03811  0.57758  1.0000
  H   H178      1.0  0.27263  0.17264  0.53507  1.0000
  C   C117      1.0  0.11735  0.17445  0.56817  1.0000
  N   N13       1.0  0.05083  0.01122  0.66617  1.0000
  H   H179      1.0  0.10718  0.18244  0.54805  1.0000
  H   H180      1.0  0.13397  0.04651  0.54869  1.0000
  Fe  Fe19      1.0  0.98868  0.06651  0.68078  1.0000
  H   H181      1.0  0.03071  0.01562  0.71288  1.0000
  H   H182      1.0  0.02423  0.03874  0.98401  1.0000
  C   C118      1.0  0.14190  0.19752  0.55615  1.0000
  H   H183      1.0  0.08070  0.00982  0.68076  1.0000
  S   S41       1.0  0.31085  0.20980  0.82603  1.0000
  H   H184      1.0  0.10156  0.11951  0.01403  1.0000
  H   H185      1.0  0.18460  0.05175  0.52191  1.0000
  S   S42       1.0  0.31136  0.16205  0.84076  1.0000
  H   H186      1.0  0.15560  0.00778  0.53582  1.0000
  H   H187      1.0  0.04201  0.42709  0.05189  1.0000
  C   C119      1.0  0.29623  0.33283  0.40909  1.0000
  H   H188      1.0  0.02718  0.46707  0.29111  1.0000
  H   H189      1.0  0.03890  0.43616  0.50226  1.0000
  H   H190      1.0  0.22942  0.31935  0.51638  1.0000
  H   H191      1.0  0.01504  0.50509  0.36562  1.0000
  C   C120      1.0  0.19844  0.27626  0.24069  1.0000
  Fe  Fe20      1.0  0.10541  0.43466  0.21823  1.0000
  S   S43       1.0  0.09881  0.46401  0.24552  1.0000
  S   S44       1.0  0.13517  0.42166  0.21316  1.0000
  Fe  Fe21      1.0  0.06449  0.42915  0.19163  1.0000
  S   S45       1.0  0.05448  0.45768  0.21760  1.0000
  S   S46       1.0  0.04658  0.40967  0.15326  1.0000
  Fe  Fe22      1.0  0.08065  0.46983  0.19151  1.0000
  S   S47       1.0  0.07572  0.49913  0.16203  1.0000
  Fe  Fe23      1.0  0.07321  0.44948  0.26937  1.0000
  S   S48       1.0  0.06474  0.45752  0.33156  1.0000
  S   S49       1.0  0.08943  0.44187  0.16173  1.0000
  S   S50       1.0  0.08109  0.41958  0.24602  1.0000
  Fe  Fe24      1.0  0.23799  0.33486  0.34528  1.0000
  S   S51       1.0  0.21757  0.34167  0.39408  1.0000
  S   S52       1.0  0.26992  0.33732  0.34899  1.0000
  Fe  Fe25      1.0  0.20781  0.31615  0.29392  1.0000
  S   S53       1.0  0.18510  0.32118  0.33857  1.0000
  S   S54       1.0  0.20059  0.30160  0.23597  1.0000
  Fe  Fe26      1.0  0.19708  0.35101  0.34539  1.0000
  S   S55       1.0  0.17528  0.37550  0.35532  1.0000
  Fe  Fe27      1.0  0.20722  0.31148  0.38300  1.0000
  S   S56       1.0  0.19922  0.29282  0.43450  1.0000
  S   S57       1.0  0.21845  0.34676  0.29701  1.0000
  S   S58       1.0  0.22908  0.30392  0.33771  1.0000
  C   C121      1.0  0.20516  0.25770  0.47106  1.0000
  H   H192      1.0  0.08576  0.45460  0.06639  1.0000
  H   H193      1.0  0.00442  0.46343  0.34484  1.0000
  S   S59       1.0  0.98531  0.45917  0.46420  1.0000
  C   C122      1.0  0.29429  0.32350  0.24313  1.0000
  H   H194      1.0  0.02771  0.48937  0.26365  1.0000
  C   C123      1.0  0.99927  0.42120  0.08696  1.0000
  C   C124      1.0  0.01605  0.41238  0.10231  1.0000
  C   C125      1.0  0.02460  0.41972  0.13677  1.0000
  C   C126      1.0  0.01594  0.43545  0.15658  1.0000
  C   C127      1.0  0.99893  0.44394  0.14185  1.0000
  H   H195      1.0  0.05078  0.44654  0.11294  1.0000
  H   H196      1.0  0.02261  0.40008  0.08709  1.0000
  H   H197      1.0  0.02211  0.44082  0.18371  1.0000
  H   H198      1.0  0.03188  0.48615  0.35212  1.0000
  C   C128      1.0  0.04640  0.44390  0.35139  1.0000
  C   C129      1.0  0.03817  0.42877  0.32991  1.0000
  C   C130      1.0  0.02312  0.41853  0.34602  1.0000
  C   C131      1.0  0.01605  0.42360  0.38330  1.0000
  C   C132      1.0  0.02437  0.43869  0.40479  1.0000
  C   C133      1.0  0.03953  0.44878  0.38891  1.0000
  H   H199      1.0  0.04340  0.42491  0.30092  1.0000
  H   H200      1.0  0.01680  0.40682  0.32932  1.0000
  H   H201      1.0  0.01935  0.44235  0.43390  1.0000
  H   H202      1.0  0.04586  0.46048  0.40552  1.0000
  H   H203      1.0  0.24993  0.29438  0.18757  1.0000
  C   C134      1.0  0.09952  0.48865  0.10095  1.0000
  H   H204      1.0  0.26389  0.30742  0.43773  1.0000
  H   H205      1.0  0.27210  0.28078  0.18433  1.0000
  H   H206      1.0  0.10441  0.47651  0.11913  1.0000
  H   H207      1.0  0.00804  0.47336  0.25755  1.0000
  H   H208      1.0  0.24587  0.32451  0.45404  1.0000
  C   C135      1.0  0.14651  0.41016  0.25409  1.0000
  C   C136      1.0  0.16535  0.40322  0.25053  1.0000
  C   C137      1.0  0.17449  0.39298  0.28173  1.0000
  C   C138      1.0  0.16476  0.38943  0.31656  1.0000
  C   C139      1.0  0.14610  0.39689  0.32059  1.0000
  C   C140      1.0  0.13694  0.40714  0.28937  1.0000
  H   H209      1.0  0.17289  0.40575  0.22347  1.0000
  H   H210      1.0  0.18905  0.38778  0.27881  1.0000
  H   H211      1.0  0.13857  0.39437  0.34767  1.0000
  H   H212      1.0  0.12243  0.41246  0.29240  1.0000
  H   H213      1.0  0.03575  0.46621  0.09482  1.0000
  N   N14       1.0  0.24805  0.26649  0.15871  1.0000
  C   C141      1.0  0.08597  0.50209  0.11537  1.0000
  H   H214      1.0  0.22132  0.28232  0.15436  1.0000
  H   H215      1.0  0.06654  0.48306  0.04132  1.0000
  C   C142      1.0  0.12383  0.46956  0.41678  1.0000
  C   C143      1.0  0.27687  0.35795  0.46084  1.0000
  C   C144      1.0  0.26929  0.35434  0.42291  1.0000
  C   C145      1.0  0.27900  0.34185  0.39686  1.0000
  H   H216      1.0  0.12933  0.47317  0.33858  1.0000
  C   C146      1.0  0.07489  0.44493  0.05337  1.0000
  H   H217      1.0  0.28267  0.32580  0.26483  1.0000
  H   H218      1.0  0.25610  0.36153  0.41356  1.0000
  H   H219      1.0  0.26340  0.32881  0.51760  1.0000
  H   H220      1.0  0.07952  0.44088  0.02306  1.0000
  C   C147      1.0  0.10704  0.49114  0.06306  1.0000
  C   C148      1.0  0.12134  0.50223  0.39034  1.0000
  C   C149      1.0  0.25045  0.30884  0.45454  1.0000
  H   H221      1.0  0.30469  0.31309  0.31657  1.0000
  H   H222      1.0  0.98553  0.50053  0.27336  1.0000
  H   H223      1.0  0.19127  0.27209  0.17914  1.0000
  H   H224      1.0  0.11762  0.48082  0.05205  1.0000
  H   H225      1.0  0.19456  0.26287  0.49177  1.0000
  H   H226      1.0  0.22752  0.27168  0.38793  1.0000
  H   H227      1.0  0.99218  0.45597  0.15756  1.0000
  H   H228      1.0  0.11811  0.45458  0.41645  1.0000
  H   H229      1.0  0.30296  0.34854  0.30147  1.0000
  C   C150      1.0  0.29396  0.34873  0.47324  1.0000
  H   H230      1.0  0.26191  0.29256  0.14131  1.0000
  H   H231      1.0  0.99036  0.50276  0.46238  1.0000
  H   H232      1.0  0.10642  0.48411  0.32691  1.0000
  C   C151      1.0  0.01818  0.47948  0.27957  1.0000
  C   C152      1.0  0.99596  0.47604  0.33258  1.0000
  C   C153      1.0  0.99065  0.43693  0.10689  1.0000
  S   S60       1.0  0.10291  0.49947  0.51071  1.0000
  C   C154      1.0  0.19445  0.26502  0.20710  1.0000
  H   H233      1.0  0.02719  0.44747  0.03636  1.0000
  H   H234      1.0  0.10809  0.45985  0.34645  1.0000
  N   N15       1.0  0.05584  0.45459  0.05280  1.0000
  S   S61       1.0  0.99678  0.41105  0.40256  1.0000
  H   H235      1.0  0.23948  0.30063  0.43800  1.0000
  H   H236      1.0  0.98183  0.36897  0.41528  1.0000
  H   H237      1.0  0.08653  0.46938  0.40091  1.0000
  N   N16       1.0  0.15291  0.34178  0.23481  1.0000
  C   C155      1.0  0.17191  0.34917  0.24453  1.0000
  C   C156      1.0  0.13846  0.35758  0.24057  1.0000
  C   C157      1.0  0.14893  0.32521  0.26105  1.0000
  C   C158      1.0  0.15248  0.33516  0.19319  1.0000
  H   H238      1.0  0.17310  0.35322  0.27632  1.0000
  H   H239      1.0  0.17509  0.36223  0.22659  1.0000
  H   H240      1.0  0.18328  0.33804  0.23877  1.0000
  H   H241      1.0  0.13862  0.36298  0.27167  1.0000
  H   H242      1.0  0.14106  0.37039  0.22133  1.0000
  H   H243      1.0  0.12389  0.35260  0.23372  1.0000
  H   H244      1.0  0.14879  0.32986  0.29265  1.0000
  H   H245      1.0  0.15996  0.31328  0.25830  1.0000
  H   H246      1.0  0.13490  0.31892  0.25401  1.0000
  H   H247      1.0  0.13832  0.32956  0.18468  1.0000
  H   H248      1.0  0.16326  0.32319  0.18815  1.0000
  H   H249      1.0  0.15563  0.34731  0.17272  1.0000
  S   S62       1.0  0.31035  0.26740  0.21295  1.0000
  N   N17       1.0  0.00813  0.48981  0.31183  1.0000
  H   H250      1.0  0.07509  0.43135  0.07151  1.0000
  C   C159      1.0  0.02214  0.49781  0.34010  1.0000
  H   H251      1.0  0.13646  0.50179  0.38114  1.0000
  H   H252      1.0  0.05336  0.46676  0.47736  1.0000
  C   C160      1.0  0.99622  0.50595  0.29506  1.0000
  C   C161      1.0  0.22373  0.26277  0.41261  1.0000
  H   H253      1.0  0.98079  0.35550  0.46083  1.0000
  H   H254      1.0  0.12308  0.47517  0.44773  1.0000
  H   H255      1.0  0.29174  0.33410  0.21857  1.0000
  C   C162      1.0  0.20189  0.26703  0.27704  1.0000
  C   C163      1.0  0.05037  0.45965  0.09366  1.0000
  C   C164      1.0  0.25849  0.28433  0.16845  1.0000
  N   N18       1.0  0.11315  0.48260  0.38908  1.0000
  S   S63       1.0  0.26558  0.29533  0.05847  1.0000
  C   C165      1.0  0.09302  0.48400  0.40078  1.0000
  H   H256      1.0  0.30379  0.32311  0.38920  1.0000
  H   H257      1.0  0.20454  0.27558  0.30329  1.0000
  N   N19       1.0  0.25291  0.30161  0.49549  1.0000
  H   H258      1.0  0.22347  0.29509  0.50228  1.0000
  H   H259      1.0  0.26937  0.36777  0.48070  1.0000
  C   C166      1.0  0.20993  0.26946  0.43908  1.0000
  C   C167      1.0  0.23033  0.27193  0.13695  1.0000
  C   C168      1.0  0.99875  0.50709  0.48899  1.0000
  H   H260      1.0  0.23339  0.27916  0.10833  1.0000
  H   H261      1.0  0.06023  0.47023  0.10725  1.0000
  H   H262      1.0  0.13912  0.46826  0.40897  1.0000
  H   H263      1.0  0.08443  0.49335  0.37994  1.0000
  C   C169      1.0  0.11435  0.47459  0.34852  1.0000
  S   S64       1.0  0.30796  0.26531  0.09724  1.0000
  H   H264      1.0  0.99285  0.41562  0.06012  1.0000
  C   C170      1.0  0.30355  0.33603  0.44737  1.0000
  C   C171      1.0  0.25895  0.28077  0.49474  1.0000
  H   H265      1.0  0.00201  0.49370  0.50666  1.0000
  H   H266      1.0  0.31197  0.35725  0.25552  1.0000
  Fe  Fe28      1.0  0.29597  0.29486  0.08057  1.0000
  C   C172      1.0  0.05622  0.47259  0.02885  1.0000
  S   S65       1.0  0.30302  0.30836  0.13917  1.0000
  H   H267      1.0  0.22180  0.25888  0.12992  1.0000
  C   C173      1.0  0.05333  0.47232  0.50830  1.0000
  H   H268      1.0  0.98491  0.47008  0.31235  1.0000
  H   H269      1.0  0.09151  0.49038  0.43088  1.0000
  H   H270      1.0  0.07347  0.43825  0.50042  1.0000
  C   C174      1.0  0.04193  0.44114  0.03543  1.0000
  H   H271      1.0  0.26324  0.26055  0.10527  1.0000
  H   H272      1.0  0.98843  0.48328  0.35763  1.0000
  H   H273      1.0  0.04204  0.48020  0.02781  1.0000
  H   H274      1.0  0.23497  0.26595  0.21561  1.0000
  H   H275      1.0  0.29302  0.30853  0.23067  1.0000
  H   H276      1.0  0.28135  0.31189  0.50062  1.0000
  H   H277      1.0  0.24814  0.27174  0.47959  1.0000
  H   H278      1.0  0.27256  0.27854  0.47878  1.0000
  H   H279      1.0  0.06521  0.48264  0.51150  1.0000
  C   C175      1.0  0.23473  0.30388  0.51650  1.0000
  C   C176      1.0  0.26756  0.31301  0.51615  1.0000
  H   H280      1.0  0.03987  0.48091  0.51253  1.0000
  C   C177      1.0  0.10117  0.50718  0.03978  1.0000
  H   H281      1.0  0.07912  0.48664  0.88374  1.0000
  H   H282      1.0  0.17654  0.38230  0.86814  1.0000
  C   C178      1.0  0.28770  0.25873  0.96817  1.0000
  H   H283      1.0  0.19918  0.37621  0.94726  1.0000
  C   C179      1.0  0.25896  0.29653  0.75644  1.0000
  H   H284      1.0  0.99106  0.43314  0.82446  1.0000
  H   H285      1.0  0.25036  0.26378  0.95571  1.0000
  Fe  Fe29      1.0  0.10718  0.41627  0.74057  1.0000
  S   S66       1.0  0.10628  0.44553  0.77110  1.0000
  S   S67       1.0  0.13517  0.39895  0.73880  1.0000
  Fe  Fe30      1.0  0.06635  0.42102  0.71108  1.0000
  S   S68       1.0  0.06219  0.45021  0.73978  1.0000
  S   S69       1.0  0.04285  0.40726  0.67558  1.0000
  Fe  Fe31      1.0  0.09092  0.45657  0.71673  1.0000
  S   S70       1.0  0.09310  0.48750  0.69490  1.0000
  Fe  Fe32      1.0  0.07761  0.43687  0.79159  1.0000
  S   S71       1.0  0.06758  0.44701  0.85134  1.0000
  S   S72       1.0  0.09412  0.42824  0.68381  1.0000
  S   S73       1.0  0.07947  0.40671  0.76531  1.0000
  Fe  Fe33      1.0  0.22146  0.29856  0.85424  1.0000
  S   S74       1.0  0.19473  0.29264  0.88654  1.0000
  S   S75       1.0  0.24694  0.31381  0.87864  1.0000
  Fe  Fe34      1.0  0.20788  0.27856  0.77909  1.0000
  H   H286      1.0  0.10530  0.49039  0.78951  1.0000
  C   C180      1.0  0.26052  0.30173  0.00907  1.0000
  Fe  Fe35      1.0  0.17993  0.30179  0.82973  1.0000
  S   S76       1.0  0.15356  0.32124  0.83682  1.0000
  N   N20       1.0  0.27438  0.29246  0.72814  1.0000
  C   C181      1.0  0.00939  0.46487  0.75892  1.0000
  S   S77       1.0  0.20673  0.30981  0.79929  1.0000
  H   H287      1.0  0.26309  0.30746  0.77921  1.0000
  H   H288      1.0  0.27952  0.27421  0.67730  1.0000
  H   H289      1.0  0.00890  0.45085  0.83282  1.0000
  H   H290      1.0  0.06049  0.46938  0.99790  1.0000
  C   C182      1.0  0.11405  0.47507  0.86123  1.0000
  H   H291      1.0  0.06723  0.47450  0.58225  1.0000
  C   C183      1.0  0.00238  0.44696  0.60322  1.0000
  H   H292      1.0  0.26456  0.26378  0.71378  1.0000
  H   H293      1.0  0.20891  0.38282  0.90048  1.0000
  C   C184      1.0  0.02744  0.42275  0.64786  1.0000
  C   C185      1.0  0.02717  0.44297  0.65363  1.0000
  C   C186      1.0  0.01447  0.45501  0.63179  1.0000
  S   S78       1.0  0.30271  0.35259  0.52165  1.0000
  H   H294      1.0  0.26106  0.27485  0.52516  1.0000
  H   H295      1.0  0.03675  0.44936  0.67479  1.0000
  H   H296      1.0  0.01429  0.47065  0.63647  1.0000
  C   C187      1.0  0.04769  0.43510  0.86893  1.0000
  C   C188      1.0  0.04229  0.41720  0.85302  1.0000
  C   C189      1.0  0.02585  0.40835  0.86639  1.0000
  C   C190      1.0  0.01474  0.41742  0.89554  1.0000
  C   C191      1.0  0.02033  0.43517  0.91183  1.0000
  C   C192      1.0  0.03684  0.44395  0.89871  1.0000
  H   H297      1.0  0.05077  0.41014  0.83046  1.0000
  H   H298      1.0  0.02169  0.39452  0.85392  1.0000
  H   H299      1.0  0.01200  0.44216  0.93453  1.0000
  H   H300      1.0  0.04102  0.45776  0.91118  1.0000
  C   C193      1.0  0.09615  0.49033  0.64369  1.0000
  C   C194      1.0  0.10501  0.47579  0.62074  1.0000
  C   C195      1.0  0.10763  0.47885  0.58006  1.0000
  S   S79       1.0  0.98787  0.46268  0.57417  1.0000
  H   H301      1.0  0.11024  0.46240  0.63449  1.0000
  S   S80       1.0  0.22517  0.26810  0.83133  1.0000
  H   H302      1.0  0.17499  0.33233  0.90900  1.0000
  C   C196      1.0  0.13969  0.37701  0.76532  1.0000
  C   C197      1.0  0.12690  0.37013  0.79289  1.0000
  C   C198      1.0  0.13123  0.35284  0.81406  1.0000
  C   C199      1.0  0.14827  0.34220  0.80766  1.0000
  C   C200      1.0  0.16103  0.34903  0.78000  1.0000
  C   C201      1.0  0.15678  0.36641  0.75910  1.0000
  H   H303      1.0  0.11372  0.37815  0.79798  1.0000
  H   H304      1.0  0.12128  0.34769  0.83546  1.0000
  H   H305      1.0  0.17414  0.34095  0.77457  1.0000
  H   H306      1.0  0.16671  0.37162  0.73771  1.0000
  C   C202      1.0  0.00267  0.42676  0.59723  1.0000
  H   H307      1.0  0.01516  0.39900  0.61539  1.0000
  H   H308      1.0  0.18861  0.34133  0.84507  1.0000
  H   H309      1.0  0.16235  0.36130  0.87422  1.0000
  H   H310      1.0  0.03996  0.43093  0.55434  1.0000
  C   C203      1.0  0.29150  0.28505  0.74976  1.0000
  H   H311      1.0  0.29224  0.27184  0.95182  1.0000
  C   C204      1.0  0.23775  0.30330  0.95425  1.0000
  C   C205      1.0  0.25181  0.30986  0.92922  1.0000
  C   C206      1.0  0.27018  0.31265  0.94437  1.0000
  C   C207      1.0  0.27458  0.30846  0.98419  1.0000
  H   H312      1.0  0.12496  0.47142  0.83871  1.0000
  H   H313      1.0  0.22357  0.30114  0.94303  1.0000
  H   H314      1.0  0.28111  0.31781  0.92518  1.0000
  S   S81       1.0  0.99368  0.40658  0.91025  1.0000
  C   C208      1.0  0.19894  0.35046  0.86131  1.0000
  S   S82       1.0  0.17986  0.27117  0.80501  1.0000
  N   N21       1.0  0.05531  0.45616  0.53710  1.0000
  H   H315      1.0  0.09654  0.49889  0.91336  1.0000
  H   H316      1.0  0.97913  0.42712  0.75575  1.0000
  H   H317      1.0  0.29041  0.30795  0.68537  1.0000
  H   H318      1.0  0.11482  0.46773  0.56259  1.0000
  C   C209      1.0  0.05544  0.46425  0.57766  1.0000
  H   H319      1.0  0.26626  0.31664  0.69058  1.0000
  C   C210      1.0  0.18562  0.34174  0.92388  1.0000
  N   N22       1.0  0.00192  0.44596  0.77157  1.0000
  H   H320      1.0  0.28372  0.32207  0.72810  1.0000
  H   H321      1.0  0.02985  0.43381  0.78379  1.0000
  S   S83       1.0  0.21994  0.27033  0.71986  1.0000
  C   C211      1.0  0.01673  0.43043  0.76676  1.0000
  H   H322      1.0  0.26250  0.27078  0.91199  1.0000
  H   H323      1.0  0.10386  0.46297  0.86118  1.0000
  H   H324      1.0  0.16708  0.37672  0.91585  1.0000
  H   H325      1.0  0.04197  0.47246  0.58401  1.0000
  C   C212      1.0  0.99651  0.44724  0.81360  1.0000
  H   H326      1.0  0.27011  0.30783  0.54697  1.0000
  H   H327      1.0  0.23614  0.29903  0.54779  1.0000
  H   H328      1.0  0.02214  0.46878  0.77681  1.0000
  H   H329      1.0  0.24586  0.30229  0.74110  1.0000
  H   H330      1.0  0.25500  0.28303  0.77218  1.0000
  C   C213      1.0  0.01505  0.41466  0.61985  1.0000
  H   H331      1.0  0.05729  0.45251  0.60025  1.0000
  C   C214      1.0  0.09491  0.49339  0.81343  1.0000
  H   H332      1.0  0.01188  0.41604  0.77722  1.0000
  C   C215      1.0  0.20482  0.37025  0.91899  1.0000
  C   C216      1.0  0.27888  0.31062  0.70715  1.0000
  H   H333      1.0  0.28901  0.27076  0.76410  1.0000
  N   N23       1.0  0.19070  0.35819  0.89828  1.0000
  H   H334      1.0  0.21805  0.36154  0.92616  1.0000
  H   H335      1.0  0.99856  0.47694  0.76216  1.0000
  H   H336      1.0  0.21195  0.34123  0.86726  1.0000
  H   H337      1.0  0.19829  0.33229  0.93144  1.0000
  H   H338      1.0  0.20284  0.36240  0.84101  1.0000
  H   H339      1.0  0.07559  0.43325  0.55251  1.0000
  N   N24       1.0  0.10433  0.49405  0.85278  1.0000
  C   C217      1.0  0.10106  0.49627  0.56214  1.0000
  H   H340      1.0  0.21387  0.26030  0.94054  1.0000
  C   C218      1.0  0.17345  0.37021  0.88880  1.0000
  H   H341      1.0  0.17929  0.34699  0.95205  1.0000
  H   H342      1.0  0.28882  0.31045  0.99558  1.0000
  Fe  Fe36      1.0  0.19719  0.26288  0.85913  1.0000
  C   C219      1.0  0.26822  0.27767  0.69909  1.0000
  H   H343      1.0  0.02079  0.42861  0.73528  1.0000
  C   C220      1.0  0.08994  0.49818  0.88327  1.0000
  H   H344      1.0  0.12123  0.47513  0.89080  1.0000
  C   C221      1.0  0.24207  0.29938  0.99412  1.0000
  H   H345      1.0  0.99334  0.42043  0.57534  1.0000
  H   H346      1.0  0.25533  0.28282  0.68222  1.0000
  C   C222      1.0  0.03919  0.44297  0.53219  1.0000
  C   C223      1.0  0.98513  0.44130  0.74695  1.0000
  H   H347      1.0  0.23114  0.29420  0.01328  1.0000
  H   H348      1.0  0.01364  0.46440  0.72735  1.0000
  H   H349      1.0  0.97896  0.35427  0.91925  1.0000
  H   H350      1.0  0.08421  0.48174  0.81197  1.0000
  H   H351      1.0  0.08569  0.45478  0.53240  1.0000
  H   H352      1.0  0.29604  0.29545  0.77316  1.0000
  H   H353      1.0  0.02534  0.45093  0.53611  1.0000
  H   H354      1.0  0.04516  0.43762  0.00403  1.0000
  S   S84       1.0  0.97999  0.45398  0.97725  1.0000
  H   H355      1.0  0.98527  0.45873  0.81842  1.0000
  C   C224      1.0  0.07330  0.44510  0.53029  1.0000
  H   H356      1.0  0.12962  0.50684  0.83093  1.0000
  H   H357      1.0  0.98883  0.44014  0.71506  1.0000
  H   H358      1.0  0.28028  0.26402  0.99519  1.0000
  H   H359      1.0  0.30369  0.28287  0.72951  1.0000
  C   C225      1.0  0.25848  0.25803  0.93006  1.0000
  C   C226      1.0  0.11846  0.67139  0.29966  1.0000
  H   H360      1.0  0.29272  0.75611  0.04714  1.0000
  H   H361      1.0  0.26503  0.68834  0.28198  1.0000
  H   H362      1.0  0.14401  0.69745  0.32630  1.0000
  N   N25       1.0  0.28510  0.75403  0.48238  1.0000
  S   S85       1.0  0.27728  0.66586  0.13251  1.0000
  H   H363      1.0  0.14622  0.64395  0.31079  1.0000
  Fe  Fe37      1.0  0.98572  0.57258  0.22512  1.0000
  H   H364      1.0  0.19559  0.74642  0.05891  1.0000
  H   H365      1.0  0.10504  0.67928  0.30774  1.0000
  H   H366      1.0  0.02792  0.54624  0.22160  1.0000
  H   H367      1.0  0.18327  0.75515  0.16847  1.0000
  Fe  Fe38      1.0  0.05707  0.54724  0.44698  1.0000
  S   S86       1.0  0.06657  0.57793  0.45699  1.0000
  S   S87       1.0  0.02962  0.53764  0.41892  1.0000
  Fe  Fe39      1.0  0.09597  0.56606  0.44295  1.0000
  C   C227      1.0  0.08765  0.52058  0.05425  1.0000
  C   C228      1.0  0.14911  0.65894  0.32168  1.0000
  H   H368      1.0  0.02184  0.54055  0.14973  1.0000
  S   S88       1.0  0.08561  0.53600  0.42786  1.0000
  Fe  Fe40      1.0  0.09094  0.52901  0.49181  1.0000
  Fe  Fe41      1.0  0.22831  0.66163  0.32923  1.0000
  S   S89       1.0  0.19788  0.65419  0.31678  1.0000
  S   S90       1.0  0.25506  0.64621  0.30843  1.0000
  Fe  Fe42      1.0  0.21819  0.69777  0.37710  1.0000
  S   S91       1.0  0.18689  0.69396  0.36902  1.0000
  S   S92       1.0  0.23261  0.72333  0.40565  1.0000
  Fe  Fe43      1.0  0.19295  0.66197  0.38068  1.0000
  S   S93       1.0  0.17294  0.64816  0.42438  1.0000
  Fe  Fe44      1.0  0.19374  0.68648  0.30635  1.0000
  S   S94       1.0  0.17599  0.69883  0.25606  1.0000
  S   S95       1.0  0.22400  0.66660  0.39429  1.0000
  S   S96       1.0  0.22450  0.69311  0.31309  1.0000
  S   S97       1.0  0.01187  0.58176  0.25819  1.0000
  H   H369      1.0  0.28592  0.73203  0.43688  1.0000
  C   C229      1.0  0.22025  0.73269  0.44657  1.0000
  H   H370      1.0  0.28166  0.69675  0.38445  1.0000
  H   H371      1.0  0.11344  0.51261  0.37034  1.0000
  H   H372      1.0  0.30717  0.73245  0.49488  1.0000
  S   S98       1.0  0.11551  0.57878  0.39709  1.0000
  C   C230      1.0  0.20611  0.72197  0.46432  1.0000
  H   H373      1.0  0.11466  0.65683  0.28769  1.0000
  C   C231      1.0  0.04323  0.54789  0.21515  1.0000
  C   C232      1.0  0.98354  0.53904  0.48746  1.0000
  H   H374      1.0  0.20251  0.70781  0.45262  1.0000
  C   C233      1.0  0.18364  0.72234  0.24440  1.0000
  C   C234      1.0  0.19371  0.73311  0.27251  1.0000
  H   H375      1.0  0.05057  0.53343  0.21959  1.0000
  C   C235      1.0  0.17975  0.73040  0.20696  1.0000
  H   H376      1.0  0.19654  0.72714  0.30164  1.0000
  H   H377      1.0  0.17197  0.72212  0.18514  1.0000
  H   H378      1.0  0.30768  0.67962  0.29481  1.0000
  C   C236      1.0  0.08007  0.51800  0.09184  1.0000
  C   C237      1.0  0.00858  0.57634  0.07450  1.0000
  C   C238      1.0  0.00662  0.55646  0.06683  1.0000
  H   H379      1.0  0.14102  0.65399  0.02963  1.0000
  H   H380      1.0  0.06957  0.52837  0.10239  1.0000
  H   H381      1.0  0.29879  0.64734  0.19711  1.0000
  H   H382      1.0  0.15487  0.68619  0.04492  1.0000
  H   H383      1.0  0.25442  0.69061  0.06107  1.0000
  H   H384      1.0  0.27277  0.65030  0.04813  1.0000
  C   C239      1.0  0.02454  0.55007  0.37453  1.0000
  C   C240      1.0  0.00702  0.54771  0.35517  1.0000
  C   C241      1.0  0.00301  0.55727  0.31917  1.0000
  C   C242      1.0  0.01644  0.56947  0.30293  1.0000
  C   C243      1.0  0.03391  0.57186  0.32242  1.0000
  C   C244      1.0  0.03799  0.56211  0.35807  1.0000
  H   H385      1.0  0.99644  0.53871  0.36828  1.0000
  C   C245      1.0  0.19983  0.75184  0.26331  1.0000
  H   H386      1.0  0.04430  0.58133  0.31002  1.0000
  H   H387      1.0  0.05155  0.56400  0.37287  1.0000
  C   C246      1.0  0.13184  0.59764  0.40578  1.0000
  C   C247      1.0  0.13237  0.60801  0.44144  1.0000
  C   C248      1.0  0.14526  0.62320  0.44679  1.0000
  C   C249      1.0  0.15784  0.62812  0.41674  1.0000
  C   C250      1.0  0.15743  0.61765  0.38118  1.0000
  C   C251      1.0  0.14441  0.60258  0.37569  1.0000
  H   H388      1.0  0.12278  0.60439  0.46482  1.0000
  H   H389      1.0  0.14545  0.63121  0.47439  1.0000
  H   H390      1.0  0.16723  0.62102  0.35805  1.0000
  H   H391      1.0  0.14421  0.59454  0.34812  1.0000
  H   H392      1.0  0.29091  0.72937  0.32621  1.0000
  C   C252      1.0  0.27368  0.69800  0.35589  1.0000
  H   H393      1.0  0.01237  0.51285  0.47830  1.0000
  C   C253      1.0  0.19358  0.74180  0.02864  1.0000
  H   H394      1.0  0.98942  0.55554  0.30443  1.0000
  H   H395      1.0  0.24316  0.66776  0.06614  1.0000
  H   H396      1.0  0.13190  0.65719  0.39252  1.0000
  H   H397      1.0  0.99662  0.54559  0.47569  1.0000
  Fe  Fe45      1.0  0.30797  0.66457  0.11453  1.0000
  H   H398      1.0  0.04894  0.55816  0.23769  1.0000
  S   S99       1.0  0.98535  0.54235  0.20037  1.0000
  C   C254      1.0  0.27142  0.66011  0.18143  1.0000
  C   C255      1.0  0.28463  0.65102  0.20717  1.0000
  C   C256      1.0  0.27932  0.64622  0.24578  1.0000
  C   C257      1.0  0.26093  0.65084  0.25899  1.0000
  C   C258      1.0  0.24782  0.66012  0.23333  1.0000
  C   C259      1.0  0.25303  0.66461  0.19458  1.0000
  H   H399      1.0  0.06897  0.56212  0.13665  1.0000
  H   H400      1.0  0.28948  0.63896  0.26548  1.0000
  H   H401      1.0  0.23361  0.66372  0.24325  1.0000
  H   H402      1.0  0.24275  0.67163  0.17478  1.0000
  C   C260      1.0  0.06639  0.55681  0.16715  1.0000
  C   C261      1.0  0.29821  0.68015  0.32086  1.0000
  S   S100      1.0  0.98847  0.54340  0.08871  1.0000
  H   H403      1.0  0.28436  0.69970  0.25829  1.0000
  H   H404      1.0  0.12503  0.67966  0.27530  1.0000
  H   H405      1.0  0.99875  0.58396  0.09371  1.0000
  H   H406      1.0  0.07310  0.56714  0.18822  1.0000
  H   H407      1.0  0.07402  0.54241  0.17051  1.0000
  H   H408      1.0  0.26437  0.71139  0.35715  1.0000
  H   H409      1.0  0.12345  0.69763  0.35739  1.0000
  C   C262      1.0  0.29918  0.71528  0.32576  1.0000
  N   N26       1.0  0.04586  0.55522  0.17460  1.0000
  H   H410      1.0  0.01783  0.53139  0.03530  1.0000
  C   C263      1.0  0.13637  0.68899  0.34894  1.0000
  H   H411      1.0  0.23281  0.68614  0.03376  1.0000
  H   H412      1.0  0.28911  0.66716  0.31895  1.0000
  C   C264      1.0  0.03745  0.54152  0.14591  1.0000
  C   C265      1.0  0.03386  0.55704  0.02340  1.0000
  C   C266      1.0  0.01926  0.54681  0.04119  1.0000
  C   C267      1.0  0.02289  0.58664  0.05609  1.0000
  H   H413      1.0  0.04184  0.58525  0.19227  1.0000
  C   C268      1.0  0.12253  0.65829  0.36572  1.0000
  H   H414      1.0  0.15632  0.66683  0.29764  1.0000
  H   H415      1.0  0.11960  0.64305  0.35627  1.0000
  H   H416      1.0  0.26418  0.68527  0.35399  1.0000
  H   H417      1.0  0.26736  0.75033  0.43066  1.0000
  H   H418      1.0  0.15936  0.65744  0.34684  1.0000
  H   H419      1.0  0.03848  0.58077  0.14012  1.0000
  H   H420      1.0  0.08295  0.53291  0.03638  1.0000
  N   N27       1.0  0.13157  0.66940  0.33401  1.0000
  H   H421      1.0  0.26527  0.73172  0.46731  1.0000
  C   C269      1.0  0.24647  0.67933  0.04441  1.0000
  H   H422      1.0  0.03977  0.54627  0.11499  1.0000
  H   H423      1.0  0.04375  0.52652  0.14929  1.0000
  H   H424      1.0  0.02081  0.57388  0.17464  1.0000
  C   C270      1.0  0.27524  0.70034  0.28487  1.0000
  S   S101      1.0  0.10364  0.55796  0.50586  1.0000
  H   H425      1.0  0.30470  0.72422  0.22170  1.0000
  H   H426      1.0  0.14579  0.68790  0.37567  1.0000
  H   H427      1.0  0.31171  0.73494  0.11652  1.0000
  H   H428      1.0  0.10890  0.66536  0.37494  1.0000
  N   N28       1.0  0.28659  0.69846  0.32185  1.0000
  C   C271      1.0  0.03638  0.57464  0.17014  1.0000
  C   C272      1.0  0.03553  0.57705  0.03047  1.0000
  H   H429      1.0  0.30912  0.71597  0.30052  1.0000
  C   C273      1.0  0.19664  0.72953  0.49749  1.0000
  H   H430      1.0  0.02402  0.60217  0.06130  1.0000
  S   S102      1.0  0.06155  0.53789  0.50972  1.0000
  H   H431      1.0  0.30720  0.67841  0.34804  1.0000
  H   H432      1.0  0.26674  0.71428  0.28399  1.0000
  H   H433      1.0  0.30791  0.71443  0.35342  1.0000
  H   H434      1.0  0.20947  0.71476  0.03680  1.0000
  C   C274      1.0  0.27552  0.74149  0.45303  1.0000
  C   C275      1.0  0.18617  0.74906  0.19749  1.0000
  N   N29       1.0  0.98823  0.52188  0.51255  1.0000
  H   H435      1.0  0.18562  0.72125  0.51099  1.0000
  H   H436      1.0  0.03108  0.50888  0.32595  1.0000
  H   H437      1.0  0.12091  0.50854  0.42076  1.0000
  H   H438      1.0  0.00491  0.51683  0.27970  1.0000
  H   H439      1.0  0.98829  0.51387  0.31860  1.0000
  C   C276      1.0  0.20133  0.74779  0.51300  1.0000
  H   H440      1.0  0.28406  0.67322  0.04319  1.0000
  C   C277      1.0  0.27553  0.66229  0.02695  1.0000
  C   C278      1.0  0.31122  0.75118  0.11607  1.0000
  C   C279      1.0  0.22485  0.75099  0.46198  1.0000
  H   H441      1.0  0.30892  0.73541  0.04254  1.0000
  C   C280      1.0  0.29630  0.74162  0.51043  1.0000
  H   H442      1.0  0.29615  0.75613  0.11969  1.0000
  C   C281      1.0  0.30800  0.75164  0.04490  1.0000
  H   H443      1.0  0.17692  0.67933  0.02179  1.0000
  H   H444      1.0  0.22386  0.70481  0.68351  1.0000
  C   C282      1.0  0.30175  0.72324  0.79649  1.0000
  H   H445      1.0  0.99968  0.57313  0.53047  1.0000
  H   H446      1.0  0.20877  0.61687  0.73655  1.0000
  H   H447      1.0  0.05283  0.56777  0.69249  1.0000
  S   S103      1.0  0.28803  0.66864  0.63461  1.0000
  H   H448      1.0  0.07493  0.55493  0.64067  1.0000
  H   H449      1.0  0.30516  0.74842  0.70330  1.0000
  H   H450      1.0  0.08737  0.52434  0.57188  1.0000
  S   S104      1.0  0.10356  0.56832  0.00265  1.0000
  H   H451      1.0  0.30187  0.66822  0.77708  1.0000
  H   H452      1.0  0.13440  0.69805  0.96638  1.0000
  Fe  Fe46      1.0  0.08905  0.55960  0.89351  1.0000
  S   S105      1.0  0.08823  0.58966  0.92024  1.0000
  S   S106      1.0  0.07953  0.55038  0.83261  1.0000
  Fe  Fe47      1.0  0.11633  0.58078  0.94797  1.0000
  S   S107      1.0  0.14017  0.60187  0.95736  1.0000
  H   H453      1.0  0.29561  0.71104  0.77935  1.0000
  S   S108      1.0  0.06520  0.58304  0.57485  1.0000
  S   S109      1.0  0.11828  0.55182  0.91666  1.0000
  S   S110      1.0  0.07373  0.54587  0.94334  1.0000
  Fe  Fe48      1.0  0.23641  0.68515  0.82779  1.0000
  S   S111      1.0  0.21268  0.68166  0.78360  1.0000
  S   S112      1.0  0.26761  0.68185  0.81432  1.0000
  Fe  Fe49      1.0  0.20946  0.69136  0.89606  1.0000
  S   S113      1.0  0.18347  0.68859  0.85779  1.0000
  S   S114      1.0  0.20842  0.69493  0.96207  1.0000
  Fe  Fe50      1.0  0.19931  0.66347  0.82997  1.0000
  S   S115      1.0  0.18490  0.63570  0.81297  1.0000
  Fe  Fe51      1.0  0.19907  0.70710  0.81513  1.0000
  S   S116      1.0  0.18253  0.72986  0.78038  1.0000
  S   S117      1.0  0.22425  0.66462  0.87170  1.0000
  S   S118      1.0  0.22386  0.71220  0.85606  1.0000
  H   H454      1.0  0.12482  0.67444  0.95653  1.0000
  H   H455      1.0  0.25490  0.64997  0.96495  1.0000
  C   C283      1.0  0.19858  0.71750  0.97708  1.0000
  N   N30       1.0  0.23697  0.62040  0.76048  1.0000
  S   S119      1.0  0.11034  0.51019  0.99230  1.0000
  C   C284      1.0  0.00844  0.59830  0.90513  1.0000
  H   H456      1.0  0.17370  0.71491  0.65113  1.0000
  C   C285      1.0  0.18767  0.72904  0.95079  1.0000
  H   H457      1.0  0.99682  0.55964  0.96178  1.0000
  C   C286      1.0  0.06559  0.57403  0.70697  1.0000
  Fe  Fe52      1.0  0.07557  0.57511  0.97269  1.0000
  H   H458      1.0  0.18532  0.72419  0.92068  1.0000
  H   H459      1.0  0.15526  0.66427  0.92633  1.0000
  C   C287      1.0  0.20668  0.71114  0.61295  1.0000
  C   C288      1.0  0.02530  0.56742  0.91383  1.0000
  H   H460      1.0  0.26431  0.63067  0.77930  1.0000
  H   H461      1.0  0.14197  0.64444  0.98024  1.0000
  N   N31       1.0  0.25771  0.67129  0.01125  1.0000
  C   C289      1.0  0.04051  0.58256  0.58107  1.0000
  C   C290      1.0  0.02850  0.57775  0.54942  1.0000
  C   C291      1.0  0.00889  0.57658  0.55516  1.0000
  C   C292      1.0  0.00134  0.57937  0.59286  1.0000
  C   C293      1.0  0.01327  0.58459  0.62435  1.0000
  C   C294      1.0  0.03279  0.58652  0.61825  1.0000
  H   H462      1.0  0.24575  0.64905  0.77731  1.0000
  C   C295      1.0  0.11845  0.50958  0.85334  1.0000
  H   H463      1.0  0.00749  0.58718  0.65340  1.0000
  H   H464      1.0  0.01809  0.60532  0.92703  1.0000
  C   C296      1.0  0.05912  0.56395  0.81863  1.0000
  C   C297      1.0  0.04420  0.55490  0.79860  1.0000
  C   C298      1.0  0.02770  0.56575  0.78795  1.0000
  C   C299      1.0  0.02626  0.58569  0.79689  1.0000
  C   C300      1.0  0.04134  0.59473  0.81633  1.0000
  C   C301      1.0  0.05770  0.58386  0.82737  1.0000
  H   H465      1.0  0.04522  0.53944  0.79199  1.0000
  H   H466      1.0  0.01602  0.55860  0.77354  1.0000
  H   H467      1.0  0.04031  0.61017  0.82315  1.0000
  H   H468      1.0  0.06930  0.59100  0.84221  1.0000
  C   C302      1.0  0.15276  0.61026  0.91649  1.0000
  C   C303      1.0  0.14766  0.60536  0.87764  1.0000
  C   C304      1.0  0.15774  0.61297  0.84580  1.0000
  C   C305      1.0  0.17264  0.62576  0.85276  1.0000
  C   C306      1.0  0.17777  0.63052  0.89159  1.0000
  C   C307      1.0  0.16803  0.62257  0.92331  1.0000
  H   H469      1.0  0.13593  0.59581  0.87218  1.0000
  H   H470      1.0  0.15375  0.60922  0.81577  1.0000
  H   H471      1.0  0.18943  0.64011  0.89721  1.0000
  H   H472      1.0  0.17241  0.62586  0.95326  1.0000
  C   C308      1.0  0.20860  0.70946  0.68427  1.0000
  N   N32       1.0  0.20325  0.72200  0.65014  1.0000
  H   H473      1.0  0.16393  0.70080  0.00583  1.0000
  C   C309      1.0  0.17961  0.74691  0.96359  1.0000
  H   H474      1.0  0.21265  0.74813  0.67867  1.0000
  C   C310      1.0  0.99406  0.56844  0.88336  1.0000
  H   H475      1.0  0.09173  0.53150  0.71124  1.0000
  C   C311      1.0  0.19500  0.74988  0.76331  1.0000
  H   H476      1.0  0.17702  0.66551  0.95448  1.0000
  H   H477      1.0  0.02443  0.55165  0.92117  1.0000
  H   H478      1.0  0.22378  0.63181  0.70717  1.0000
  C   C312      1.0  0.28285  0.67308  0.68448  1.0000
  C   C313      1.0  0.29637  0.66922  0.71435  1.0000
  C   C314      1.0  0.29154  0.67187  0.75414  1.0000
  C   C315      1.0  0.27334  0.67885  0.76419  1.0000
  C   C316      1.0  0.25995  0.68311  0.73426  1.0000
  C   C317      1.0  0.26460  0.67991  0.69453  1.0000
  H   H479      1.0  0.08996  0.57532  0.64649  1.0000
  H   H480      1.0  0.23447  0.59109  0.73858  1.0000
  H   H481      1.0  0.24608  0.68892  0.74163  1.0000
  H   H482      1.0  0.25416  0.68291  0.67140  1.0000
  C   C318      1.0  0.99777  0.57525  0.95315  1.0000
  H   H483      1.0  0.99213  0.55263  0.88916  1.0000
  Fe  Fe53      1.0  0.10288  0.54017  0.96871  1.0000
  H   H484      1.0  0.24939  0.60628  0.70983  1.0000
  H   H485      1.0  0.27081  0.69848  0.99867  1.0000
  C   C319      1.0  0.20131  0.72376  0.01612  1.0000
  H   H486      1.0  0.99451  0.60638  0.90561  1.0000
  H   H487      1.0  0.10184  0.58458  0.71332  1.0000
  H   H488      1.0  0.22199  0.74090  0.78918  1.0000
  H   H489      1.0  0.22570  0.62834  0.81717  1.0000
  H   H490      1.0  0.29083  0.72848  0.81775  1.0000
  H   H491      1.0  0.09971  0.55097  0.65251  1.0000
  C   C320      1.0  0.16280  0.67271  0.94966  1.0000
  H   H492      1.0  0.06689  0.53494  0.69990  1.0000
  S   S120      1.0  0.00541  0.59944  0.78660  1.0000
  H   H493      1.0  0.19999  0.69610  0.68489  1.0000
  H   H494      1.0  0.31036  0.66363  0.70679  1.0000
  N   N33       1.0  0.00638  0.57734  0.91385  1.0000
  C   C321      1.0  0.25139  0.63564  0.76239  1.0000
  H   H495      1.0  0.25600  0.63993  0.73234  1.0000
  H   H496      1.0  0.04192  0.59087  0.64238  1.0000
  H   H497      1.0  0.20625  0.71729  0.71275  1.0000
  C   C322      1.0  0.09890  0.56950  0.72324  1.0000
  H   H498      1.0  0.08270  0.51887  0.64309  1.0000
  C   C323      1.0  0.18292  0.72781  0.65240  1.0000
  H   H499      1.0  0.03508  0.57406  0.93588  1.0000
  H   H500      1.0  0.99248  0.53868  0.56551  1.0000
  C   C324      1.0  0.26224  0.68715  0.98369  1.0000
  H   H501      1.0  0.23318  0.66255  0.97785  1.0000
  C   C325      1.0  0.24500  0.60288  0.74051  1.0000
  S   S121      1.0  0.98807  0.55855  0.71053  1.0000
  H   H502      1.0  0.09607  0.57016  0.75560  1.0000
  H   H503      1.0  0.01447  0.60049  0.87533  1.0000
  C   C326      1.0  0.21482  0.73966  0.65097  1.0000
  H   H504      1.0  0.07604  0.54158  0.74771  1.0000
  H   H505      1.0  0.00631  0.58262  0.97644  1.0000
  C   C327      1.0  0.22013  0.62785  0.73798  1.0000
  H   H506      1.0  0.22190  0.70661  0.61009  1.0000
  H   H507      1.0  0.11166  0.52410  0.84677  1.0000
  H   H508      1.0  0.23024  0.73593  0.64888  1.0000
  H   H509      1.0  0.21991  0.60440  0.80079  1.0000
  H   H510      1.0  0.20276  0.72024  0.58666  1.0000
  H   H511      1.0  0.16526  0.68755  0.93776  1.0000
  H   H512      1.0  0.26051  0.75637  0.51943  1.0000
  H   H513      1.0  0.06246  0.57594  0.73885  1.0000
  C   C328      1.0  0.23136  0.61529  0.80102  1.0000
  H   H514      1.0  0.17978  0.73573  0.68043  1.0000
  N   N34       1.0  0.08268  0.56139  0.70104  1.0000
  C   C329      1.0  0.24676  0.65630  0.99011  1.0000
  C   C330      1.0  0.08705  0.56058  0.65843  1.0000
  H   H515      1.0  0.19810  0.69777  0.61114  1.0000
  H   H516      1.0  0.11207  0.56039  0.71919  1.0000
  H   H517      1.0  0.00408  0.51506  0.56579  1.0000
  H   H518      1.0  0.25778  0.59691  0.75664  1.0000
  H   H519      1.0  0.30400  0.75056  0.53267  1.0000
  N   N35       1.0  0.15192  0.67376  0.98665  1.0000
  H   H520      1.0  0.24359  0.60917  0.81864  1.0000
  H   H521      1.0  0.21374  0.64110  0.75219  1.0000
  H   H522      1.0  0.24914  0.69443  0.97138  1.0000
  H   H523      1.0  0.17851  0.73767  0.62753  1.0000
  H   H524      1.0  0.03208  0.56848  0.88447  1.0000
  C   C331      1.0  0.13307  0.68305  0.97851  1.0000
  C   C332      1.0  0.07917  0.54150  0.71559  1.0000
  H   H525      1.0  0.06742  0.58886  0.69443  1.0000
  H   H526      1.0  0.28709  0.73152  0.52669  1.0000
  H   H527      1.0  0.12451  0.68426  0.00585  1.0000
  H   H528      1.0  0.00020  0.56972  0.85337  1.0000
  H   H529      1.0  0.27076  0.68152  0.95839  1.0000
  C   C333      1.0  0.21443  0.75169  0.77128  1.0000
  C   C334      1.0  0.14948  0.65383  0.00211  1.0000
  H   H530      1.0  0.97975  0.57575  0.88212  1.0000
  C   C335      1.0  0.09225  0.51075  0.58520  1.0000
  H   H531      1.0  0.03432  0.57510  0.52042  1.0000
  C   C336      1.0  0.00013  0.52778  0.54665  1.0000
  H   H532      1.0  0.16340  0.64644  0.00913  1.0000
  H   H533      1.0  0.28454  0.65619  0.00285  1.0000
  H   H534      1.0  0.12562  0.51064  0.88286  1.0000
  H   H535      1.0  0.30048  0.71947  0.93439  1.0000
  H   H536      1.0  0.21092  0.74958  0.62597  1.0000
  H   H537      1.0  0.08234  0.51242  0.87780  1.0000
  Fe  Fe54      1.0  0.98350  0.58527  0.74806  1.0000
  H   H538      1.0  0.98320  0.58195  0.95387  1.0000
  H   H539      1.0  0.04355  0.54954  0.00368  1.0000
  S   S122      1.0  0.05196  0.59090  0.00501  1.0000
  H   H540      1.0  0.01348  0.53450  0.53685  1.0000
  H   H541      1.0  0.24323  0.64411  0.01015  1.0000
  H   H542      1.0  0.30403  0.73532  0.77546  1.0000
  H   H543      1.0  0.30492  0.70740  0.86816  1.0000
  C   C337      1.0  0.18285  0.75349  0.00234  1.0000
  H   H544      1.0  0.30966  0.68878  0.83245  1.0000
  S   S123      1.0  0.18953  0.75696  0.55477  1.0000
  C   C338      1.0  0.16233  0.68551  0.01616  1.0000
  H   H545      1.0  0.17109  0.75579  0.94326  1.0000
  C   C339      1.0  0.08979  0.50776  0.62573  1.0000
  H   H546      1.0  0.08738  0.50750  0.80635  1.0000
  H   H547      1.0  0.21467  0.75722  0.92642  1.0000
  Fe  Fe55      1.0  0.07349  0.56752  0.51870  1.0000
  H   H548      1.0  0.13379  0.83735  0.24971  1.0000
  H   H549      1.0  0.19325  0.83547  0.22504  1.0000
  S   S124      1.0  0.20412  0.78332  0.21551  1.0000
  H   H550      1.0  0.17888  0.85663  0.21138  1.0000
  H   H551      1.0  0.14181  0.83366  0.20010  1.0000
  C   C340      1.0  0.16505  0.81339  0.24909  1.0000
  H   H552      1.0  0.07120  0.95078  0.10378  1.0000
  S   S125      1.0  0.28169  0.82746  0.36497  1.0000
  N   N36       1.0  0.07537  0.95977  0.45775  1.0000
  Fe  Fe56      1.0  0.07353  0.92746  0.28146  1.0000
  S   S126      1.0  0.07124  0.95786  0.25789  1.0000
  S   S127      1.0  0.06248  0.92278  0.34279  1.0000
  Fe  Fe57      1.0  0.09352  0.91181  0.20821  1.0000
  S   S128      1.0  0.09298  0.94122  0.17856  1.0000
  S   S129      1.0  0.10282  0.88330  0.17908  1.0000
  Fe  Fe58      1.0  0.10109  0.95259  0.23858  1.0000
  S   S130      1.0  0.11890  0.97894  0.24697  1.0000
  Fe  Fe59      1.0  0.06313  0.94419  0.20031  1.0000
  S   S131      1.0  0.04008  0.96023  0.16544  1.0000
  S   S132      1.0  0.10436  0.92298  0.26678  1.0000
  S   S133      1.0  0.06266  0.91394  0.22532  1.0000
  Fe  Fe60      1.0  0.20289  0.79302  0.15195  1.0000
  S   S134      1.0  0.17664  0.80496  0.12110  1.0000
  H   H553      1.0  0.09318  0.94762  0.07838  1.0000
  Fe  Fe61      1.0  0.22921  0.80446  0.08512  1.0000
  H   H554      1.0  0.24154  0.76816  0.24377  1.0000
  H   H555      1.0  0.30576  0.77661  0.48302  1.0000
  Fe  Fe62      1.0  0.19457  0.83051  0.10716  1.0000
  S   S135      1.0  0.18606  0.86201  0.12004  1.0000
  Fe  Fe63      1.0  0.18949  0.79139  0.06649  1.0000
  H   H556      1.0  0.16319  0.80564  0.22031  1.0000
  S   S136      1.0  0.22023  0.81929  0.14121  1.0000
  H   H557      1.0  0.07865  0.99627  0.21331  1.0000
  H   H558      1.0  0.09939  0.94032  0.44829  1.0000
  H   H559      1.0  0.26226  0.77561  0.48393  1.0000
  C   C341      1.0  0.03776  0.92669  0.34418  1.0000
  C   C342      1.0  0.02839  0.92630  0.38039  1.0000
  C   C343      1.0  0.00878  0.93043  0.38199  1.0000
  C   C344      1.0  0.99845  0.93468  0.34725  1.0000
  C   C345      1.0  0.00768  0.93418  0.31090  1.0000
  C   C346      1.0  0.02734  0.93053  0.30940  1.0000
  H   H560      1.0  0.03627  0.92281  0.40720  1.0000
  H   H561      1.0  0.00172  0.93036  0.41010  1.0000
  H   H562      1.0  0.99967  0.93672  0.28386  1.0000
  H   H563      1.0  0.03441  0.93057  0.28129  1.0000
  C   C347      1.0  0.03230  0.94661  0.12446  1.0000
  C   C348      1.0  0.04027  0.92807  0.11685  1.0000
  C   C349      1.0  0.03473  0.91772  0.08294  1.0000
  C   C350      1.0  0.02105  0.92573  0.05675  1.0000
  C   C351      1.0  0.01306  0.94429  0.06436  1.0000
  C   C352      1.0  0.01868  0.95473  0.09818  1.0000
  H   H564      1.0  0.05082  0.92171  0.13691  1.0000
  H   H565      1.0  0.04097  0.90338  0.07717  1.0000
  C   C353      1.0  0.12298  0.99302  0.37869  1.0000
  H   H566      1.0  0.01252  0.96909  0.10386  1.0000
  C   C354      1.0  0.12576  0.87844  0.16053  1.0000
  C   C355      1.0  0.12941  0.86060  0.14109  1.0000
  C   C356      1.0  0.14778  0.85549  0.12822  1.0000
  C   C357      1.0  0.16263  0.86831  0.13425  1.0000
  C   C358      1.0  0.15893  0.88632  0.15301  1.0000
  C   C359      1.0  0.14057  0.89135  0.16632  1.0000
  H   H567      1.0  0.11798  0.85060  0.13636  1.0000
  H   H568      1.0  0.15040  0.84170  0.11338  1.0000
  H   H569      1.0  0.17035  0.89634  0.15767  1.0000
  H   H570      1.0  0.13791  0.90512  0.18130  1.0000
  C   C360      1.0  0.27621  0.82399  0.41515  1.0000
  C   C361      1.0  0.29063  0.81943  0.44275  1.0000
  H   H571      1.0  0.30522  0.81812  0.43343  1.0000
  C   C362      1.0  0.00729  0.98110  0.28057  1.0000
  C   C363      1.0  0.25294  0.82297  0.46780  1.0000
  C   C364      1.0  0.25734  0.82572  0.42774  1.0000
  S   S137      1.0  0.20522  0.81813  0.04954  1.0000
  H   H572      1.0  0.00173  0.97463  0.30813  1.0000
  H   H573      1.0  0.23837  0.82440  0.47734  1.0000
  H   H574      1.0  0.24611  0.82926  0.40657  1.0000
  C   C365      1.0  0.25585  0.77166  0.25594  1.0000
  H   H575      1.0  0.23965  0.80099  0.21368  1.0000
  C   C366      1.0  0.11962  0.96935  0.32572  1.0000
  C   C367      1.0  0.12128  0.98414  0.29765  1.0000
  H   H576      1.0  0.05241  0.98224  0.09726  1.0000
  H   H577      1.0  0.00265  0.95064  0.04402  1.0000
  H   H578      1.0  0.06272  0.93839  0.49484  1.0000
  H   H579      1.0  0.11763  0.95447  0.31629  1.0000
  C   C368      1.0  0.09494  0.95282  0.46751  1.0000
  H   H580      1.0  0.24538  0.79124  0.32142  1.0000
  H   H581      1.0  0.16704  0.86070  0.27932  1.0000
  H   H582      1.0  0.15716  0.84042  0.30461  1.0000
  H   H583      1.0  0.17900  0.80831  0.26176  1.0000
  H   H584      1.0  0.14415  0.85702  0.22355  1.0000
  H   H585      1.0  0.17603  0.83407  0.18572  1.0000
  H   H586      1.0  0.15382  0.80845  0.26924  1.0000
  H   H587      1.0  0.18214  0.84038  0.29443  1.0000
  H   H588      1.0  0.10532  0.96457  0.46328  1.0000
  C   C369      1.0  0.12088  0.97371  0.36620  1.0000
  C   C370      1.0  0.27663  0.79684  0.27882  1.0000
  C   C371      1.0  0.12400  0.00337  0.31021  1.0000
  C   C372      1.0  0.25401  0.80370  0.22621  1.0000
  C   C373      1.0  0.19618  0.75980  0.22577  1.0000
  H   H589      1.0  0.28773  0.79214  0.25748  1.0000
  H   H590      1.0  0.23533  0.75960  0.44766  1.0000
  H   H591      1.0  0.04719  0.94849  0.45710  1.0000
  H   H592      1.0  0.09140  0.00007  0.10796  1.0000
  H   H593      1.0  0.10578  0.97492  0.03972  1.0000
  C   C374      1.0  0.99961  0.99550  0.21709  1.0000
  C   C375      1.0  0.98074  0.96953  0.24186  1.0000
  H   H594      1.0  0.21911  0.77263  0.50696  1.0000
  C   C376      1.0  0.06088  0.98537  0.07062  1.0000
  H   H595      1.0  0.05462  0.00487  0.22043  1.0000
  H   H596      1.0  0.05548  0.98214  0.47709  1.0000
  C   C377      1.0  0.24321  0.79918  0.29296  1.0000
  H   H597      1.0  0.27832  0.81271  0.28467  1.0000
  C   C378      1.0  0.17875  0.84050  0.21542  1.0000
  H   H598      1.0  0.22848  0.79649  0.28222  1.0000
  H   H599      1.0  0.26449  0.79928  0.20332  1.0000
  H   H600      1.0  0.08414  0.97825  0.41047  1.0000
  H   H601      1.0  0.08181  0.98075  0.13668  1.0000
  N   N37       1.0  0.25740  0.79283  0.26347  1.0000
  H   H602      1.0  0.10437  0.97721  0.11335  1.0000
  H   H603      1.0  0.11980  0.96216  0.38772  1.0000
  S   S138      1.0  0.21409  0.77703  0.09896  1.0000
  H   H604      1.0  0.06138  0.00153  0.06776  1.0000
  H   H605      1.0  0.05974  0.97123  0.40739  1.0000
  H   H606      1.0  0.26660  0.76635  0.23433  1.0000
  H   H607      1.0  0.98109  0.84832  0.48348  1.0000
  H   H608      1.0  0.01579  0.99387  0.28947  1.0000
  H   H609      1.0  0.25501  0.81974  0.23085  1.0000
  N   N38       1.0  0.08018  0.97639  0.07380  1.0000
  C   C379      1.0  0.07887  0.95495  0.07676  1.0000
  S   S139      1.0  0.25946  0.79867  0.06562  1.0000
  N   N39       1.0  0.16419  0.83483  0.24390  1.0000
  C   C380      1.0  0.16781  0.84449  0.28230  1.0000
  C   C381      1.0  0.14516  0.84096  0.22871  1.0000
  C   C382      1.0  0.29788  0.76724  0.46181  1.0000
  H   H610      1.0  0.09228  0.99740  0.03504  1.0000
  H   H611      1.0  0.29760  0.81393  0.50403  1.0000
  C   C383      1.0  0.26690  0.81004  0.02213  1.0000
  H   H612      1.0  0.24421  0.81505  0.29974  1.0000
  H   H613      1.0  0.00930  0.98490  0.20174  1.0000
  Fe  Fe64      1.0  0.31088  0.81546  0.35072  1.0000
  H   H614      1.0  0.06560  0.93105  0.44407  1.0000
  H   H615      1.0  0.09624  0.94791  0.49883  1.0000
  C   C384      1.0  0.09107  0.98132  0.03838  1.0000
  C   C385      1.0  0.07435  0.96610  0.41598  1.0000
  C   C386      1.0  0.07011  0.97638  0.48380  1.0000
  C   C387      1.0  0.28629  0.81704  0.48278  1.0000
  C   C388      1.0  0.06214  0.94372  0.46372  1.0000
  H   H616      1.0  0.27968  0.78904  0.30712  1.0000
  H   H617      1.0  0.25813  0.76307  0.28357  1.0000
  H   H618      1.0  0.28984  0.77714  0.44109  1.0000
  H   H619      1.0  0.07838  0.95393  0.39552  1.0000
  H   H620      1.0  0.00803  0.94404  0.51149  1.0000
  C   C389      1.0  0.27072  0.76578  0.50413  1.0000
  H   H621      1.0  0.07106  0.94873  0.05100  1.0000
  C   C390      1.0  0.08989  0.98395  0.10952  1.0000
  C   C391      1.0  0.26747  0.81884  0.49545  1.0000
  S   S140      1.0  0.12292  0.99866  0.42928  1.0000
  H   H622      1.0  0.20744  0.76012  0.28541  1.0000
  H   H623      1.0  0.01712  0.97004  0.26695  1.0000
  H   H624      1.0  0.08558  0.00503  0.28229  1.0000
  H   H625      1.0  0.07056  0.97204  0.51556  1.0000
  H   H626      1.0  0.98819  0.99990  0.19552  1.0000
  N   N40       1.0  0.99164  0.98687  0.25302  1.0000
  H   H627      1.0  0.98987  0.95836  0.22672  1.0000
  C   C392      1.0  0.21552  0.75848  0.49532  1.0000
  H   H628      1.0  0.07991  0.98870  0.48029  1.0000
  H   H629      1.0  0.24559  0.83325  0.02252  1.0000
  H   H630      1.0  0.30333  0.78604  0.08264  1.0000
  H   H631      1.0  0.05296  0.97966  0.04453  1.0000
  H   H632      1.0  0.30864  0.75894  0.44433  1.0000
  C   C393      1.0  0.99628  0.92327  0.81845  1.0000
  H   H633      1.0  0.02228  0.94844  0.87572  1.0000
  H   H634      1.0  0.05022  0.99269  0.81184  1.0000
  H   H635      1.0  0.02682  0.99701  0.83039  1.0000
  H   H636      1.0  0.03561  0.96188  0.53773  1.0000
  C   C394      1.0  0.03733  0.00065  0.64061  1.0000
  H   H637      1.0  0.21994  0.77014  0.88201  1.0000
  H   H638      1.0  0.23681  0.81452  0.93319  1.0000
  H   H639      1.0  0.25248  0.79436  0.92135  1.0000
  Fe  Fe65      1.0  0.06895  0.92013  0.73537  1.0000
  S   S141      1.0  0.05826  0.94939  0.71404  1.0000
  S   S142      1.0  0.05341  0.89947  0.77426  1.0000
  Fe  Fe66      1.0  0.10854  0.92513  0.70364  1.0000
  S   S143      1.0  0.10151  0.95513  0.67987  1.0000
  S   S144      1.0  0.13765  0.91023  0.70700  1.0000
  Fe  Fe67      1.0  0.08605  0.96044  0.73649  1.0000
  S   S145      1.0  0.08409  0.99042  0.76399  1.0000
  Fe  Fe68      1.0  0.07424  0.94216  0.65885  1.0000
  S   S146      1.0  0.06214  0.95346  0.60096  1.0000
  S   S147      1.0  0.09547  0.93179  0.76269  1.0000
  S   S148      1.0  0.08248  0.91150  0.67784  1.0000
  Fe  Fe69      1.0  0.21583  0.80618  0.64749  1.0000
  S   S149      1.0  0.18628  0.80288  0.62327  1.0000
  H   H640      1.0  0.05370  0.94099  0.84813  1.0000
  Fe  Fe70      1.0  0.23258  0.81446  0.56711  1.0000
  H   H641      1.0  0.12947  0.86003  0.69691  1.0000
  H   H642      1.0  0.04408  0.94786  0.80067  1.0000
  Fe  Fe71      1.0  0.19248  0.82934  0.58699  1.0000
  S   S150      1.0  0.16894  0.85195  0.57498  1.0000
  C   C395      1.0  0.26833  0.81977  0.66085  1.0000
  S   S151      1.0  0.99170  0.95132  0.94330  1.0000
  S   S152      1.0  0.22117  0.83405  0.61532  1.0000
  S   S153      1.0  0.22911  0.78701  0.60156  1.0000
  H   H643      1.0  0.24380  0.77570  0.98038  1.0000
  S   S154      1.0  0.26284  0.81558  0.54603  1.0000
  C   C396      1.0  0.03124  0.90838  0.79065  1.0000
  C   C397      1.0  0.02543  0.90413  0.82907  1.0000
  C   C398      1.0  0.00810  0.91179  0.84318  1.0000
  H   H644      1.0  0.06331  0.98182  0.87586  1.0000
  C   C399      1.0  0.00185  0.92707  0.77968  1.0000
  C   C400      1.0  0.01942  0.91988  0.76597  1.0000
  H   H645      1.0  0.03458  0.89527  0.84829  1.0000
  H   H646      1.0  0.23919  0.76882  0.76151  1.0000
  H   H647      1.0  0.27744  0.77529  0.52677  1.0000
  H   H648      1.0  0.02373  0.92304  0.73614  1.0000
  C   C401      1.0  0.04227  0.94090  0.58359  1.0000
  C   C402      1.0  0.03703  0.92348  0.60128  1.0000
  C   C403      1.0  0.02139  0.91337  0.58633  1.0000
  C   C404      1.0  0.01080  0.92078  0.55400  1.0000
  C   C405      1.0  0.01598  0.93830  0.53655  1.0000
  C   C406      1.0  0.03169  0.94833  0.55129  1.0000
  H   H649      1.0  0.04513  0.91767  0.62621  1.0000
  H   H650      1.0  0.01747  0.89983  0.59992  1.0000
  H   H651      1.0  0.01251  0.95777  0.82989  1.0000
  C   C407      1.0  0.21453  0.78113  0.73118  1.0000
  C   C408      1.0  0.14628  0.89437  0.66968  1.0000
  C   C409      1.0  0.16269  0.88276  0.67737  1.0000
  C   C410      1.0  0.16964  0.86948  0.64885  1.0000
  C   C411      1.0  0.16036  0.86793  0.61218  1.0000
  C   C412      1.0  0.14393  0.87953  0.60454  1.0000
  C   C413      1.0  0.13683  0.89262  0.63325  1.0000
  H   H652      1.0  0.17007  0.88404  0.70550  1.0000
  H   H653      1.0  0.18234  0.86068  0.65495  1.0000
  H   H654      1.0  0.13672  0.87842  0.57617  1.0000
  H   H655      1.0  0.12420  0.90150  0.62699  1.0000
  C   C414      1.0  0.27956  0.82721  0.95208  1.0000
  C   C415      1.0  0.28882  0.81047  0.96726  1.0000
  C   C416      1.0  0.23754  0.80001  0.91837  1.0000
  C   C417      1.0  0.22442  0.76789  0.91345  1.0000
  C   C418      1.0  0.05111  0.95357  0.82779  1.0000
  C   C419      1.0  0.26401  0.83547  0.97222  1.0000
  H   H656      1.0  0.20024  0.79894  0.90286  1.0000
  C   C420      1.0  0.07014  0.00264  0.66112  1.0000
  H   H657      1.0  0.13028  0.84060  0.75796  1.0000
  H   H658      1.0  0.25684  0.84849  0.96072  1.0000
  Fe  Fe72      1.0  0.31093  0.81939  0.88139  1.0000
  H   H659      1.0  0.26206  0.78228  0.67801  1.0000
  H   H660      1.0  0.29444  0.80679  0.60963  1.0000
  C   C421      1.0  0.09074  0.99321  0.81402  1.0000
  C   C422      1.0  0.09945  0.97787  0.83540  1.0000
  C   C423      1.0  0.11369  0.86113  0.69863  1.0000
  H   H661      1.0  0.08009  0.84844  0.72442  1.0000
  H   H662      1.0  0.06517  0.95893  0.81891  1.0000
  H   H663      1.0  0.10317  0.96429  0.82072  1.0000
  S   S155      1.0  0.99130  0.90776  0.53574  1.0000
  H   H664      1.0  0.13057  0.87699  0.76160  1.0000
  H   H665      1.0  0.10928  0.82867  0.74104  1.0000
  H   H666      1.0  0.98509  0.86346  0.52633  1.0000
  H   H667      1.0  0.27617  0.78932  0.61328  1.0000
  H   H668      1.0  0.10990  0.96812  0.89255  1.0000
  H   H669      1.0  0.28973  0.78898  0.01340  1.0000
  H   H670      1.0  0.22961  0.79643  0.99499  1.0000
  H   H671      1.0  0.29587  0.81798  0.71779  1.0000
  H   H672      1.0  0.28526  0.77672  0.69861  1.0000
  C   C424      1.0  0.22938  0.78266  0.97754  1.0000
  H   H673      1.0  0.04093  0.98833  0.89694  1.0000
  S   S156      1.0  0.01432  0.91246  0.01449  1.0000
  H   H674      1.0  0.18757  0.78999  0.70525  1.0000
  N   N41       1.0  0.28280  0.80405  0.66769  1.0000
  H   H675      1.0  0.00400  0.90893  0.87327  1.0000
  C   C425      1.0  0.18535  0.76384  0.73983  1.0000
  N   N42       1.0  0.22401  0.78648  0.93578  1.0000
  H   H676      1.0  0.30093  0.80409  0.95225  1.0000
  H   H677      1.0  0.27374  0.83152  0.64175  1.0000
  H   H678      1.0  0.20367  0.80915  0.95147  1.0000
  H   H679      1.0  0.10792  0.84919  0.68008  1.0000
  H   H680      1.0  0.04134  0.00142  0.60892  1.0000
  C   C426      1.0  0.29957  0.81212  0.68805  1.0000
  C   C427      1.0  0.09851  0.99763  0.89543  1.0000
  N   N43       1.0  0.10729  0.86004  0.73997  1.0000
  C   C428      1.0  0.08630  0.86092  0.74070  1.0000
  C   C429      1.0  0.11477  0.87665  0.76278  1.0000
  S   S157      1.0  0.20445  0.81211  0.53537  1.0000
  H   H681      1.0  0.19399  0.78546  0.94592  1.0000
  C   C430      1.0  0.03663  0.98560  0.81832  1.0000
  H   H682      1.0  0.98304  0.98888  0.79257  1.0000
  H   H683      1.0  0.11064  0.87613  0.79436  1.0000
  S   S158      1.0  0.10204  0.99947  0.94689  1.0000
  H   H684      1.0  0.98114  0.86187  0.85419  1.0000
  H   H685      1.0  0.30563  0.89138  0.89739  1.0000
  Fe  Fe73      1.0  0.98885  0.92543  0.98287  1.0000
  S   S159      1.0  0.31006  0.78696  0.87407  1.0000
  H   H686      1.0  0.23450  0.80251  0.88635  1.0000
  C   C431      1.0  0.02076  0.96169  0.85682  1.0000
  H   H687      1.0  0.10923  0.89081  0.75068  1.0000
  S   S160      1.0  0.28705  0.83746  0.90747  1.0000
  S   S161      1.0  0.22699  0.79986  0.70897  1.0000
  H   H688      1.0  0.21916  0.77295  0.99200  1.0000
  H   H689      1.0  0.04568  0.99398  0.71768  1.0000
  Fe  Fe74      1.0  0.20021  0.78614  0.57407  1.0000
  C   C432      1.0  0.19512  0.77932  0.72346  1.0000
  H   H690      1.0  0.03048  0.98065  0.78965  1.0000
  H   H691      1.0  0.01206  0.97278  0.87317  1.0000
  C   C433      1.0  0.04913  0.97619  0.88261  1.0000
  H   H692      1.0  0.23891  0.76099  0.91364  1.0000
  H   H693      1.0  0.27009  0.79469  0.72160  1.0000
  H   H694      1.0  0.26350  0.82644  0.68916  1.0000
  N   N44       1.0  0.03944  0.96925  0.84639  1.0000
  H   H695      1.0  0.10918  0.87526  0.68470  1.0000
  H   H696      1.0  0.05131  0.96424  0.90460  1.0000
  C   C434      1.0  0.22415  0.76747  0.75557  1.0000
  H   H697      1.0  0.08050  0.87458  0.72677  1.0000
  H   H698      1.0  0.30569  0.82414  0.67073  1.0000
  C   C435      1.0  0.10330  0.98008  0.87604  1.0000
  H   H699      1.0  0.17030  0.76256  0.73382  1.0000
  C   C436      1.0  0.27472  0.78873  0.69249  1.0000
  C   C437      1.0  0.20465  0.79541  0.93382  1.0000
  C   C438      1.0  0.11445  0.84153  0.75780  1.0000
  H   H700      1.0  0.03710  0.98486  0.64836  1.0000
  H   H701      1.0  0.10979  0.84016  0.78895  1.0000
  C   C439      1.0  0.28854  0.79553  0.62934  1.0000
  H   H702      1.0  0.99277  0.93597  0.76042  1.0000
  H   H703      1.0  0.08094  0.86079  0.77151  1.0000
  H   H704      1.0  0.25554  0.81402  0.64573  1.0000
  H   H705      1.0  0.08421  0.97579  0.01083  1.0000
  S   S162      1.0  0.17370  0.77652  0.01683  1.0000
  H   H706      1.0  0.29952  0.78365  0.63336  1.0000
  C   C440      1.0  0.25757  0.82680  0.00706  1.0000
  H   H707      1.0  0.02262  0.00686  0.64317  1.0000
  C   C441      1.0  0.28253  0.80196  0.00215  1.0000
  H   H708      1.0  0.07065  0.98682  0.66855  1.0000
  H   H709      1.0  0.07489  0.00393  0.63002  1.0000
  H   H710      1.0  0.31097  0.80071  0.69267  1.0000
  S   S163      1.0  0.36214  0.19528  0.26732  1.0000
  Fe  Fe75      1.0  0.35585  0.13826  0.35618  1.0000
  S   S164      1.0  0.37321  0.11000  0.35107  1.0000
  H   H711      1.0  0.36429  0.22092  0.20041  1.0000
  S   S165      1.0  0.36962  0.16690  0.36730  1.0000
  H   H712      1.0  0.41079  0.25466  0.50958  1.0000
  C   C442      1.0  0.63742  0.15336  0.19198  1.0000
  Fe  Fe76      1.0  0.31612  0.15720  0.34718  1.0000
  Fe  Fe77      1.0  0.46691  0.07337  0.46612  1.0000
  S   S166      1.0  0.46740  0.04323  0.43943  1.0000
  S   S167      1.0  0.45113  0.10114  0.44687  1.0000
  Fe  Fe78      1.0  0.59191  0.01747  0.22055  1.0000
  H   H713      1.0  0.42805  0.06366  0.46131  1.0000
  Fe  Fe79      1.0  0.49827  0.04214  0.45720  1.0000
  S   S168      1.0  0.52043  0.02562  0.42196  1.0000
  C   C443      1.0  0.61743  0.08891  0.09379  1.0000
  S   S169      1.0  0.49852  0.07332  0.47837  1.0000
  Fe  Fe80      1.0  0.56876  0.03083  0.14828  1.0000
  S   S170      1.0  0.56959  0.06252  0.16551  1.0000
  S   S171      1.0  0.55161  0.01696  0.09948  1.0000
  H   H714      1.0  0.47633  0.05668  0.19579  1.0000
  S   S172      1.0  0.59445  0.04792  0.24427  1.0000
  H   H715      1.0  0.31491  0.16016  0.47489  1.0000
  Fe  Fe81      1.0  0.56371  0.05159  0.22643  1.0000
  S   S173      1.0  0.53931  0.06538  0.25935  1.0000
  Fe  Fe82      1.0  0.60031  0.05618  0.18095  1.0000
  S   S174      1.0  0.62546  0.07540  0.16989  1.0000
  S   S175      1.0  0.56074  0.02050  0.20811  1.0000
  S   S176      1.0  0.59994  0.02523  0.15865  1.0000
  H   H716      1.0  0.63921  0.14974  0.09178  1.0000
  H   H717      1.0  0.39337  0.12331  0.27677  1.0000
  H   H718      1.0  0.51024  0.06682  0.18829  1.0000
  C   C444      1.0  0.52574  0.03679  0.37697  1.0000
  C   C445      1.0  0.54094  0.02946  0.35453  1.0000
  C   C446      1.0  0.54531  0.03823  0.31841  1.0000
  C   C447      1.0  0.53443  0.05431  0.30470  1.0000
  C   C448      1.0  0.51920  0.06154  0.32710  1.0000
  C   C449      1.0  0.51488  0.05284  0.36324  1.0000
  H   H719      1.0  0.62950  0.13322  0.12666  1.0000
  H   H720      1.0  0.55725  0.03276  0.30148  1.0000
  H   H721      1.0  0.51082  0.07403  0.31665  1.0000
  H   H722      1.0  0.50319  0.05860  0.38051  1.0000
  H   H723      1.0  0.50926  0.05813  0.13803  1.0000
  C   C450      1.0  0.47986  0.04388  0.17665  1.0000
  C   C451      1.0  0.52031  0.02708  0.05426  1.0000
  C   C452      1.0  0.53607  0.03371  0.07561  1.0000
  C   C453      1.0  0.53903  0.05372  0.07854  1.0000
  C   C454      1.0  0.52612  0.06709  0.06106  1.0000
  C   C455      1.0  0.32626  0.24892  0.22971  1.0000
  H   H724      1.0  0.34409  0.24928  0.17849  1.0000
  H   H725      1.0  0.55147  0.05894  0.09358  1.0000
  H   H726      1.0  0.52857  0.08259  0.06333  1.0000
  H   H727      1.0  0.33167  0.21703  0.30603  1.0000
  C   C456      1.0  0.63288  0.14879  0.12170  1.0000
  S   S177      1.0  0.44369  0.00830  0.51294  1.0000
  C   C457      1.0  0.39434  0.10707  0.37934  1.0000
  C   C458      1.0  0.40637  0.09070  0.37291  1.0000
  C   C459      1.0  0.42374  0.08849  0.39380  1.0000
  C   C460      1.0  0.42913  0.10265  0.42131  1.0000
  C   C461      1.0  0.41707  0.11899  0.42770  1.0000
  C   C462      1.0  0.39965  0.12110  0.40714  1.0000
  H   H728      1.0  0.40240  0.07987  0.35119  1.0000
  H   H729      1.0  0.43319  0.07613  0.38789  1.0000
  H   H730      1.0  0.42122  0.13007  0.44876  1.0000
  H   H731      1.0  0.39044  0.13370  0.41257  1.0000
  H   H732      1.0  0.46451  0.01851  0.11078  1.0000
  C   C463      1.0  0.35365  0.22108  0.42896  1.0000
  H   H733      1.0  0.59701  0.01623  0.31108  1.0000
  H   H734      1.0  0.35565  0.21244  0.40246  1.0000
  H   H735      1.0  0.35894  0.24832  0.39999  1.0000
  Fe  Fe83      1.0  0.35058  0.17820  0.31808  1.0000
  H   H736      1.0  0.38573  0.14353  0.24574  1.0000
  N   N45       1.0  0.41011  0.14901  0.28292  1.0000
  S   S178      1.0  0.34691  0.18662  0.46660  1.0000
  H   H737      1.0  0.59027  0.00989  0.48032  1.0000
  C   C464      1.0  0.34941  0.21202  0.46461  1.0000
  S   S179      1.0  0.33208  0.14371  0.39882  1.0000
  H   H738      1.0  0.41883  0.14664  0.22245  1.0000
  S   S180      1.0  0.32684  0.18720  0.35813  1.0000
  S   S181      1.0  0.33861  0.14904  0.30349  1.0000
  H   H739      1.0  0.40737  0.14807  0.34608  1.0000
  H   H740      1.0  0.60353  0.08278  0.09668  1.0000
  C   C465      1.0  0.50731  0.04048  0.03670  1.0000
  H   H741      1.0  0.39696  0.17582  0.30360  1.0000
  N   N46       1.0  0.50003  0.03765  0.18137  1.0000
  C   C466      1.0  0.50389  0.02029  0.15637  1.0000
  H   H742      1.0  0.63574  0.18592  0.14750  1.0000
  C   C467      1.0  0.39104  0.07280  0.47243  1.0000
  C   C468      1.0  0.32294  0.23984  0.26581  1.0000
  C   C469      1.0  0.39183  0.13953  0.27526  1.0000
  H   H743      1.0  0.37846  0.07560  0.49133  1.0000
  H   H744      1.0  0.42637  0.12648  0.25339  1.0000
  H   H745      1.0  0.43128  0.15017  0.32950  1.0000
  H   H746      1.0  0.61144  0.10125  0.03606  1.0000
  C   C470      1.0  0.41793  0.05156  0.45789  1.0000
  H   H747      1.0  0.38591  0.07234  0.44111  1.0000
  C   C471      1.0  0.34699  0.22332  0.49887  1.0000
  H   H748      1.0  0.50141  0.04558  0.24292  1.0000
  H   H749      1.0  0.43792  0.14945  0.25770  1.0000
  C   C472      1.0  0.35282  0.22623  0.21884  1.0000
  H   H750      1.0  0.63482  0.13764  0.19777  1.0000
  H   H751      1.0  0.37602  0.03950  0.49823  1.0000
  H   H752      1.0  0.42585  0.03769  0.46497  1.0000
  C   C473      1.0  0.34909  0.21672  0.25442  1.0000
  H   H753      1.0  0.47022  0.03189  0.18452  1.0000
  H   H754      1.0  0.32666  0.20683  0.16830  1.0000
  C   C474      1.0  0.51227  0.05367  0.16918  1.0000
  C   C475      1.0  0.34140  0.24231  0.20643  1.0000
  C   C476      1.0  0.51031  0.06053  0.03993  1.0000
  H   H755      1.0  0.40130  0.17522  0.25176  1.0000
  C   C477      1.0  0.33436  0.22383  0.27817  1.0000
  H   H756      1.0  0.38113  0.14395  0.29758  1.0000
  H   H757      1.0  0.47644  0.04817  0.14553  1.0000
  H   H758      1.0  0.45513  0.02691  0.04196  1.0000
  H   H759      1.0  0.42072  0.17817  0.28628  1.0000
  C   C478      1.0  0.42393  0.14261  0.25276  1.0000
  C   C479      1.0  0.50408  0.03274  0.22325  1.0000
  C   C480      1.0  0.41744  0.14341  0.32262  1.0000
  Fe  Fe84      1.0  0.34468  0.17325  0.40607  1.0000
  N   N47       1.0  0.40139  0.05451  0.48373  1.0000
  H   H760      1.0  0.50063  0.02347  0.12473  1.0000
  C   C481      1.0  0.62194  0.09939  0.05952  1.0000
  H   H761      1.0  0.59647  0.01107  0.38377  1.0000
  H   H762      1.0  0.52759  0.04928  0.17138  1.0000
  H   H763      1.0  0.56258  0.03786  0.51496  1.0000
  C   C482      1.0  0.63077  0.08684  0.12470  1.0000
  H   H764      1.0  0.51924  0.02819  0.22794  1.0000
  C   C483      1.0  0.55651  0.02690  0.49453  1.0000
  C   C484      1.0  0.40722  0.17046  0.28103  1.0000
  H   H765      1.0  0.54953  0.01723  0.36542  1.0000
  H   H766      1.0  0.32463  0.23160  0.05391  1.0000
  H   H767      1.0  0.41955  0.12728  0.32530  1.0000
  C   C485      1.0  0.35557  0.24138  0.42761  1.0000
  H   H768      1.0  0.51910  0.01542  0.15844  1.0000
  H   H769      1.0  0.51812  0.01161  0.05154  1.0000
  C   C486      1.0  0.38872  0.03779  0.47922  1.0000
  H   H770      1.0  0.56099  0.03061  0.46406  1.0000
  C   C487      1.0  0.45136  0.01300  0.05418  1.0000
  H   H771      1.0  0.41355  0.05085  0.42618  1.0000
  C   C488      1.0  0.34868  0.24368  0.49742  1.0000
  Fe  Fe85      1.0  0.46299  0.03304  0.50150  1.0000
  C   C489      1.0  0.63976  0.10793  0.05601  1.0000
  C   C490      1.0  0.45671  0.00820  0.09319  1.0000
  H   H772      1.0  0.49511  0.02069  0.23349  1.0000
  H   H773      1.0  0.38361  0.03625  0.44808  1.0000
  H   H774      1.0  0.62357  0.16148  0.19430  1.0000
  H   H775      1.0  0.40032  0.08565  0.47526  1.0000
  H   H776      1.0  0.54078  0.02880  0.49514  1.0000
  C   C491      1.0  0.35301  0.25270  0.46175  1.0000
  H   H777      1.0  0.39622  0.02381  0.48768  1.0000
  H   H778      1.0  0.32072  0.17105  0.16498  1.0000
  H   H779      1.0  0.49505  0.03533  0.02068  1.0000
  H   H780      1.0  0.61919  0.15730  0.12097  1.0000
  H   H781      1.0  0.32097  0.18822  0.22935  1.0000
  C   C492      1.0  0.32847  0.22865  0.02365  1.0000
  S   S182      1.0  0.49380  0.02973  0.51759  1.0000
  H   H782      1.0  0.49505  0.00782  0.16506  1.0000
  S   S183      1.0  0.35832  0.22663  0.77126  1.0000
  Fe  Fe86      1.0  0.34031  0.16138  0.81371  1.0000
  S   S184      1.0  0.35821  0.13394  0.80343  1.0000
  Fe  Fe87      1.0  0.32124  0.18873  0.87274  1.0000
  S   S185      1.0  0.35086  0.18644  0.84961  1.0000
  S   S186      1.0  0.47370  0.03724  0.94668  1.0000
  H   H783      1.0  0.31472  0.14948  0.97689  1.0000
  S   S187      1.0  0.50174  0.07202  0.59649  1.0000
  H   H784      1.0  0.39337  0.16932  0.79086  1.0000
  S   S188      1.0  0.43196  0.04945  0.90630  1.0000
  S   S189      1.0  0.63170  0.12492  0.76093  1.0000
  H   H785      1.0  0.34487  0.16019  0.91714  1.0000
  H   H786      1.0  0.62099  0.10090  0.89795  1.0000
  Fe  Fe88      1.0  0.46280  0.05324  0.89304  1.0000
  S   S190      1.0  0.47664  0.04350  0.83628  1.0000
  H   H787      1.0  0.58233  0.03495  0.84407  1.0000
  H   H788      1.0  0.60561  0.10859  0.55341  1.0000
  Fe  Fe89      1.0  0.59285  0.06751  0.71378  1.0000
  S   S191      1.0  0.58516  0.09837  0.73051  1.0000
  S   S192      1.0  0.58715  0.05712  0.65153  1.0000
  Fe  Fe90      1.0  0.60829  0.05766  0.79576  1.0000
  S   S193      1.0  0.60173  0.08777  0.81870  1.0000
  H   H789      1.0  0.35704  0.11640  0.91430  1.0000
  Fe  Fe91      1.0  0.57413  0.08496  0.78559  1.0000
  S   S194      1.0  0.54704  0.09693  0.81170  1.0000
  Fe  Fe92      1.0  0.61352  0.09820  0.76141  1.0000
  H   H790      1.0  0.34602  0.16308  0.96962  1.0000
  S   S195      1.0  0.57970  0.05396  0.76672  1.0000
  S   S196      1.0  0.62225  0.06823  0.74062  1.0000
  C   C493      1.0  0.60758  0.12945  0.64462  1.0000
  N   N48       1.0  0.60364  0.11365  0.61597  1.0000
  C   C494      1.0  0.37970  0.15720  0.72092  1.0000
  C   C495      1.0  0.49582  0.05842  0.82639  1.0000
  C   C496      1.0  0.51275  0.05023  0.81166  1.0000
  C   C497      1.0  0.52845  0.06202  0.80560  1.0000
  C   C498      1.0  0.52726  0.08198  0.81465  1.0000
  C   C499      1.0  0.51022  0.09013  0.82875  1.0000
  C   C500      1.0  0.49453  0.07840  0.83449  1.0000
  H   H791      1.0  0.51391  0.03469  0.80622  1.0000
  H   H792      1.0  0.54157  0.05558  0.79505  1.0000
  H   H793      1.0  0.50919  0.10556  0.83571  1.0000
  H   H794      1.0  0.48141  0.08491  0.84510  1.0000
  C   C501      1.0  0.52569  0.06808  0.61046  1.0000
  C   C502      1.0  0.53828  0.05730  0.58675  1.0000
  C   C503      1.0  0.55720  0.05400  0.59956  1.0000
  C   C504      1.0  0.56341  0.06112  0.63627  1.0000
  C   C505      1.0  0.55077  0.07177  0.65998  1.0000
  C   C506      1.0  0.53206  0.07549  0.64682  1.0000
  H   H795      1.0  0.48859  0.01353  0.64870  1.0000
  H   H796      1.0  0.56711  0.04592  0.58131  1.0000
  H   H797      1.0  0.55539  0.07729  0.68838  1.0000
  H   H798      1.0  0.52254  0.08422  0.66495  1.0000
  C   C507      1.0  0.44437  0.01213  0.63234  1.0000
  S   S197      1.0  0.41335  0.10387  0.94132  1.0000
  H   H799      1.0  0.35834  0.24398  0.95285  1.0000
  C   C508      1.0  0.37534  0.12628  0.83923  1.0000
  C   C509      1.0  0.38266  0.10699  0.83850  1.0000
  C   C510      1.0  0.39513  0.10009  0.86862  1.0000
  C   C511      1.0  0.40033  0.11249  0.89963  1.0000
  C   C512      1.0  0.39362  0.13197  0.89941  1.0000
  C   C513      1.0  0.38125  0.13889  0.86925  1.0000
  H   H800      1.0  0.37823  0.09718  0.81522  1.0000
  H   H801      1.0  0.40020  0.08503  0.86860  1.0000
  H   H802      1.0  0.39786  0.14168  0.92303  1.0000
  H   H803      1.0  0.37609  0.15386  0.86971  1.0000
  H   H804      1.0  0.57991  0.09687  0.59613  1.0000
  C   C514      1.0  0.33883  0.22049  0.94552  1.0000
  C   C515      1.0  0.44460  0.01700  0.59210  1.0000
  H   H805      1.0  0.34280  0.21755  0.91527  1.0000
  H   H806      1.0  0.47435  0.05916  0.69929  1.0000
  N   N49       1.0  0.49338  0.03409  0.69603  1.0000
  S   S198      1.0  0.62316  0.03639  0.83761  1.0000
  H   H807      1.0  0.34249  0.13380  0.01278  1.0000
  H   H808      1.0  0.41630  0.04243  0.53442  1.0000
  H   H809      1.0  0.33725  0.11057  0.99073  1.0000
  H   H810      1.0  0.53732  0.03887  0.98152  1.0000
  H   H811      1.0  0.32009  0.22656  0.73894  1.0000
  H   H812      1.0  0.56153  0.07346  0.96917  1.0000
  Fe  Fe93      1.0  0.49139  0.06089  0.53741  1.0000
  H   H813      1.0  0.55902  0.01147  0.56782  1.0000
  C   C516      1.0  0.48965  0.05511  0.70357  1.0000
  H   H814      1.0  0.38486  0.20624  0.71172  1.0000
  H   H815      1.0  0.46595  0.02557  0.71580  1.0000
  H   H816      1.0  0.36454  0.14960  0.94477  1.0000
  H   H817      1.0  0.61286  0.06578  0.90115  1.0000
  H   H818      1.0  0.62814  0.04879  0.92719  1.0000
  C   C517      1.0  0.32789  0.23758  0.72378  1.0000
  C   C518      1.0  0.34228  0.23976  0.00567  1.0000
  H   H819      1.0  0.51778  0.07409  0.90651  1.0000
  H   H820      1.0  0.63079  0.09889  0.62387  1.0000
  H   H821      1.0  0.59967  0.13340  0.56705  1.0000
  Fe  Fe94      1.0  0.43406  0.07788  0.93933  1.0000
  C   C519      1.0  0.32001  0.21336  0.00271  1.0000
  H   H822      1.0  0.44501  0.03214  0.58336  1.0000
  H   H823      1.0  0.38005  0.18875  0.67320  1.0000
  C   C520      1.0  0.51363  0.02919  0.70436  1.0000
  H   H824      1.0  0.53740  0.07511  0.98551  1.0000
  H   H825      1.0  0.58914  0.01504  0.53243  1.0000
  H   H826      1.0  0.48401  0.02596  0.75383  1.0000
  C   C521      1.0  0.32508  0.20938  0.96353  1.0000
  Fe  Fe95      1.0  0.47221  0.06630  0.97684  1.0000
  C   C522      1.0  0.37885  0.19166  0.70544  1.0000
  H   H827      1.0  0.61279  0.09119  0.65691  1.0000
  H   H828      1.0  0.36345  0.19300  0.71224  1.0000
  N   N50       1.0  0.54154  0.05818  0.93266  1.0000
  C   C523      1.0  0.54647  0.07462  0.95891  1.0000
  C   C524      1.0  0.52119  0.05994  0.92148  1.0000
  C   C525      1.0  0.54530  0.03947  0.95348  1.0000
  C   C526      1.0  0.55317  0.05881  0.89674  1.0000
  H   H829      1.0  0.37146  0.18211  0.77981  1.0000
  S   S199      1.0  0.44234  0.06344  0.99717  1.0000
  C   C527      1.0  0.61540  0.09611  0.62616  1.0000
  C   C528      1.0  0.40885  0.17488  0.71933  1.0000
  H   H830      1.0  0.49963  0.03559  0.63401  1.0000
  C   C529      1.0  0.34189  0.12140  0.91544  1.0000
  C   C530      1.0  0.60841  0.02096  0.86422  1.0000
  C   C531      1.0  0.35701  0.25462  0.71333  1.0000
  C   C532      1.0  0.34696  0.24046  0.73355  1.0000
  H   H831      1.0  0.31258  0.14678  0.92450  1.0000
  H   H832      1.0  0.36036  0.12054  0.98543  1.0000
  H   H833      1.0  0.33329  0.10806  0.91676  1.0000
  H   H834      1.0  0.36432  0.15764  0.72816  1.0000
  H   H835      1.0  0.38639  0.14522  0.73902  1.0000
  H   H836      1.0  0.55124  0.07305  0.88128  1.0000
  C   C533      1.0  0.31785  0.13931  0.95191  1.0000
  H   H837      1.0  0.62259  0.13402  0.64316  1.0000
  H   H838      1.0  0.54920  0.04721  0.87533  1.0000
  H   H839      1.0  0.61413  0.06646  0.95440  1.0000
  C   C534      1.0  0.34487  0.12439  0.98634  1.0000
  Fe  Fe96      1.0  0.33949  0.20473  0.79902  1.0000
  S   S200      1.0  0.33066  0.17954  0.76147  1.0000
  H   H840      1.0  0.41652  0.16334  0.73700  1.0000
  Fe  Fe97      1.0  0.44312  0.03545  0.96250  1.0000
  C   C535      1.0  0.34757  0.23549  0.96675  1.0000
  C   C536      1.0  0.58868  0.02367  0.86261  1.0000
  C   C537      1.0  0.31879  0.24913  0.69457  1.0000
  H   H841      1.0  0.64026  0.07612  0.86199  1.0000
  S   S201      1.0  0.46418  0.08276  0.92167  1.0000
  C   C538      1.0  0.38661  0.18085  0.77172  1.0000
  H   H842      1.0  0.59837  0.14263  0.63896  1.0000
  S   S202      1.0  0.31347  0.19100  0.93708  1.0000
  H   H843      1.0  0.51693  0.04803  0.90103  1.0000
  H   H844      1.0  0.62436  0.24382  0.89519  1.0000
  H   H845      1.0  0.62356  0.12398  0.57384  1.0000
  N   N51       1.0  0.38851  0.17614  0.72930  1.0000
  H   H846      1.0  0.56856  0.05677  0.90387  1.0000
  H   H847      1.0  0.47500  0.03607  0.64472  1.0000
  H   H848      1.0  0.57393  0.12169  0.60980  1.0000
  H   H849      1.0  0.41589  0.18894  0.72546  1.0000
  C   C539      1.0  0.60831  0.12019  0.57575  1.0000
  C   C540      1.0  0.48895  0.02956  0.65415  1.0000
  H   H850      1.0  0.56187  0.01374  0.88343  1.0000
  C   C541      1.0  0.58333  0.10884  0.61721  1.0000
  H   H851      1.0  0.38090  0.15306  0.68923  1.0000
  H   H852      1.0  0.56064  0.03723  0.96114  1.0000
  H   H853      1.0  0.41084  0.17133  0.68750  1.0000
  H   H854      1.0  0.54423  0.08892  0.94364  1.0000
  H   H855      1.0  0.34668  0.25236  0.52388  1.0000
  H   H856      1.0  0.54104  0.02678  0.93510  1.0000
  S   S203      1.0  0.49534  0.07779  0.01619  1.0000
  H   H857      1.0  0.57936  0.10369  0.64700  1.0000
  C   C542      1.0  0.63031  0.09832  0.92440  1.0000
  N   N52       1.0  0.33838  0.13441  0.94969  1.0000
  H   H858      1.0  0.39301  0.19509  0.77932  1.0000
  H   H859      1.0  0.61217  0.08360  0.60630  1.0000
  H   H860      1.0  0.60518  0.12476  0.67561  1.0000
  S   S204      1.0  0.45989  0.06304  0.52690  1.0000
  H   H861      1.0  0.52309  0.03801  0.68575  1.0000
  H   H862      1.0  0.42017  0.00772  0.82357  1.0000
  H   H863      1.0  0.62178  0.10165  0.95118  1.0000
  C   C543      1.0  0.62263  0.06421  0.92722  1.0000
  H   H864      1.0  0.49376  0.05927  0.73433  1.0000
  H   H865      1.0  0.53343  0.05164  0.55860  1.0000
  H   H866      1.0  0.61455  0.25401  0.85014  1.0000
  C   C544      1.0  0.48133  0.02254  0.72205  1.0000
  H   H867      1.0  0.43982  0.02165  0.84093  1.0000
  H   H868      1.0  0.44428  0.02354  0.65448  1.0000
  H   H869      1.0  0.64288  0.07831  0.98836  1.0000
  C   C545      1.0  0.34895  0.15258  0.94512  1.0000
  H   H870      1.0  0.33836  0.12886  0.88690  1.0000
  H   H871      1.0  0.51201  0.05927  0.94786  1.0000
  C   C546      1.0  0.57713  0.01176  0.88513  1.0000
  H   H872      1.0  0.49766  0.06429  0.68299  1.0000
  H   H873      1.0  0.51699  0.01350  0.69836  1.0000
  H   H874      1.0  0.51751  0.03222  0.73568  1.0000
  H   H875      1.0  0.41733  0.06852  0.52991  1.0000
  H   H876      1.0  0.31589  0.17379  0.52003  1.0000
  H   H877      1.0  0.34370  0.21634  0.52650  1.0000
  H   H878      1.0  0.42469  0.01008  0.87582  1.0000
  N   N53       1.0  0.63826  0.07811  0.92531  1.0000
  S   S205      1.0  0.64467  0.12181  0.01352  1.0000
  C   C547      1.0  0.43161  0.00831  0.84658  1.0000
  H   H879      1.0  0.64526  0.10029  0.69635  1.0000
  C   C548      1.0  0.40799  0.05584  0.52533  1.0000
  H   H880      1.0  0.39587  0.05763  0.54586  1.0000
  H   H881      1.0  0.64176  0.10920  0.92377  1.0000
  H   H882      1.0  0.37176  0.25692  0.72089  1.0000
  Fe  Fe98      1.0  0.33095  0.31579  0.11293  1.0000
  S   S206      1.0  0.34191  0.34615  0.12325  1.0000
  Fe  Fe99      1.0  0.55914  0.43860  0.04216  1.0000
  H   H883      1.0  0.36460  0.32081  0.17588  1.0000
  S   S207      1.0  0.34582  0.28785  0.13169  1.0000
  Fe  Fe100     1.0  0.45567  0.41260  0.19208  1.0000
  S   S208      1.0  0.45861  0.38513  0.22781  1.0000
  S   S209      1.0  0.46542  0.41287  0.12892  1.0000
  Fe  Fe101     1.0  0.43347  0.43404  0.25507  1.0000
  S   S210      1.0  0.43391  0.40813  0.29544  1.0000
  S   S211      1.0  0.42032  0.46300  0.27313  1.0000
  Fe  Fe102     1.0  0.46458  0.40506  0.27894  1.0000
  S   S212      1.0  0.48416  0.39807  0.33071  1.0000
  Fe  Fe103     1.0  0.42773  0.39038  0.24102  1.0000
  S   S213      1.0  0.41044  0.36287  0.24169  1.0000
  S   S214      1.0  0.46458  0.43223  0.24197  1.0000
  S   S215      1.0  0.42434  0.41674  0.20191  1.0000
  H   H884      1.0  0.39098  0.32796  0.22277  1.0000
  H   H885      1.0  0.49963  0.43288  0.45733  1.0000
  H   H886      1.0  0.39371  0.29921  0.45582  1.0000
  Fe  Fe104     1.0  0.58379  0.41339  0.39308  1.0000
  S   S216      1.0  0.58179  0.38425  0.42226  1.0000
  S   S217      1.0  0.57136  0.41829  0.33168  1.0000
  H   H887      1.0  0.50718  0.47431  0.03850  1.0000
  S   S218      1.0  0.54923  0.44084  0.10514  1.0000
  Fe  Fe105     1.0  0.61235  0.38784  0.43959  1.0000
  N   N54       1.0  0.41134  0.28583  0.50141  1.0000
  S   S219      1.0  0.57404  0.43012  0.44646  1.0000
  S   S220      1.0  0.61496  0.41615  0.40671  1.0000
  C   C549      1.0  0.42843  0.28484  0.47661  1.0000
  C   C550      1.0  0.59839  0.48960  0.07328  1.0000
  C   C551      1.0  0.61267  0.49096  0.04507  1.0000
  C   C552      1.0  0.41821  0.34495  0.12466  1.0000
  H   H888      1.0  0.59908  0.35307  0.25288  1.0000
  H   H889      1.0  0.57725  0.49784  0.24784  1.0000
  H   H890      1.0  0.58529  0.48252  0.06574  1.0000
  C   C553      1.0  0.31595  0.31146  0.29389  1.0000
  C   C554      1.0  0.50826  0.40412  0.32961  1.0000
  C   C555      1.0  0.51661  0.41142  0.29557  1.0000
  C   C556      1.0  0.53605  0.41574  0.29607  1.0000
  C   C557      1.0  0.54703  0.41308  0.33075  1.0000
  C   C558      1.0  0.53856  0.40600  0.36470  1.0000
  C   C559      1.0  0.51934  0.40134  0.36399  1.0000
  H   H891      1.0  0.50816  0.41344  0.26882  1.0000
  H   H892      1.0  0.54257  0.42099  0.26956  1.0000
  H   H893      1.0  0.54683  0.40395  0.39160  1.0000
  H   H894      1.0  0.51311  0.39544  0.39023  1.0000
  C   C560      1.0  0.48872  0.42067  0.12274  1.0000
  C   C561      1.0  0.49614  0.42157  0.08461  1.0000
  C   C562      1.0  0.51470  0.42783  0.07899  1.0000
  C   C563      1.0  0.52592  0.43313  0.11153  1.0000
  C   C564      1.0  0.51849  0.43227  0.14966  1.0000
  C   C565      1.0  0.49994  0.42599  0.15527  1.0000
  H   H895      1.0  0.48760  0.41716  0.05947  1.0000
  H   H896      1.0  0.46799  0.49461  0.31834  1.0000
  H   H897      1.0  0.52713  0.43620  0.17497  1.0000
  H   H898      1.0  0.49443  0.42507  0.18479  1.0000
  H   H899      1.0  0.61184  0.33136  0.30610  1.0000
  H   H900      1.0  0.59646  0.37892  0.26156  1.0000
  C   C566      1.0  0.43058  0.47064  0.31790  1.0000
  S   S221      1.0  0.60518  0.40245  0.49744  1.0000
  H   H901      1.0  0.43870  0.37667  0.06217  1.0000
  H   H902      1.0  0.54672  0.49645  0.21088  1.0000
  H   H903      1.0  0.31667  0.32874  0.45670  1.0000
  C   C567      1.0  0.36079  0.35061  0.15671  1.0000
  C   C568      1.0  0.36725  0.36971  0.16108  1.0000
  C   C569      1.0  0.38227  0.37378  0.18745  1.0000
  C   C570      1.0  0.39093  0.35873  0.20968  1.0000
  C   C571      1.0  0.38432  0.33967  0.20567  1.0000
  C   C572      1.0  0.36939  0.33558  0.17909  1.0000
  H   H904      1.0  0.36055  0.38144  0.14404  1.0000
  H   H905      1.0  0.38706  0.38857  0.19074  1.0000
  H   H906      1.0  0.40684  0.38261  0.12204  1.0000
  Fe  Fe106     1.0  0.31724  0.27961  0.15354  1.0000
  H   H907      1.0  0.33754  0.37721  0.49746  1.0000
  C   C573      1.0  0.44632  0.46034  0.33360  1.0000
  H   H908      1.0  0.64067  0.50120  0.03354  1.0000
  H   H909      1.0  0.38846  0.26735  0.51723  1.0000
  H   H910      1.0  0.48676  0.40472  0.49061  1.0000
  H   H911      1.0  0.63235  0.34617  0.31290  1.0000
  H   H912      1.0  0.35576  0.39291  0.48058  1.0000
  C   C574      1.0  0.35234  0.38197  0.50345  1.0000
  N   N55       1.0  0.42988  0.36171  0.11417  1.0000
  H   H913      1.0  0.57694  0.37306  0.32156  1.0000
  H   H914      1.0  0.57899  0.34738  0.31031  1.0000
  C   C575      1.0  0.60101  0.49759  0.11134  1.0000
  H   H915      1.0  0.34252  0.32522  0.24530  1.0000
  H   H916      1.0  0.40307  0.34737  0.11534  1.0000
  Fe  Fe107     1.0  0.57483  0.40111  0.47715  1.0000
  C   C576      1.0  0.55227  0.48295  0.19607  1.0000
  C   C577      1.0  0.43212  0.49358  0.37292  1.0000
  H   H917      1.0  0.42640  0.50622  0.38843  1.0000
  C   C578      1.0  0.44951  0.35835  0.12927  1.0000
  H   H918      1.0  0.45862  0.37093  0.12257  1.0000
  C   C579      1.0  0.47016  0.41569  0.42091  1.0000
  C   C580      1.0  0.45152  0.43704  0.46321  1.0000
  H   H919      1.0  0.58983  0.48858  0.20566  1.0000
  H   H920      1.0  0.45668  0.46316  0.01842  1.0000
  S   S222      1.0  0.35235  0.32652  0.51225  1.0000
  H   H921      1.0  0.36197  0.36899  0.49911  1.0000
  C   C581      1.0  0.32812  0.32318  0.23218  1.0000
  H   H922      1.0  0.31545  0.29626  0.28209  1.0000
  H   H923      1.0  0.32812  0.34834  0.29336  1.0000
  C   C582      1.0  0.39841  0.30171  0.48699  1.0000
  H   H924      1.0  0.46753  0.45901  0.37958  1.0000
  C   C583      1.0  0.47225  0.46101  0.02363  1.0000
  N   N56       1.0  0.56571  0.47188  0.22216  1.0000
  H   H925      1.0  0.62876  0.44642  0.04326  1.0000
  C   C584      1.0  0.40152  0.26705  0.49904  1.0000
  H   H926      1.0  0.56557  0.45760  0.27889  1.0000
  H   H927      1.0  0.61744  0.34130  0.35389  1.0000
  H   H928      1.0  0.48376  0.40731  0.41704  1.0000
  H   H929      1.0  0.59000  0.49651  0.13303  1.0000
  H   H930      1.0  0.45625  0.34504  0.11604  1.0000
  H   H931      1.0  0.47982  0.49862  0.03775  1.0000
  H   H932      1.0  0.44887  0.44750  0.43856  1.0000
  H   H933      1.0  0.40515  0.31619  0.48885  1.0000
  C   C585      1.0  0.62962  0.50002  0.05521  1.0000
  H   H934      1.0  0.46160  0.40099  0.49086  1.0000
  H   H935      1.0  0.47518  0.46374  0.05561  1.0000
  H   H936      1.0  0.43610  0.29883  0.47767  1.0000
  H   H937      1.0  0.57982  0.45770  0.17341  1.0000
  H   H938      1.0  0.58277  0.44534  0.22018  1.0000
  H   H939      1.0  0.56065  0.44445  0.19322  1.0000
  N   N57       1.0  0.60554  0.36217  0.31234  1.0000
  S   S223      1.0  0.32253  0.30490  0.05234  1.0000
  C   C586      1.0  0.58199  0.48419  0.23243  1.0000
  C   C587      1.0  0.64427  0.44594  0.03756  1.0000
  C   C588      1.0  0.45499  0.46668  0.36859  1.0000
  H   H940      1.0  0.42462  0.28193  0.44508  1.0000
  H   H941      1.0  0.45115  0.44574  0.49109  1.0000
  H   H942      1.0  0.55091  0.47948  0.27548  1.0000
  H   H943      1.0  0.46855  0.42571  0.39519  1.0000
  C   C589      1.0  0.47767  0.50364  0.30098  1.0000
  H   H944      1.0  0.42351  0.33120  0.11056  1.0000
  H   H945      1.0  0.61978  0.36765  0.25795  1.0000
  H   H946      1.0  0.48404  0.45123  0.43570  1.0000
  H   H947      1.0  0.42166  0.37843  0.16499  1.0000
  H   H948      1.0  0.41835  0.34253  0.15724  1.0000
  C   C590      1.0  0.61728  0.34446  0.32156  1.0000
  H   H949      1.0  0.44981  0.35647  0.16199  1.0000
  H   H950      1.0  0.55919  0.48741  0.16827  1.0000
  H   H951      1.0  0.43009  0.39267  0.12483  1.0000
  Fe  Fe108     1.0  0.34763  0.29443  0.51418  1.0000
  H   H952      1.0  0.59233  0.47637  0.25244  1.0000
  C   C591      1.0  0.55597  0.46634  0.25874  1.0000
  H   H953      1.0  0.41129  0.49534  0.32533  1.0000
  C   C592      1.0  0.61817  0.50632  0.12161  1.0000
  H   H954      1.0  0.41542  0.36664  0.05856  1.0000
  C   C593      1.0  0.42175  0.37965  0.13223  1.0000
  C   C594      1.0  0.47258  0.41233  0.49176  1.0000
  H   H955      1.0  0.43616  0.35078  0.05604  1.0000
  H   H956      1.0  0.39685  0.26375  0.46816  1.0000
  H   H957      1.0  0.58584  0.35613  0.35828  1.0000
  C   C595      1.0  0.60520  0.36560  0.26922  1.0000
  Fe  Fe109     1.0  0.60495  0.43050  0.46320  1.0000
  H   H958      1.0  0.61441  0.37693  0.36511  1.0000
  H   H959      1.0  0.32796  0.30822  0.21921  1.0000
  S   S224      1.0  0.35582  0.27803  0.45931  1.0000
  C   C596      1.0  0.58596  0.35956  0.32613  1.0000
  C   C597      1.0  0.48548  0.44042  0.46004  1.0000
  C   C598      1.0  0.57258  0.45407  0.20141  1.0000
  N   N58       1.0  0.46993  0.42638  0.45892  1.0000
  C   C599      1.0  0.61374  0.37916  0.33259  1.0000
  C   C600      1.0  0.43005  0.36403  0.07076  1.0000
  S   S225      1.0  0.62966  0.35937  0.43660  1.0000
  H   H960      1.0  0.43948  0.42690  0.46331  1.0000
  H   H961      1.0  0.32993  0.31301  0.30918  1.0000
  H   H962      1.0  0.54341  0.45733  0.25211  1.0000
  C   C601      1.0  0.44780  0.48310  0.38865  1.0000
  H   H963      1.0  0.53992  0.47399  0.18736  1.0000
  H   H964      1.0  0.60512  0.39278  0.32692  1.0000
  H   H965      1.0  0.45850  0.40513  0.41855  1.0000
  Fe  Fe110     1.0  0.33516  0.27619  0.07331  1.0000
  H   H966      1.0  0.48484  0.49380  0.27927  1.0000
  H   H967      1.0  0.62846  0.38171  0.32274  1.0000
  H   H968      1.0  0.45198  0.44756  0.31862  1.0000
  S   S226      1.0  0.61643  0.45855  0.48807  1.0000
  H   H969      1.0  0.52037  0.42835  0.04955  1.0000
  H   H970      1.0  0.48546  0.44895  0.48805  1.0000
  C   C602      1.0  0.42353  0.48736  0.33742  1.0000
  S   S227      1.0  0.59025  0.43393  0.03236  1.0000
  H   H971      1.0  0.43852  0.27300  0.48661  1.0000
  H   H972      1.0  0.32632  0.33378  0.20734  1.0000
  S   S228      1.0  0.45849  0.48969  0.43371  1.0000
  H   H973      1.0  0.38540  0.30267  0.50499  1.0000
  H   H974      1.0  0.45878  0.50214  0.23162  1.0000
  S   S229      1.0  0.35342  0.25868  0.03143  1.0000
  H   H975      1.0  0.44210  0.50321  0.27092  1.0000
  H   H976      1.0  0.54616  0.43111  0.50327  1.0000
  N   N59       1.0  0.31313  0.32602  0.26199  1.0000
  C   C603      1.0  0.31410  0.34591  0.27883  1.0000
  C   C604      1.0  0.62474  0.39811  0.91809  1.0000
  S   S230      1.0  0.39429  0.33491  0.57671  1.0000
  H   H977      1.0  0.62453  0.35476  0.96656  1.0000
  H   H978      1.0  0.37436  0.35651  0.63890  1.0000
  H   H979      1.0  0.63813  0.28176  0.93103  1.0000
  Fe  Fe111     1.0  0.47612  0.44107  0.63248  1.0000
  S   S231      1.0  0.47338  0.41153  0.66016  1.0000
  S   S232      1.0  0.48846  0.44894  0.57405  1.0000
  Fe  Fe112     1.0  0.46097  0.46294  0.70403  1.0000
  S   S233      1.0  0.45664  0.43536  0.73803  1.0000
  S   S234      1.0  0.45766  0.49442  0.72293  1.0000
  Fe  Fe113     1.0  0.48519  0.42590  0.71503  1.0000
  S   S235      1.0  0.51070  0.41396  0.74954  1.0000
  Fe  Fe114     1.0  0.44498  0.42350  0.68042  1.0000
  S   S236      1.0  0.41639  0.40888  0.67987  1.0000
  S   S237      1.0  0.49024  0.45428  0.68516  1.0000
  S   S238      1.0  0.44705  0.45213  0.64849  1.0000
  H   H980      1.0  0.38331  0.38570  0.67797  1.0000
  H   H981      1.0  0.54367  0.47676  0.57142  1.0000
  H   H982      1.0  0.44564  0.47295  0.85825  1.0000
  Fe  Fe115     1.0  0.55059  0.44485  0.95455  1.0000
  C   C605      1.0  0.59264  0.45545  0.55153  1.0000
  S   S239      1.0  0.52490  0.45362  0.91677  1.0000
  C   C606      1.0  0.53482  0.40630  0.53259  1.0000
  H   H983      1.0  0.34526  0.41905  0.52643  1.0000
  Fe  Fe116     1.0  0.58214  0.41605  0.97944  1.0000
  H   H984      1.0  0.58957  0.44102  0.54048  1.0000
  H   H985      1.0  0.51039  0.48209  0.77589  1.0000
  S   S240      1.0  0.58130  0.44138  0.93720  1.0000
  N   N60       1.0  0.48318  0.47400  0.99828  1.0000
  H   H986      1.0  0.42675  0.27823  0.55494  1.0000
  C   C607      1.0  0.47933  0.46935  0.95624  1.0000
  H   H987      1.0  0.55926  0.40589  0.60112  1.0000
  C   C608      1.0  0.58452  0.46220  0.58689  1.0000
  C   C609      1.0  0.37434  0.39542  0.55114  1.0000
  H   H988      1.0  0.52570  0.47050  0.81219  1.0000
  Fe  Fe117     1.0  0.36481  0.32255  0.57314  1.0000
  C   C610      1.0  0.51425  0.42415  0.79699  1.0000
  C   C611      1.0  0.49999  0.43554  0.81485  1.0000
  C   C612      1.0  0.50312  0.44370  0.85244  1.0000
  C   C613      1.0  0.52073  0.44105  0.87199  1.0000
  C   C614      1.0  0.53496  0.42950  0.85435  1.0000
  C   C615      1.0  0.53167  0.42097  0.81704  1.0000
  H   H989      1.0  0.48645  0.43789  0.79997  1.0000
  H   H990      1.0  0.49181  0.45215  0.86621  1.0000
  H   H991      1.0  0.54854  0.42727  0.86927  1.0000
  H   H992      1.0  0.54271  0.41201  0.80361  1.0000
  C   C616      1.0  0.50620  0.43242  0.55838  1.0000
  H   H993      1.0  0.56978  0.39745  0.70817  1.0000
  H   H994      1.0  0.53519  0.48780  0.77866  1.0000
  H   H995      1.0  0.57588  0.41919  0.63061  1.0000
  C   C617      1.0  0.52025  0.39975  0.55641  1.0000
  C   C618      1.0  0.50609  0.41284  0.56977  1.0000
  C   C619      1.0  0.50369  0.47103  0.00699  1.0000
  C   C620      1.0  0.62931  0.36611  0.94721  1.0000
  H   H996      1.0  0.52000  0.38450  0.56467  1.0000
  H   H997      1.0  0.49489  0.40766  0.58811  1.0000
  C   C621      1.0  0.44916  0.48506  0.83951  1.0000
  C   C622      1.0  0.45084  0.48219  0.79862  1.0000
  H   H998      1.0  0.51238  0.48051  0.98817  1.0000
  H   H999      1.0  0.62516  0.29697  0.86988  1.0000
  H   H1000     1.0  0.44839  0.46798  0.78612  1.0000
  C   C623      1.0  0.63863  0.44098  0.96777  1.0000
  H   H1001     1.0  0.35559  0.27740  0.66916  1.0000
  C   C624      1.0  0.40035  0.35521  0.60626  1.0000
  C   C625      1.0  0.41807  0.36370  0.60116  1.0000
  C   C626      1.0  0.42326  0.38010  0.62362  1.0000
  C   C627      1.0  0.41073  0.38813  0.65133  1.0000
  C   C628      1.0  0.39299  0.37965  0.65629  1.0000
  C   C629      1.0  0.38784  0.36319  0.63404  1.0000
  H   H1002     1.0  0.42786  0.35756  0.57985  1.0000
  H   H1003     1.0  0.43696  0.38650  0.61964  1.0000
  C   C630      1.0  0.34790  0.26617  0.68397  1.0000
  H   H1004     1.0  0.52279  0.49689  0.52693  1.0000
  H   H1005     1.0  0.50221  0.48746  0.55023  1.0000
  H   H1006     1.0  0.64177  0.45656  0.96226  1.0000
  S   S241      1.0  0.31831  0.29799  0.53792  1.0000
  S   S242      1.0  0.33684  0.32875  0.60302  1.0000
  H   H1007     1.0  0.62717  0.28437  0.82321  1.0000
  H   H1008     1.0  0.62982  0.47890  0.63009  1.0000
  H   H1009     1.0  0.49898  0.48962  0.62287  1.0000
  H   H1010     1.0  0.55055  0.41283  0.72531  1.0000
  S   S243      1.0  0.59772  0.38686  0.97151  1.0000
  C   C631      1.0  0.60884  0.48594  0.54542  1.0000
  C   C632      1.0  0.60043  0.49282  0.58042  1.0000
  C   C633      1.0  0.45201  0.50350  0.85613  1.0000
  H   H1011     1.0  0.44365  0.50055  0.63654  1.0000
  S   S244      1.0  0.57924  0.48811  0.64757  1.0000
  N   N61       1.0  0.51821  0.50047  0.82488  1.0000
  H   H1012     1.0  0.35845  0.36188  0.57054  1.0000
  H   H1013     1.0  0.35041  0.38073  0.60372  1.0000
  H   H1014     1.0  0.64254  0.43255  0.94083  1.0000
  H   H1015     1.0  0.42407  0.30407  0.54587  1.0000
  H   H1016     1.0  0.62743  0.41226  0.01404  1.0000
  H   H1017     1.0  0.37647  0.40122  0.58169  1.0000
  H   H1018     1.0  0.48692  0.47927  0.93627  1.0000
  C   C634      1.0  0.34909  0.37519  0.57285  1.0000
  N   N62       1.0  0.35439  0.39005  0.54383  1.0000
  H   H1019     1.0  0.33415  0.37068  0.56814  1.0000
  H   H1020     1.0  0.62297  0.44021  0.97108  1.0000
  H   H1021     1.0  0.61825  0.49514  0.52932  1.0000
  H   H1022     1.0  0.40432  0.29075  0.56240  1.0000
  H   H1023     1.0  0.46390  0.47095  0.94877  1.0000
  H   H1024     1.0  0.57466  0.39315  0.63547  1.0000
  H   H1025     1.0  0.53155  0.39102  0.63290  1.0000
  S   S245      1.0  0.45057  0.50648  0.90755  1.0000
  C   C635      1.0  0.52047  0.43888  0.53367  1.0000
  H   H1026     1.0  0.48926  0.49162  0.82776  1.0000
  N   N63       1.0  0.52324  0.49863  0.59047  1.0000
  H   H1027     1.0  0.54919  0.44064  0.65524  1.0000
  C   C636      1.0  0.63445  0.28702  0.85210  1.0000
  H   H1028     1.0  0.37884  0.40677  0.53007  1.0000
  C   C637      1.0  0.61847  0.38355  0.94321  1.0000
  S   S246      1.0  0.31618  0.27924  0.64183  1.0000
  H   H1029     1.0  0.52327  0.46742  0.59564  1.0000
  S   S247      1.0  0.55662  0.46546  0.00484  1.0000
  C   C638      1.0  0.60507  0.46719  0.53101  1.0000
  C   C639      1.0  0.64311  0.41316  0.01108  1.0000
  S   S248      1.0  0.36174  0.28988  0.57334  1.0000
  C   C640      1.0  0.51293  0.49908  0.55205  1.0000
  H   H1030     1.0  0.61629  0.41141  0.91418  1.0000
  H   H1031     1.0  0.51678  0.50161  0.65220  1.0000
  H   H1032     1.0  0.50847  0.45566  0.00109  1.0000
  H   H1033     1.0  0.57066  0.42353  0.70271  1.0000
  Fe  Fe118     1.0  0.32435  0.32979  0.54143  1.0000
  C   C641      1.0  0.47747  0.49458  0.00616  1.0000
  H   H1034     1.0  0.52048  0.45396  0.52429  1.0000
  H   H1035     1.0  0.53299  0.42710  0.62505  1.0000
  H   H1036     1.0  0.57522  0.45291  0.60295  1.0000
  H   H1037     1.0  0.48404  0.45414  0.94881  1.0000
  H   H1038     1.0  0.34290  0.41392  0.57819  1.0000
  H   H1039     1.0  0.54710  0.37865  0.66767  1.0000
  C   C642      1.0  0.63355  0.48647  0.65821  1.0000
  Fe  Fe119     1.0  0.33268  0.29636  0.59768  1.0000
  C   C643      1.0  0.53448  0.50266  0.85246  1.0000
  H   H1040     1.0  0.52788  0.39405  0.68482  1.0000
  C   C644      1.0  0.53335  0.47958  0.59553  1.0000
  C   C645      1.0  0.58858  0.48079  0.60166  1.0000
  H   H1041     1.0  0.52894  0.42973  0.67707  1.0000
  C   C646      1.0  0.45527  0.49777  0.77414  1.0000
  C   C647      1.0  0.52256  0.48452  0.79660  1.0000
  H   H1042     1.0  0.50414  0.48344  0.86816  1.0000
  S   S249      1.0  0.55087  0.41816  0.99318  1.0000
  C   C648      1.0  0.53900  0.39255  0.66187  1.0000
  C   C649      1.0  0.41692  0.28982  0.54292  1.0000
  C   C650      1.0  0.56599  0.40683  0.63107  1.0000
  N   N64       1.0  0.55158  0.40946  0.66216  1.0000
  C   C651      1.0  0.54019  0.42755  0.65452  1.0000
  C   C652      1.0  0.56111  0.41088  0.70127  1.0000
  C   C653      1.0  0.64204  0.39546  0.89811  1.0000
  C   C654      1.0  0.53492  0.42590  0.52132  1.0000
  Fe  Fe120     1.0  0.58716  0.45939  0.99160  1.0000
  H   H1043     1.0  0.61091  0.26651  0.89636  1.0000
  S   S250      1.0  0.60964  0.48189  0.99673  1.0000
  N   N65       1.0  0.63901  0.26854  0.87315  1.0000
  H   H1044     1.0  0.38423  0.38253  0.54803  1.0000
  C   C655      1.0  0.32870  0.26360  0.67493  1.0000
  H   H1045     1.0  0.54142  0.47897  0.62404  1.0000
  H   H1046     1.0  0.53801  0.48874  0.86832  1.0000
  H   H1047     1.0  0.62062  0.49486  0.66766  1.0000
  C   C656      1.0  0.50119  0.49579  0.84762  1.0000
  C   C657      1.0  0.50951  0.50145  0.62275  1.0000
  H   H1048     1.0  0.47158  0.41982  0.52094  1.0000
  H   H1049     1.0  0.63663  0.47502  0.68085  1.0000
  H   H1050     1.0  0.48572  0.50479  0.98811  1.0000
  H   H1051     1.0  0.32658  0.40381  0.54276  1.0000
  H   H1052     1.0  0.40937  0.50689  0.62151  1.0000
  H   H1053     1.0  0.46218  0.49749  0.99875  1.0000
  C   C658      1.0  0.34173  0.40750  0.54798  1.0000
  H   H1054     1.0  0.54745  0.50698  0.83663  1.0000
  C   C659      1.0  0.62141  0.25774  0.87895  1.0000
  H   H1055     1.0  0.47593  0.44537  0.01773  1.0000
  S   S251      1.0  0.55305  0.38986  0.51894  1.0000
  Fe  Fe121     1.0  0.45581  0.52145  0.45040  1.0000
  S   S252      1.0  0.44573  0.54640  0.41202  1.0000
  H   H1056     1.0  0.39597  0.59026  0.08741  1.0000
  H   H1057     1.0  0.56905  0.57391  0.04092  1.0000
  H   H1058     1.0  0.49158  0.53784  0.27755  1.0000
  C   C660      1.0  0.38791  0.67724  0.47088  1.0000
  Fe  Fe122     1.0  0.43356  0.55954  0.46777  1.0000
  S   S253      1.0  0.40430  0.57414  0.46877  1.0000
  Fe  Fe123     1.0  0.47282  0.56018  0.43137  1.0000
  S   S254      1.0  0.48980  0.57544  0.38512  1.0000
  H   H1059     1.0  0.40237  0.68310  0.46791  1.0000
  S   S255      1.0  0.48377  0.53439  0.46634  1.0000
  Fe  Fe124     1.0  0.34594  0.64543  0.09127  1.0000
  H   H1060     1.0  0.59684  0.55672  0.06951  1.0000
  S   S256      1.0  0.35566  0.67230  0.06080  1.0000
  Fe  Fe125     1.0  0.59973  0.57362  0.24854  1.0000
  S   S257      1.0  0.59901  0.54126  0.25973  1.0000
  S   S258      1.0  0.61294  0.59308  0.29569  1.0000
  Fe  Fe126     1.0  0.57471  0.57012  0.17486  1.0000
  S   S259      1.0  0.57202  0.53765  0.18014  1.0000
  S   S260      1.0  0.56122  0.58657  0.12373  1.0000
  Fe  Fe127     1.0  0.56794  0.54390  0.24463  1.0000
  S   S261      1.0  0.54751  0.52627  0.27990  1.0000
  Fe  Fe128     1.0  0.60302  0.53778  0.19439  1.0000
  C   C661      1.0  0.34395  0.74243  0.42509  1.0000
  S   S262      1.0  0.56809  0.57648  0.23839  1.0000
  S   S263      1.0  0.60640  0.56990  0.18408  1.0000
  C   C662      1.0  0.34780  0.72437  0.17776  1.0000
  S   S264      1.0  0.49039  0.54326  0.05445  1.0000
  H   H1061     1.0  0.46870  0.53879  0.33214  1.0000
  H   H1062     1.0  0.54248  0.56816  0.38202  1.0000
  H   H1063     1.0  0.60228  0.53191  0.05608  1.0000
  N   N66       1.0  0.57625  0.54363  0.03082  1.0000
  C   C663      1.0  0.50881  0.55682  0.07499  1.0000
  C   C664      1.0  0.51647  0.55137  0.11190  1.0000
  C   C665      1.0  0.53190  0.56126  0.12807  1.0000
  C   C666      1.0  0.53992  0.57644  0.10710  1.0000
  C   C667      1.0  0.53182  0.58237  0.07081  1.0000
  C   C668      1.0  0.51633  0.57249  0.05462  1.0000
  H   H1064     1.0  0.51053  0.53939  0.12789  1.0000
  H   H1065     1.0  0.53765  0.55703  0.15662  1.0000
  H   H1066     1.0  0.53785  0.59427  0.05473  1.0000
  H   H1067     1.0  0.44792  0.52428  0.32940  1.0000
  C   C669      1.0  0.50486  0.56116  0.35489  1.0000
  C   C670      1.0  0.51334  0.56990  0.32244  1.0000
  C   C671      1.0  0.52621  0.55920  0.29893  1.0000
  C   C672      1.0  0.53078  0.53970  0.30788  1.0000
  C   C673      1.0  0.52199  0.53081  0.33981  1.0000
  C   C674      1.0  0.50903  0.54149  0.36324  1.0000
  H   H1068     1.0  0.51002  0.58506  0.31560  1.0000
  H   H1069     1.0  0.53249  0.56603  0.27375  1.0000
  H   H1070     1.0  0.52545  0.51570  0.34687  1.0000
  H   H1071     1.0  0.50255  0.53460  0.38816  1.0000
  H   H1072     1.0  0.56962  0.52176  0.07359  1.0000
  H   H1073     1.0  0.57418  0.59865  0.32192  1.0000
  H   H1074     1.0  0.38780  0.65293  0.40820  1.0000
  H   H1075     1.0  0.44418  0.52380  0.23888  1.0000
  H   H1076     1.0  0.36941  0.74532  0.18979  1.0000
  C   C675      1.0  0.39754  0.58848  0.50999  1.0000
  C   C676      1.0  0.38079  0.61351  0.05650  1.0000
  H   H1077     1.0  0.47297  0.54384  0.24257  1.0000
  H   H1078     1.0  0.58907  0.56559  0.33238  1.0000
  C   C677      1.0  0.39646  0.64800  0.43431  1.0000
  C   C678      1.0  0.36880  0.64870  0.47549  1.0000
  H   H1079     1.0  0.56579  0.55580  0.33304  1.0000
  C   C679      1.0  0.31887  0.72878  0.21503  1.0000
  S   S265      1.0  0.36589  0.61911  0.09670  1.0000
  N   N67       1.0  0.40654  0.66108  0.13005  1.0000
  C   C680      1.0  0.40369  0.68226  0.12286  1.0000
  C   C681      1.0  0.39004  0.65372  0.15128  1.0000
  C   C682      1.0  0.42395  0.65758  0.15424  1.0000
  C   C683      1.0  0.40842  0.65072  0.09185  1.0000
  H   H1080     1.0  0.41594  0.68844  0.10731  1.0000
  H   H1081     1.0  0.40169  0.69052  0.15098  1.0000
  H   H1082     1.0  0.39077  0.68534  0.10429  1.0000
  H   H1083     1.0  0.39151  0.63770  0.15680  1.0000
  H   H1084     1.0  0.38802  0.66122  0.18018  1.0000
  H   H1085     1.0  0.37674  0.65607  0.13369  1.0000
  H   H1086     1.0  0.42300  0.66519  0.18330  1.0000
  H   H1087     1.0  0.43672  0.66288  0.13902  1.0000
  H   H1088     1.0  0.42640  0.64171  0.16018  1.0000
  H   H1089     1.0  0.41040  0.63466  0.09617  1.0000
  H   H1090     1.0  0.42071  0.65581  0.07482  1.0000
  H   H1091     1.0  0.39546  0.65294  0.07297  1.0000
  H   H1092     1.0  0.63437  0.60180  0.22485  1.0000
  H   H1093     1.0  0.48868  0.50905  0.32190  1.0000
  C   C684      1.0  0.32961  0.71838  0.18704  1.0000
  N   N68       1.0  0.46714  0.51992  0.28120  1.0000
  C   C685      1.0  0.39488  0.59868  0.06041  1.0000
  H   H1094     1.0  0.58054  0.60219  0.41139  1.0000
  C   C686      1.0  0.34466  0.75093  0.22537  1.0000
  C   C687      1.0  0.45244  0.51197  0.25445  1.0000
  Fe  Fe129     1.0  0.34423  0.68785  0.11406  1.0000
  C   C688      1.0  0.33915  0.75182  0.07563  1.0000
  H   H1095     1.0  0.54805  0.58828  0.41363  1.0000
  S   S266      1.0  0.45991  0.57550  0.48413  1.0000
  C   C689      1.0  0.34355  0.71550  0.47176  1.0000
  H   H1096     1.0  0.48782  0.52237  0.23543  1.0000
  H   H1097     1.0  0.59132  0.57827  0.41798  1.0000
  C   C690      1.0  0.34075  0.72273  0.43333  1.0000
  C   C691      1.0  0.63033  0.61049  0.28538  1.0000
  H   H1098     1.0  0.55916  0.56465  0.42199  1.0000
  C   C692      1.0  0.56473  0.53656  0.06372  1.0000
  C   C693      1.0  0.63612  0.62332  0.31549  1.0000
  H   H1099     1.0  0.44990  0.54504  0.29763  1.0000
  S   S267      1.0  0.36095  0.71195  0.14140  1.0000
  H   H1100     1.0  0.55102  0.58859  0.32412  1.0000
  H   H1101     1.0  0.51039  0.57681  0.02620  1.0000
  S   S268      1.0  0.33607  0.66099  0.14660  1.0000
  H   H1102     1.0  0.38177  0.68342  0.49849  1.0000
  H   H1103     1.0  0.59737  0.59285  0.37623  1.0000
  N   N69       1.0  0.38835  0.65565  0.47152  1.0000
  H   H1104     1.0  0.60527  0.55099  0.02072  1.0000
  C   C694      1.0  0.45802  0.53256  0.31136  1.0000
  H   H1105     1.0  0.40183  0.63240  0.50516  1.0000
  H   H1106     1.0  0.33613  0.71309  0.40994  1.0000
  H   H1107     1.0  0.41475  0.65449  0.50458  1.0000
  H   H1108     1.0  0.41123  0.65291  0.43035  1.0000
  H   H1109     1.0  0.55724  0.60818  0.35665  1.0000
  H   H1110     1.0  0.58208  0.55102  0.37335  1.0000
  S   S269      1.0  0.33913  0.69097  0.48168  1.0000
  H   H1111     1.0  0.32373  0.70577  0.17253  1.0000
  H   H1112     1.0  0.62967  0.62264  0.34424  1.0000
  C   C695      1.0  0.32640  0.74499  0.23435  1.0000
  C   C696      1.0  0.34960  0.72795  0.50194  1.0000
  H   H1113     1.0  0.36937  0.59450  0.48660  1.0000
  H   H1114     1.0  0.39698  0.63170  0.43402  1.0000
  C   C697      1.0  0.63870  0.61157  0.24827  1.0000
  C   C698      1.0  0.37928  0.59724  0.51062  1.0000
  H   H1115     1.0  0.41846  0.58328  0.03282  1.0000
  H   H1116     1.0  0.34182  0.74796  0.39537  1.0000
  N   N70       1.0  0.56984  0.58019  0.37216  1.0000
  C   C699      1.0  0.57700  0.56237  0.35190  1.0000
  C   C700      1.0  0.56275  0.59453  0.34245  1.0000
  C   C701      1.0  0.58544  0.58875  0.39556  1.0000
  C   C702      1.0  0.55423  0.57512  0.39866  1.0000
  C   C703      1.0  0.35533  0.74066  0.19691  1.0000
  C   C704      1.0  0.40022  0.64860  0.50530  1.0000
  H   H1117     1.0  0.36855  0.63561  0.01798  1.0000
  H   H1118     1.0  0.54943  0.53585  0.05519  1.0000
  H   H1119     1.0  0.36839  0.63252  0.47388  1.0000
  C   C705      1.0  0.35287  0.74761  0.49367  1.0000
  H   H1120     1.0  0.34032  0.73558  0.07404  1.0000
  H   H1121     1.0  0.56575  0.54639  0.08984  1.0000
  Fe  Fe130     1.0  0.32577  0.67474  0.03688  1.0000
  S   S270      1.0  0.44095  0.53295  0.50412  1.0000
  C   C706      1.0  0.40765  0.59473  0.02958  1.0000
  H   H1122     1.0  0.36257  0.65333  0.50419  1.0000
  S   S271      1.0  0.31700  0.64631  0.06243  1.0000
  S   S272      1.0  0.31546  0.69300  0.08724  1.0000
  C   C707      1.0  0.48045  0.53149  0.25812  1.0000
  C   C708      1.0  0.59605  0.54593  0.04482  1.0000
  H   H1123     1.0  0.35919  0.65464  0.45173  1.0000
  H   H1124     1.0  0.37889  0.68306  0.44602  1.0000
  S   S273      1.0  0.62280  0.51447  0.17011  1.0000
  C   C709      1.0  0.35002  0.75487  0.45531  1.0000
  C   C710      1.0  0.37945  0.62429  0.02148  1.0000
  Fe  Fe131     1.0  0.46815  0.54802  0.51695  1.0000
  H   H1125     1.0  0.31936  0.75622  0.14250  1.0000
  H   H1126     1.0  0.35758  0.75720  0.51711  1.0000
  H   H1127     1.0  0.34792  0.75637  0.10155  1.0000
  C   C711      1.0  0.63249  0.50732  0.09353  1.0000
  Fe  Fe132     1.0  0.45743  0.53650  0.92907  1.0000
  S   S274      1.0  0.45204  0.56497  0.89846  1.0000
  H   H1128     1.0  0.42258  0.51370  0.68837  1.0000
  H   H1129     1.0  0.46155  0.52835  0.77193  1.0000
  H   H1130     1.0  0.43924  0.65175  0.85724  1.0000
  S   S275      1.0  0.33174  0.65449  0.56721  1.0000
  Fe  Fe133     1.0  0.44485  0.57738  0.95807  1.0000
  H   H1131     1.0  0.54802  0.51237  0.56829  1.0000
  Fe  Fe134     1.0  0.48206  0.57136  0.91528  1.0000
  S   S276      1.0  0.49765  0.58653  0.86726  1.0000
  Fe  Fe135     1.0  0.31866  0.67160  0.61737  1.0000
  S   S277      1.0  0.48817  0.54167  0.94079  1.0000
  Fe  Fe136     1.0  0.35849  0.65399  0.60431  1.0000
  C   C712      1.0  0.42578  0.52867  0.67805  1.0000
  S   S278      1.0  0.36891  0.68211  0.58006  1.0000
  Fe  Fe137     1.0  0.61206  0.55077  0.69345  1.0000
  S   S279      1.0  0.60278  0.52386  0.72466  1.0000
  H   H1132     1.0  0.43834  0.53340  0.69565  1.0000
  Fe  Fe138     1.0  0.57224  0.56112  0.66458  1.0000
  S   S280      1.0  0.55940  0.53539  0.69395  1.0000
  S   S281      1.0  0.55675  0.58149  0.62262  1.0000
  Fe  Fe139     1.0  0.57840  0.54291  0.74517  1.0000
  S   S282      1.0  0.56999  0.53885  0.80851  1.0000
  H   H1133     1.0  0.64285  0.51675  0.70428  1.0000
  C   C713      1.0  0.41014  0.59175  0.54154  1.0000
  S   S283      1.0  0.58906  0.57039  0.71802  1.0000
  S   S284      1.0  0.59602  0.54361  0.63755  1.0000
  N   N71       1.0  0.31963  0.71709  0.81692  1.0000
  H   H1134     1.0  0.64138  0.66356  0.64751  1.0000
  H   H1135     1.0  0.58448  0.53412  0.97266  1.0000
  C   C714      1.0  0.63400  0.65073  0.65951  1.0000
  C   C715      1.0  0.40635  0.60561  0.99467  1.0000
  H   H1136     1.0  0.41980  0.61481  0.82868  1.0000
  C   C716      1.0  0.49892  0.55710  0.59202  1.0000
  C   C717      1.0  0.50601  0.55607  0.63086  1.0000
  C   C718      1.0  0.52368  0.56382  0.64040  1.0000
  C   C719      1.0  0.53415  0.57289  0.61127  1.0000
  C   C720      1.0  0.45807  0.51625  0.79071  1.0000
  H   H1137     1.0  0.50136  0.51549  0.61947  1.0000
  H   H1138     1.0  0.49796  0.54910  0.65355  1.0000
  H   H1139     1.0  0.52907  0.56308  0.67046  1.0000
  Fe  Fe140     1.0  0.35285  0.69662  0.62940  1.0000
  C   C721      1.0  0.62904  0.63027  0.71627  1.0000
  C   C722      1.0  0.51814  0.57380  0.85135  1.0000
  C   C723      1.0  0.52838  0.56138  0.87714  1.0000
  C   C724      1.0  0.54473  0.55131  0.86404  1.0000
  C   C725      1.0  0.55058  0.55316  0.82485  1.0000
  C   C726      1.0  0.54039  0.56560  0.79904  1.0000
  C   C727      1.0  0.52429  0.57608  0.81244  1.0000
  H   H1140     1.0  0.52389  0.55984  0.90737  1.0000
  H   H1141     1.0  0.55281  0.54194  0.88420  1.0000
  H   H1142     1.0  0.54488  0.56714  0.76878  1.0000
  H   H1143     1.0  0.51645  0.58575  0.79246  1.0000
  C   C728      1.0  0.45815  0.62101  0.88932  1.0000
  C   C729      1.0  0.41283  0.52205  0.61296  1.0000
  H   H1144     1.0  0.42845  0.59930  0.86813  1.0000
  H   H1145     1.0  0.52717  0.52294  0.78554  1.0000
  H   H1146     1.0  0.53017  0.52896  0.58719  1.0000
  H   H1147     1.0  0.45860  0.59336  0.83268  1.0000
  N   N72       1.0  0.44766  0.62152  0.85112  1.0000
  H   H1148     1.0  0.57656  0.56831  0.99161  1.0000
  C   C730      1.0  0.31560  0.70201  0.84657  1.0000
  C   C731      1.0  0.45763  0.60878  0.82229  1.0000
  H   H1149     1.0  0.35969  0.61634  0.54215  1.0000
  C   C732      1.0  0.32793  0.73417  0.83683  1.0000
  C   C733      1.0  0.34148  0.71311  0.98763  1.0000
  S   S285      1.0  0.38046  0.62932  0.61210  1.0000
  H   H1150     1.0  0.49616  0.50840  0.86591  1.0000
  H   H1151     1.0  0.45024  0.60888  0.79300  1.0000
  H   H1152     1.0  0.50227  0.51767  0.78211  1.0000
  H   H1153     1.0  0.33201  0.74542  0.81511  1.0000
  H   H1154     1.0  0.32601  0.72583  0.66538  1.0000
  H   H1155     1.0  0.36298  0.73458  0.99467  1.0000
  H   H1156     1.0  0.51133  0.53127  0.82335  1.0000
  H   H1157     1.0  0.45096  0.63028  0.91202  1.0000
  C   C734      1.0  0.63905  0.57978  0.75899  1.0000
  C   C735      1.0  0.45658  0.51908  0.83169  1.0000
  H   H1158     1.0  0.56103  0.52739  0.98671  1.0000
  H   H1159     1.0  0.45903  0.53328  0.84430  1.0000
  C   C736      1.0  0.33978  0.74522  0.95775  1.0000
  H   H1160     1.0  0.34912  0.70241  0.00545  1.0000
  H   H1161     1.0  0.34090  0.73000  0.85445  1.0000
  C   C737      1.0  0.35967  0.74910  0.71929  1.0000
  H   H1162     1.0  0.63252  0.52422  0.63575  1.0000
  H   H1163     1.0  0.42038  0.62363  0.87890  1.0000
  C   C738      1.0  0.39222  0.62039  0.99076  1.0000
  C   C739      1.0  0.53718  0.51437  0.59166  1.0000
  C   C740      1.0  0.32213  0.74100  0.94077  1.0000
  H   H1164     1.0  0.35182  0.72245  0.53166  1.0000
  H   H1165     1.0  0.32861  0.69739  0.86360  1.0000
  C   C741      1.0  0.44667  0.64177  0.83612  1.0000
  S   S286      1.0  0.42224  0.60154  0.95548  1.0000
  H   H1166     1.0  0.61844  0.65344  0.65516  1.0000
  C   C742      1.0  0.37378  0.60963  0.54196  1.0000
  H   H1167     1.0  0.50517  0.51333  0.54747  1.0000
  H   H1168     1.0  0.63186  0.62796  0.74843  1.0000
  C   C743      1.0  0.34936  0.73131  0.98136  1.0000
  H   H1169     1.0  0.40009  0.53162  0.61843  1.0000
  H   H1170     1.0  0.41445  0.60662  0.59720  1.0000
  H   H1171     1.0  0.44654  0.55452  0.63835  1.0000
  H   H1172     1.0  0.33669  0.72006  0.76523  1.0000
  H   H1173     1.0  0.42161  0.55936  0.62891  1.0000
  H   H1174     1.0  0.34680  0.70409  0.80223  1.0000
  N   N73       1.0  0.63896  0.64751  0.70165  1.0000
  S   S287      1.0  0.36689  0.71977  0.66612  1.0000
  H   H1175     1.0  0.61757  0.66802  0.72217  1.0000
  Fe  Fe141     1.0  0.34122  0.68372  0.54661  1.0000
  H   H1176     1.0  0.46113  0.64744  0.83157  1.0000
  H   H1177     1.0  0.47299  0.62590  0.88620  1.0000
  H   H1178     1.0  0.64061  0.67813  0.71535  1.0000
  H   H1179     1.0  0.43885  0.64272  0.80730  1.0000
  H   H1180     1.0  0.61337  0.63192  0.71213  1.0000
  S   S288      1.0  0.47777  0.54550  0.58031  1.0000
  C   C744      1.0  0.44614  0.51580  0.62696  1.0000
  H   H1181     1.0  0.45912  0.60598  0.90146  1.0000
  H   H1182     1.0  0.50370  0.56729  0.53289  1.0000
  C   C745      1.0  0.50920  0.56642  0.56291  1.0000
  H   H1183     1.0  0.63374  0.61665  0.70071  1.0000
  C   C746      1.0  0.43369  0.54901  0.62282  1.0000
  C   C747      1.0  0.64460  0.51503  0.62483  1.0000
  C   C748      1.0  0.35184  0.73607  0.69191  1.0000
  H   H1184     1.0  0.53484  0.58159  0.55015  1.0000
  S   S289      1.0  0.31430  0.68589  0.97859  1.0000
  S   S290      1.0  0.32605  0.70092  0.59347  1.0000
  C   C749      1.0  0.33215  0.73596  0.68614  1.0000
  H   H1185     1.0  0.43648  0.54974  0.59054  1.0000
  S   S291      1.0  0.34451  0.66844  0.65682  1.0000
  C   C750      1.0  0.52677  0.57449  0.57266  1.0000
  H   H1186     1.0  0.32731  0.69630  0.77159  1.0000
  S   S292      1.0  0.44703  0.54793  0.98726  1.0000
  S   S293      1.0  0.47479  0.58532  0.97344  1.0000
  C   C751      1.0  0.32406  0.70867  0.97011  1.0000
  H   H1187     1.0  0.47249  0.61339  0.81785  1.0000
  H   H1188     1.0  0.63646  0.66274  0.75706  1.0000
  H   H1189     1.0  0.31761  0.74133  0.85710  1.0000
  C   C752      1.0  0.38650  0.61321  0.57310  1.0000
  C   C753      1.0  0.40457  0.60397  0.57310  1.0000
  S   S294      1.0  0.64280  0.55926  0.68932  1.0000
  H   H1190     1.0  0.39108  0.62878  0.96375  1.0000
  Fe  Fe142     1.0  0.47770  0.55477  0.99753  1.0000
  H   H1191     1.0  0.42424  0.58506  0.54140  1.0000
  H   H1192     1.0  0.63613  0.59615  0.81315  1.0000
  H   H1193     1.0  0.62629  0.57171  0.76345  1.0000
  C   C754      1.0  0.42822  0.61455  0.85678  1.0000
  Fe  Fe143     1.0  0.58460  0.51848  0.67091  1.0000
  H   H1194     1.0  0.55333  0.56175  0.00729  1.0000
  H   H1195     1.0  0.64036  0.50900  0.59549  1.0000
  C   C755      1.0  0.31428  0.72266  0.94684  1.0000
  C   C756      1.0  0.51458  0.51888  0.80294  1.0000
  H   H1196     1.0  0.39389  0.65288  0.53417  1.0000
  H   H1197     1.0  0.53132  0.51395  0.87526  1.0000
  H   H1198     1.0  0.45911  0.52065  0.64301  1.0000
  C   C757      1.0  0.32037  0.74886  0.70758  1.0000
  C   C758      1.0  0.57579  0.52938  0.99793  1.0000
  N   N74       1.0  0.42961  0.52889  0.63520  1.0000
  H   H1199     1.0  0.54495  0.51471  0.62054  1.0000
  C   C759      1.0  0.63312  0.66489  0.72501  1.0000
  H   H1200     1.0  0.44943  0.51547  0.59487  1.0000
  C   C760      1.0  0.64472  0.59357  0.78729  1.0000
  H   H1201     1.0  0.41352  0.53850  0.68562  1.0000
  H   H1202     1.0  0.31434  0.75204  0.92396  1.0000
  C   C761      1.0  0.33320  0.70900  0.78779  1.0000
  H   H1203     1.0  0.41532  0.52208  0.58050  1.0000
  H   H1204     1.0  0.63811  0.63778  0.64122  1.0000
  C   C762      1.0  0.56845  0.56272  0.01698  1.0000
  H   H1205     1.0  0.37491  0.74924  0.72376  1.0000
  H   H1206     1.0  0.58154  0.51479  0.00738  1.0000
  H   H1207     1.0  0.60337  0.50728  0.59122  1.0000
  Fe  Fe144     1.0  0.45377  0.95483  0.18374  1.0000
  S   S295      1.0  0.44392  0.92820  0.15175  1.0000
  S   S296      1.0  0.45899  0.98488  0.15861  1.0000
  Fe  Fe145     1.0  0.46377  0.93180  0.25822  1.0000
  S   S297      1.0  0.45564  0.90300  0.23225  1.0000
  S   S298      1.0  0.47359  0.93522  0.32143  1.0000
  Fe  Fe146     1.0  0.46990  0.91336  0.17765  1.0000
  S   S299      1.0  0.48528  0.89370  0.13471  1.0000
  Fe  Fe147     1.0  0.43005  0.91954  0.20852  1.0000
  S   S300      1.0  0.40107  0.90555  0.20509  1.0000
  S   S301      1.0  0.48084  0.94049  0.20607  1.0000
  S   S302      1.0  0.43719  0.94800  0.23826  1.0000
  Fe  Fe148     1.0  0.35164  0.81656  0.31936  1.0000
  S   S303      1.0  0.37950  0.83162  0.30792  1.0000
  S   S304      1.0  0.35621  0.78410  0.32904  1.0000
  Fe  Fe149     1.0  0.56605  0.91410  0.41653  1.0000
  S   S305      1.0  0.55876  0.94520  0.43073  1.0000
  S   S306      1.0  0.55597  0.90195  0.35839  1.0000
  Fe  Fe150     1.0  0.58989  0.90804  0.49107  1.0000
  H   H1208     1.0  0.62529  0.94668  0.09355  1.0000
  N   N75       1.0  0.48473  0.96867  0.45370  1.0000
  H   H1209     1.0  0.55447  0.93581  0.30744  1.0000
  C   C763      1.0  0.58362  0.00549  0.50849  1.0000
  Fe  Fe151     1.0  0.58930  0.94726  0.44830  1.0000
  S   S307      1.0  0.60079  0.97635  0.43139  1.0000
  S   S308      1.0  0.55884  0.90361  0.47694  1.0000
  S   S309      1.0  0.59724  0.91669  0.42897  1.0000
  C   C764      1.0  0.64067  0.85904  0.04387  1.0000
  C   C765      1.0  0.60553  0.96711  0.31357  1.0000
  C   C766      1.0  0.60471  0.96410  0.35453  1.0000
  C   C767      1.0  0.60152  0.97993  0.37996  1.0000
  H   H1210     1.0  0.39524  0.79369  0.41578  1.0000
  H   H1211     1.0  0.60828  0.95481  0.29414  1.0000
  H   H1212     1.0  0.60690  0.94957  0.36650  1.0000
  H   H1213     1.0  0.37535  0.84337  0.39385  1.0000
  C   C768      1.0  0.50788  0.90231  0.12413  1.0000
  C   C769      1.0  0.51768  0.91343  0.15205  1.0000
  C   C770      1.0  0.53522  0.92123  0.14268  1.0000
  H   H1214     1.0  0.63269  0.78331  0.13841  1.0000
  C   C771      1.0  0.56002  0.95082  0.30645  1.0000
  C   C772      1.0  0.44076  0.84879  0.11096  1.0000
  H   H1215     1.0  0.51190  0.91572  0.18113  1.0000
  H   H1216     1.0  0.54273  0.92982  0.16441  1.0000
  C   C773      1.0  0.48407  0.96855  0.49736  1.0000
  H   H1217     1.0  0.52541  0.95123  0.33773  1.0000
  C   C774      1.0  0.49536  0.92317  0.33179  1.0000
  C   C775      1.0  0.50217  0.92254  0.37084  1.0000
  C   C776      1.0  0.52065  0.91549  0.37935  1.0000
  C   C777      1.0  0.53213  0.90847  0.34883  1.0000
  C   C778      1.0  0.52492  0.90799  0.30999  1.0000
  C   C779      1.0  0.50656  0.91547  0.30140  1.0000
  H   H1218     1.0  0.49320  0.92762  0.39444  1.0000
  H   H1219     1.0  0.52602  0.91546  0.40949  1.0000
  H   H1220     1.0  0.53374  0.90235  0.28640  1.0000
  H   H1221     1.0  0.50123  0.91559  0.27124  1.0000
  C   C780      1.0  0.38462  0.85272  0.28012  1.0000
  C   C781      1.0  0.37141  0.86169  0.25421  1.0000
  C   C782      1.0  0.37655  0.87802  0.23179  1.0000
  C   C783      1.0  0.39483  0.88566  0.23540  1.0000
  C   C784      1.0  0.40792  0.87681  0.26173  1.0000
  C   C785      1.0  0.40289  0.86036  0.28366  1.0000
  H   H1222     1.0  0.35731  0.85596  0.25116  1.0000
  H   H1223     1.0  0.36630  0.88477  0.21157  1.0000
  H   H1224     1.0  0.42195  0.88260  0.26522  1.0000
  H   H1225     1.0  0.41322  0.85355  0.30360  1.0000
  H   H1226     1.0  0.61997  0.88228  0.03196  1.0000
  C   C786      1.0  0.44177  0.97701  0.08643  1.0000
  H   H1227     1.0  0.60647  0.97706  0.07859  1.0000
  H   H1228     1.0  0.54168  0.99668  0.29114  1.0000
  S   S310      1.0  0.58495  0.93909  0.51185  1.0000
  H   H1229     1.0  0.43786  0.96320  0.09880  1.0000
  S   S311      1.0  0.33887  0.82214  0.37912  1.0000
  H   H1230     1.0  0.53940  0.90405  0.04864  1.0000
  Fe  Fe152     1.0  0.32660  0.78124  0.30450  1.0000
  H   H1231     1.0  0.36551  0.82227  0.44910  1.0000
  H   H1232     1.0  0.42224  0.88138  0.08598  1.0000
  S   S312      1.0  0.35373  0.77962  0.44594  1.0000
  H   H1233     1.0  0.48212  0.98951  0.40632  1.0000
  C   C787      1.0  0.55286  0.98508  0.29579  1.0000
  H   H1234     1.0  0.32663  0.78621  0.10510  1.0000
  N   N76       1.0  0.50169  0.96163  0.05049  1.0000
  H   H1235     1.0  0.56120  0.98899  0.32275  1.0000
  H   H1236     1.0  0.40275  0.85448  0.11198  1.0000
  H   H1237     1.0  0.45413  0.86994  0.17166  1.0000
  H   H1238     1.0  0.58878  0.99025  0.51476  1.0000
  C   C788      1.0  0.53337  0.90668  0.07747  1.0000
  C   C789      1.0  0.59698  0.97344  0.10336  1.0000
  H   H1239     1.0  0.60383  0.93463  0.10498  1.0000
  H   H1240     1.0  0.44014  0.85057  0.19050  1.0000
  H   H1241     1.0  0.62290  0.93486  0.14062  1.0000
  C   C790      1.0  0.61521  0.94379  0.11773  1.0000
  H   H1242     1.0  0.51058  0.93289  0.03124  1.0000
  H   H1243     1.0  0.58272  0.94776  0.15602  1.0000
  H   H1244     1.0  0.42084  0.89313  0.13332  1.0000
  H   H1245     1.0  0.49239  0.99875  0.45120  1.0000
  N   N77       1.0  0.31916  0.75874  0.07912  1.0000
  H   H1246     1.0  0.59082  0.98742  0.11501  1.0000
  H   H1247     1.0  0.41716  0.81096  0.46141  1.0000
  H   H1248     1.0  0.52756  0.94612  0.26533  1.0000
  N   N78       1.0  0.54461  0.96561  0.29974  1.0000
  C   C791      1.0  0.53397  0.96075  0.26318  1.0000
  H   H1249     1.0  0.52216  0.97154  0.25724  1.0000
  C   C792      1.0  0.42912  0.88216  0.11573  1.0000
  H   H1250     1.0  0.54339  0.96043  0.23705  1.0000
  H   H1251     1.0  0.52964  0.95447  0.07371  1.0000
  H   H1252     1.0  0.58676  0.97110  0.17785  1.0000
  H   H1253     1.0  0.44364  0.88789  0.11190  1.0000
  H   H1254     1.0  0.47713  0.95005  0.07833  1.0000
  H   H1255     1.0  0.63110  0.96560  0.17435  1.0000
  H   H1256     1.0  0.47637  0.97507  0.02511  1.0000
  C   C793      1.0  0.51584  0.89875  0.08698  1.0000
  H   H1257     1.0  0.51970  0.97660  0.32946  1.0000
  C   C794      1.0  0.60263  0.98585  0.29772  1.0000
  H   H1258     1.0  0.56760  0.95325  0.33508  1.0000
  H   H1259     1.0  0.50665  0.94618  0.45200  1.0000
  N   N79       1.0  0.60727  0.96215  0.13461  1.0000
  C   C795      1.0  0.62292  0.97377  0.15098  1.0000
  C   C796      1.0  0.59888  0.99876  0.36420  1.0000
  H   H1260     1.0  0.43148  0.87533  0.19352  1.0000
  H   H1261     1.0  0.50833  0.89009  0.06534  1.0000
  Fe  Fe153     1.0  0.57314  0.92676  0.03045  1.0000
  S   S313      1.0  0.60255  0.98871  0.24603  1.0000
  C   C797      1.0  0.59399  0.95761  0.16652  1.0000
  H   H1262     1.0  0.40245  0.80907  0.37564  1.0000
  H   H1263     1.0  0.49949  0.94143  0.09867  1.0000
  H   H1264     1.0  0.42426  0.82627  0.42149  1.0000
  H   H1265     1.0  0.56243  0.99621  0.44548  1.0000
  S   S314      1.0  0.56445  0.92891  0.09390  1.0000
  N   N80       1.0  0.42988  0.86293  0.13545  1.0000
  C   C798      1.0  0.54301  0.91799  0.10534  1.0000
  H   H1266     1.0  0.37797  0.80744  0.38748  1.0000
  C   C799      1.0  0.59921  0.00170  0.32307  1.0000
  C   C800      1.0  0.41359  0.82472  0.44514  1.0000
  C   C801      1.0  0.43627  0.98188  0.04742  1.0000
  H   H1267     1.0  0.47011  0.97418  0.50816  1.0000
  H   H1268     1.0  0.45557  0.85365  0.10662  1.0000
  H   H1269     1.0  0.41032  0.84186  0.15642  1.0000
  N   N81       1.0  0.39409  0.82455  0.42840  1.0000
  C   C802      1.0  0.39246  0.80794  0.40068  1.0000
  C   C803      1.0  0.38039  0.82246  0.46070  1.0000
  H   H1270     1.0  0.42820  0.97172  0.02986  1.0000
  H   H1271     1.0  0.53925  0.96950  0.36168  1.0000
  H   H1272     1.0  0.63266  0.85299  0.06770  1.0000
  H   H1273     1.0  0.39105  0.85593  0.42690  1.0000
  H   H1274     1.0  0.60149  0.95041  0.19201  1.0000
  H   H1275     1.0  0.39986  0.84496  0.38210  1.0000
  C   C804      1.0  0.46979  0.95608  0.43744  1.0000
  C   C805      1.0  0.31825  0.78033  0.07982  1.0000
  H   H1276     1.0  0.63300  0.97793  0.12764  1.0000
  C   C806      1.0  0.63343  0.87565  0.02360  1.0000
  H   H1277     1.0  0.56270  0.98555  0.27039  1.0000
  Fe  Fe154     1.0  0.55466  0.93525  0.49293  1.0000
  C   C807      1.0  0.45188  0.99026  0.10953  1.0000
  C   C808      1.0  0.53165  0.96578  0.33367  1.0000
  H   H1278     1.0  0.54037  0.99403  0.47090  1.0000
  C   C809      1.0  0.50260  0.94607  0.02012  1.0000
  C   C810      1.0  0.38994  0.84303  0.40704  1.0000
  Fe  Fe155     1.0  0.34232  0.78984  0.38708  1.0000
  C   C811      1.0  0.43936  0.86473  0.17448  1.0000
  H   H1279     1.0  0.44170  0.83412  0.12506  1.0000
  H   H1280     1.0  0.47179  0.94074  0.44787  1.0000
  C   C812      1.0  0.41035  0.85615  0.14082  1.0000
  H   H1281     1.0  0.58496  0.96513  0.09069  1.0000
  H   H1282     1.0  0.40182  0.86674  0.15891  1.0000
  H   H1283     1.0  0.57071  0.95104  0.28259  1.0000
  C   C813      1.0  0.49189  0.95441  0.08570  1.0000
  H   H1284     1.0  0.43408  0.84709  0.08116  1.0000
  H   H1285     1.0  0.38290  0.80849  0.47703  1.0000
  H   H1286     1.0  0.32399  0.78653  0.05214  1.0000
  H   H1287     1.0  0.49524  0.97779  0.51069  1.0000
  H   H1288     1.0  0.46734  0.99484  0.44804  1.0000
  H   H1289     1.0  0.52115  0.97876  0.08490  1.0000
  C   C814      1.0  0.55607  0.99311  0.47468  1.0000
  H   H1290     1.0  0.51511  0.97053  0.45262  1.0000
  H   H1291     1.0  0.52903  0.97276  0.03595  1.0000
  S   S315      1.0  0.32294  0.81309  0.28947  1.0000
  C   C815      1.0  0.50358  0.96127  0.44093  1.0000
  C   C816      1.0  0.48150  0.98883  0.43915  1.0000
  H   H1292     1.0  0.49085  0.96577  0.10924  1.0000
  H   H1293     1.0  0.50457  0.96101  0.40816  1.0000
  C   C817      1.0  0.64328  0.79410  0.14837  1.0000
  H   H1294     1.0  0.48980  0.99071  0.05670  1.0000
  H   H1295     1.0  0.41533  0.83707  0.46624  1.0000
  H   H1296     1.0  0.46985  0.95577  0.40446  1.0000
  H   H1297     1.0  0.35052  0.76347  0.24019  1.0000
  H   H1298     1.0  0.38124  0.83465  0.48239  1.0000
  H   H1299     1.0  0.56013  0.97780  0.48261  1.0000
  H   H1300     1.0  0.48643  0.95352  0.50932  1.0000
  C   C818      1.0  0.52119  0.96718  0.06176  1.0000
  S   S316      1.0  0.31337  0.78366  0.36405  1.0000
  S   S317      1.0  0.31247  0.75762  0.26911  1.0000
  H   H1301     1.0  0.64250  0.80654  0.12708  1.0000
  H   H1302     1.0  0.45540  0.96131  0.44664  1.0000
  H   H1303     1.0  0.61745  0.98742  0.16510  1.0000
  C   C819      1.0  0.49107  0.97882  0.03434  1.0000
  C   C820      1.0  0.44093  0.99994  0.03129  1.0000
  H   H1304     1.0  0.63878  0.79985  0.17768  1.0000
  H   H1305     1.0  0.64455  0.81606  0.47529  1.0000
  H   H1306     1.0  0.63959  0.84855  0.44503  1.0000
  N   N82       1.0  0.56266  0.00679  0.50541  1.0000
  H   H1307     1.0  0.34572  0.75766  0.04849  1.0000
  Fe  Fe156     1.0  0.44868  0.95489  0.70913  1.0000
  S   S318      1.0  0.44268  0.92817  0.67296  1.0000
  S   S319      1.0  0.44560  0.98697  0.69473  1.0000
  Fe  Fe157     1.0  0.46373  0.93135  0.77934  1.0000
  S   S320      1.0  0.45921  0.90239  0.74991  1.0000
  S   S321      1.0  0.47623  0.93945  0.83849  1.0000
  Fe  Fe158     1.0  0.47088  0.91689  0.69611  1.0000
  S   S322      1.0  0.49315  0.90157  0.65937  1.0000
  Fe  Fe159     1.0  0.43121  0.91580  0.72928  1.0000
  S   S323      1.0  0.40292  0.90089  0.72515  1.0000
  S   S324      1.0  0.47785  0.94457  0.72758  1.0000
  S   S325      1.0  0.43481  0.94367  0.76336  1.0000
  Fe  Fe160     1.0  0.35186  0.82154  0.85342  1.0000
  S   S326      1.0  0.37655  0.84202  0.85687  1.0000
  S   S327      1.0  0.35454  0.78900  0.84394  1.0000
  Fe  Fe161     1.0  0.56515  0.91204  0.94717  1.0000
  S   S328      1.0  0.55365  0.93745  0.98219  1.0000
  S   S329      1.0  0.54870  0.89308  0.90511  1.0000
  Fe  Fe162     1.0  0.60555  0.91758  0.97536  1.0000
  H   H1308     1.0  0.61274  0.89368  0.89754  1.0000
  H   H1309     1.0  0.60109  0.84778  0.94919  1.0000
  C   C821      1.0  0.32960  0.87369  0.84693  1.0000
  H   H1310     1.0  0.32771  0.88359  0.82106  1.0000
  Fe  Fe163     1.0  0.57887  0.95329  0.96020  1.0000
  S   S330      1.0  0.57011  0.98363  0.93938  1.0000
  S   S331      1.0  0.58215  0.89948  0.99827  1.0000
  S   S332      1.0  0.58902  0.92850  0.92184  1.0000
  H   H1311     1.0  0.34093  0.86273  0.83931  1.0000
  C   C822      1.0  0.63982  0.89312  0.54291  1.0000
  H   H1312     1.0  0.35685  0.90322  0.90363  1.0000
  H   H1313     1.0  0.46163  0.00173  0.80012  1.0000
  C   C823      1.0  0.52638  0.91802  0.56959  1.0000
  H   H1314     1.0  0.58057  0.85372  0.86963  1.0000
  H   H1315     1.0  0.32419  0.86216  0.92109  1.0000
  S   S333      1.0  0.53123  0.95128  0.52596  1.0000
  C   C824      1.0  0.50322  0.91552  0.62190  1.0000
  C   C825      1.0  0.49763  0.93507  0.61580  1.0000
  C   C826      1.0  0.50638  0.94603  0.58647  1.0000
  H   H1316     1.0  0.55396  0.89249  0.72772  1.0000
  H   H1317     1.0  0.53747  0.91132  0.55195  1.0000
  H   H1318     1.0  0.35404  0.77174  0.76234  1.0000
  H   H1319     1.0  0.48651  0.94170  0.63352  1.0000
  H   H1320     1.0  0.50199  0.96112  0.58186  1.0000
  S   S334      1.0  0.33885  0.81860  0.91310  1.0000
  C   C827      1.0  0.52071  0.93749  0.56317  1.0000
  C   C828      1.0  0.49645  0.92623  0.85526  1.0000
  C   C829      1.0  0.51003  0.93595  0.87788  1.0000
  C   C830      1.0  0.52625  0.92586  0.89228  1.0000
  C   C831      1.0  0.52870  0.90583  0.88542  1.0000
  C   C832      1.0  0.51518  0.89607  0.86247  1.0000
  C   C833      1.0  0.49911  0.90631  0.84704  1.0000
  H   H1321     1.0  0.50814  0.95140  0.88392  1.0000
  H   H1322     1.0  0.53693  0.93370  0.90838  1.0000
  H   H1323     1.0  0.51698  0.88055  0.85707  1.0000
  H   H1324     1.0  0.48853  0.89871  0.82987  1.0000
  C   C834      1.0  0.38403  0.85750  0.81882  1.0000
  C   C835      1.0  0.37352  0.86011  0.78373  1.0000
  C   C836      1.0  0.37950  0.87344  0.75519  1.0000
  C   C837      1.0  0.39608  0.88405  0.76133  1.0000
  C   C838      1.0  0.40661  0.88134  0.79635  1.0000
  C   C839      1.0  0.40052  0.86819  0.82505  1.0000
  H   H1325     1.0  0.36084  0.85190  0.77854  1.0000
  H   H1326     1.0  0.37134  0.87547  0.72807  1.0000
  H   H1327     1.0  0.41939  0.88944  0.80135  1.0000
  H   H1328     1.0  0.40870  0.86625  0.85216  1.0000
  C   C840      1.0  0.44296  0.98275  0.57505  1.0000
  C   C841      1.0  0.44364  0.97785  0.61535  1.0000
  C   C842      1.0  0.44435  0.99254  0.64407  1.0000
  H   H1329     1.0  0.50342  0.90639  0.74561  1.0000
  H   H1330     1.0  0.42115  0.97173  0.83053  1.0000
  H   H1331     1.0  0.44342  0.96272  0.62410  1.0000
  C   C843      1.0  0.55442  0.00149  0.54375  1.0000
  H   H1332     1.0  0.31684  0.90940  0.86783  1.0000
  C   C844      1.0  0.32818  0.76169  0.73543  1.0000
  Fe  Fe164     1.0  0.32514  0.79212  0.81709  1.0000
  S   S335      1.0  0.59786  0.94430  0.01146  1.0000
  H   H1333     1.0  0.53861  0.00208  0.54226  1.0000
  H   H1334     1.0  0.62961  0.84235  0.90855  1.0000
  H   H1335     1.0  0.34913  0.85996  0.91080  1.0000
  C   C845      1.0  0.43259  0.97329  0.85330  1.0000
  H   H1336     1.0  0.44148  0.95961  0.85285  1.0000
  S   S336      1.0  0.60310  0.88200  0.52408  1.0000
  C   C846      1.0  0.53031  0.92900  0.77628  1.0000
  H   H1337     1.0  0.56334  0.91450  0.74831  1.0000
  H   H1338     1.0  0.31614  0.86575  0.85059  1.0000
  H   H1339     1.0  0.32261  0.90728  0.91966  1.0000
  H   H1340     1.0  0.58428  0.86720  0.93696  1.0000
  H   H1341     1.0  0.46240  0.97561  0.80470  1.0000
  H   H1342     1.0  0.51761  0.93059  0.70080  1.0000
  C   C847      1.0  0.62614  0.87877  0.54488  1.0000
  H   H1343     1.0  0.48815  0.94141  0.01106  1.0000
  S   S337      1.0  0.34978  0.76808  0.95227  1.0000
  C   C848      1.0  0.55164  0.90399  0.75063  1.0000
  C   C849      1.0  0.62722  0.85720  0.89581  1.0000
  H   H1344     1.0  0.44205  0.98775  0.78245  1.0000
  C   C850      1.0  0.59601  0.84954  0.87029  1.0000
  Fe  Fe165     1.0  0.33922  0.78659  0.90137  1.0000
  H   H1345     1.0  0.35136  0.90498  0.85152  1.0000
  N   N83       1.0  0.53286  0.91390  0.74535  1.0000
  H   H1346     1.0  0.60105  0.84953  0.83926  1.0000
  S   S338      1.0  0.63507  0.90436  0.96612  1.0000
  H   H1347     1.0  0.58936  0.88822  0.87954  1.0000
  H   H1348     1.0  0.51855  0.89172  0.77749  1.0000
  H   H1349     1.0  0.54280  0.93418  0.70223  1.0000
  H   H1350     1.0  0.63316  0.85718  0.86552  1.0000
  H   H1351     1.0  0.63178  0.00396  0.88949  1.0000
  H   H1352     1.0  0.62044  0.84965  0.56454  1.0000
  H   H1353     1.0  0.50987  0.95101  0.99306  1.0000
  H   H1354     1.0  0.53347  0.91212  0.68189  1.0000
  H   H1355     1.0  0.49815  0.98484  0.00802  1.0000
  H   H1356     1.0  0.36451  0.88421  0.87047  1.0000
  H   H1357     1.0  0.60754  0.87266  0.95577  1.0000
  N   N84       1.0  0.33469  0.88451  0.88321  1.0000
  H   H1358     1.0  0.63573  0.86745  0.91407  1.0000
  C   C851      1.0  0.63098  0.86078  0.56274  1.0000
  C   C852      1.0  0.44377  0.00231  0.56339  1.0000
  H   H1359     1.0  0.42580  0.97421  0.88280  1.0000
  C   C853      1.0  0.60453  0.88312  0.87950  1.0000
  C   C854      1.0  0.60490  0.99410  0.91056  1.0000
  H   H1360     1.0  0.51589  0.93609  0.77449  1.0000
  C   C855      1.0  0.33725  0.87065  0.91642  1.0000
  N   N85       1.0  0.44405  0.99059  0.84576  1.0000
  H   H1361     1.0  0.61123  0.98279  0.92923  1.0000
  C   C856      1.0  0.45293  0.98885  0.80654  1.0000
  H   H1362     1.0  0.44206  0.97132  0.55303  1.0000
  H   H1363     1.0  0.53197  0.92262  0.80635  1.0000
  N   N86       1.0  0.60685  0.86310  0.89539  1.0000
  C   C857      1.0  0.34786  0.76182  0.74120  1.0000
  C   C858      1.0  0.51783  0.89939  0.74857  1.0000
  C   C859      1.0  0.35260  0.89475  0.87700  1.0000
  H   H1364     1.0  0.52206  0.89199  0.60354  1.0000
  H   H1365     1.0  0.60968  0.88404  0.84867  1.0000
  C   C860      1.0  0.53169  0.92315  0.70593  1.0000
  C   C861      1.0  0.51764  0.90708  0.59885  1.0000
  H   H1366     1.0  0.55298  0.89686  0.78015  1.0000
  H   H1367     1.0  0.51891  0.88812  0.72482  1.0000
  H   H1368     1.0  0.34065  0.87830  0.94458  1.0000
  C   C862      1.0  0.59959  0.86263  0.93610  1.0000
  C   C863      1.0  0.45901  0.99203  0.87669  1.0000
  H   H1369     1.0  0.54092  0.94064  0.77381  1.0000
  S   S339      1.0  0.32355  0.82492  0.82203  1.0000
  H   H1370     1.0  0.46859  0.97880  0.87690  1.0000
  H   H1371     1.0  0.45278  0.99352  0.90668  1.0000
  H   H1372     1.0  0.55878  0.98630  0.55248  1.0000
  C   C864      1.0  0.58518  0.99704  0.90932  1.0000
  H   H1373     1.0  0.59739  0.83429  0.88151  1.0000
  H   H1374     1.0  0.63625  0.90702  0.52921  1.0000
  H   H1375     1.0  0.46793  0.00495  0.87194  1.0000
  C   C865      1.0  0.31927  0.89881  0.89243  1.0000
  C   C866      1.0  0.64377  0.88374  0.99301  1.0000
  C   C867      1.0  0.61651  0.00615  0.88821  1.0000
  S   S340      1.0  0.43391  0.00584  0.98242  1.0000
  S   S341      1.0  0.31289  0.77666  0.76380  1.0000
  H   H1376     1.0  0.48385  0.00655  0.71774  1.0000
  H   H1377     1.0  0.31329  0.75763  0.01670  1.0000
  C   C868      1.0  0.74392  0.13959  0.51117  1.0000
  C   C869      1.0  0.82481  0.25359  0.48919  1.0000
  H   H1378     1.0  0.74432  0.19116  0.51587  1.0000
  Fe  Fe166     1.0  0.69285  0.17044  0.06322  1.0000
  H   H1379     1.0  0.74370  0.22838  0.47357  1.0000
  S   S342      1.0  0.69759  0.17876  0.12703  1.0000
  C   C870      1.0  0.94286  0.13841  0.22647  1.0000
  H   H1380     1.0  0.64695  0.15865  0.21606  1.0000
  Fe  Fe167     1.0  0.96650  0.05830  0.26820  1.0000
  H   H1381     1.0  0.65561  0.17954  0.11693  1.0000
  S   S343      1.0  0.69622  0.13836  0.05011  1.0000
  H   H1382     1.0  0.95394  0.14215  0.24880  1.0000
  H   H1383     1.0  0.91196  0.15051  0.26581  1.0000
  H   H1384     1.0  0.90619  0.16219  0.17865  1.0000
  Fe  Fe168     1.0  0.93462  0.07763  0.22044  1.0000
  S   S344      1.0  0.93720  0.04869  0.25183  1.0000
  S   S345      1.0  0.90784  0.09697  0.21753  1.0000
  H   H1385     1.0  0.75955  0.14167  0.51270  1.0000
  Fe  Fe169     1.0  0.95064  0.03746  0.19608  1.0000
  C   C871      1.0  0.82623  0.23356  0.18322  1.0000
  C   C872      1.0  0.83835  0.24323  0.15774  1.0000
  S   S346      1.0  0.94552  0.06536  0.16278  1.0000
  Fe  Fe170     1.0  0.83212  0.20039  0.30283  1.0000
  S   S347      1.0  0.86235  0.20138  0.32449  1.0000
  S   S348      1.0  0.81850  0.20984  0.24520  1.0000
  Fe  Fe171     1.0  0.81690  0.18882  0.38264  1.0000
  S   S349      1.0  0.84579  0.18854  0.41199  1.0000
  S   S350      1.0  0.78671  0.18720  0.40367  1.0000
  Fe  Fe172     1.0  0.85035  0.21617  0.37841  1.0000
  C   C873      1.0  0.64917  0.17702  0.14626  1.0000
  Fe  Fe173     1.0  0.85588  0.17349  0.35600  1.0000
  S   S351      1.0  0.87840  0.14917  0.36133  1.0000
  S   S352      1.0  0.82084  0.21767  0.35379  1.0000
  S   S353      1.0  0.82642  0.17134  0.32980  1.0000
  C   C874      1.0  0.89898  0.11017  0.25876  1.0000
  C   C875      1.0  0.90849  0.10979  0.29536  1.0000
  C   C876      1.0  0.90181  0.12160  0.32665  1.0000
  C   C877      1.0  0.88573  0.13403  0.32157  1.0000
  C   C878      1.0  0.87615  0.13433  0.28502  1.0000
  C   C879      1.0  0.88269  0.12234  0.25387  1.0000
  H   H1386     1.0  0.92103  0.10049  0.29954  1.0000
  H   H1387     1.0  0.90925  0.12125  0.35489  1.0000
  H   H1388     1.0  0.86369  0.14375  0.28083  1.0000
  H   H1389     1.0  0.87521  0.12267  0.22569  1.0000
  C   C880      1.0  0.79608  0.18088  0.48229  1.0000
  C   C881      1.0  0.74477  0.20411  0.28231  1.0000
  H   H1390     1.0  0.94218  0.03237  0.10532  1.0000
  H   H1391     1.0  0.66712  0.11150  0.08376  1.0000
  C   C882      1.0  0.75059  0.23967  0.49206  1.0000
  C   C883      1.0  0.85290  0.25242  0.29555  1.0000
  C   C884      1.0  0.78190  0.18566  0.45432  1.0000
  C   C885      1.0  0.76322  0.18925  0.46665  1.0000
  H   H1392     1.0  0.77629  0.22297  0.34802  1.0000
  C   C886      1.0  0.69854  0.23734  0.49085  1.0000
  H   H1393     1.0  0.81055  0.17815  0.47294  1.0000
  H   H1394     1.0  0.75221  0.19304  0.44510  1.0000
  H   H1395     1.0  0.81109  0.23664  0.18170  1.0000
  H   H1396     1.0  0.93077  0.16674  0.27632  1.0000
  C   C887      1.0  0.70966  0.21979  0.43278  1.0000
  C   C888      1.0  0.91598  0.14973  0.18671  1.0000
  H   H1397     1.0  0.70637  0.20677  0.49005  1.0000
  H   H1398     1.0  0.77818  0.18525  0.26983  1.0000
  C   C889      1.0  0.96064  0.03860  0.47612  1.0000
  H   H1399     1.0  0.79104  0.19659  0.30911  1.0000
  C   C890      1.0  0.85327  0.21621  0.21288  1.0000
  C   C891      1.0  0.86537  0.22578  0.18723  1.0000
  H   H1400     1.0  0.82985  0.23169  0.44428  1.0000
  H   H1401     1.0  0.75809  0.23196  0.51696  1.0000
  C   C892      1.0  0.69628  0.22847  0.19148  1.0000
  C   C893      1.0  0.77658  0.19262  0.29901  1.0000
  H   H1402     1.0  0.74530  0.19782  0.25196  1.0000
  S   S354      1.0  0.71443  0.23597  0.36016  1.0000
  C   C894      1.0  0.69010  0.24267  0.16424  1.0000
  C   C895      1.0  0.66421  0.14499  0.15113  1.0000
  H   H1403     1.0  0.94945  0.02744  0.47515  1.0000
  N   N87       1.0  0.64591  0.15605  0.15275  1.0000
  H   H1404     1.0  0.77388  0.21740  0.23858  1.0000
  H   H1405     1.0  0.97356  0.06561  0.02938  1.0000
  H   H1406     1.0  0.77136  0.18180  0.32051  1.0000
  H   H1407     1.0  0.69897  0.23245  0.22190  1.0000
  C   C896      1.0  0.95189  0.01601  0.05452  1.0000
  S   S355      1.0  0.86283  0.24393  0.40218  1.0000
  H   H1408     1.0  0.85908  0.20579  0.23410  1.0000
  H   H1409     1.0  0.78553  0.22945  0.27881  1.0000
  H   H1410     1.0  0.75328  0.23303  0.33413  1.0000
  H   H1411     1.0  0.68079  0.24799  0.10405  1.0000
  H   H1412     1.0  0.75537  0.20944  0.35712  1.0000
  H   H1413     1.0  0.76202  0.23716  0.26422  1.0000
  H   H1414     1.0  0.81418  0.19077  0.02007  1.0000
  H   H1415     1.0  0.95256  0.17601  0.22303  1.0000
  C   C897      1.0  0.77158  0.22411  0.26821  1.0000
  C   C898      1.0  0.85077  0.25397  0.44298  1.0000
  C   C899      1.0  0.69858  0.20892  0.17960  1.0000
  C   C900      1.0  0.69475  0.20346  0.14041  1.0000
  H   H1416     1.0  0.93256  0.18438  0.19338  1.0000
  H   H1417     1.0  0.65919  0.18292  0.16883  1.0000
  H   H1418     1.0  0.91057  0.17484  0.24677  1.0000
  H   H1419     1.0  0.70332  0.19800  0.20089  1.0000
  H   H1420     1.0  0.68520  0.21340  0.08291  1.0000
  C   C901      1.0  0.75870  0.18807  0.50675  1.0000
  H   H1421     1.0  0.65921  0.09309  0.14414  1.0000
  C   C902      1.0  0.70783  0.23686  0.41010  1.0000
  H   H1422     1.0  0.93473  0.12625  0.23897  1.0000
  C   C903      1.0  0.83465  0.24512  0.45741  1.0000
  H   H1423     1.0  0.90708  0.13781  0.19760  1.0000
  H   H1424     1.0  0.77186  0.22729  0.43018  1.0000
  H   H1425     1.0  0.73881  0.19301  0.30224  1.0000
  H   H1426     1.0  0.73445  0.21670  0.28176  1.0000
  H   H1427     1.0  0.95014  0.13253  0.19978  1.0000
  N   N88       1.0  0.76375  0.21004  0.29627  1.0000
  H   H1428     1.0  0.92281  0.14425  0.15922  1.0000
  N   N89       1.0  0.93025  0.15543  0.21681  1.0000
  C   C904      1.0  0.77834  0.23784  0.45113  1.0000
  C   C905      1.0  0.68590  0.23714  0.12514  1.0000
  C   C906      1.0  0.85795  0.23939  0.15983  1.0000
  H   H1429     1.0  0.88052  0.22274  0.18874  1.0000
  H   H1430     1.0  0.74036  0.13399  0.48112  1.0000
  H   H1431     1.0  0.66246  0.12923  0.15738  1.0000
  H   H1432     1.0  0.71463  0.20631  0.41916  1.0000
  H   H1433     1.0  0.74283  0.10041  0.50774  1.0000
  C   C907      1.0  0.68833  0.21757  0.11314  1.0000
  H   H1434     1.0  0.81263  0.24649  0.50078  1.0000
  S   S356      1.0  0.87352  0.25167  0.12924  1.0000
  C   C908      1.0  0.65322  0.10539  0.08645  1.0000
  S   S357      1.0  0.96319  0.08808  0.24063  1.0000
  C   C909      1.0  0.83372  0.22027  0.21116  1.0000
  C   C910      1.0  0.76211  0.21930  0.33563  1.0000
  H   H1435     1.0  0.94923  0.16663  0.17381  1.0000
  C   C911      1.0  0.69671  0.25443  0.46814  1.0000
  H   H1436     1.0  0.95986  0.04603  0.50540  1.0000
  C   C912      1.0  0.70505  0.22002  0.47302  1.0000
  C   C913      1.0  0.94166  0.17133  0.20106  1.0000
  C   C914      1.0  0.92050  0.16224  0.25294  1.0000
  H   H1437     1.0  0.83254  0.25365  0.13660  1.0000
  H   H1438     1.0  0.85039  0.24533  0.32436  1.0000
  H   H1439     1.0  0.73698  0.15431  0.51400  1.0000
  S   S358      1.0  0.66490  0.17409  0.03072  1.0000
  H   H1440     1.0  0.67074  0.14614  0.12150  1.0000
  H   H1441     1.0  0.73905  0.24909  0.50481  1.0000
  C   C915      1.0  0.94919  0.01908  0.09516  1.0000
  H   H1442     1.0  0.71198  0.11875  0.51146  1.0000
  N   N90       1.0  0.76379  0.25114  0.46851  1.0000
  H   H1443     1.0  0.94693  0.02701  0.03360  1.0000
  C   C916      1.0  0.64872  0.09492  0.12061  1.0000
  Fe  Fe174     1.0  0.97429  0.07326  0.18573  1.0000
  H   H1444     1.0  0.95696  0.04967  0.45298  1.0000
  H   H1445     1.0  0.67470  0.15063  0.17301  1.0000
  C   C917      1.0  0.70141  0.25423  0.42786  1.0000
  H   H1446     1.0  0.81697  0.25262  0.26867  1.0000
  H   H1447     1.0  0.78604  0.22907  0.47430  1.0000
  H   H1448     1.0  0.85050  0.24127  0.27240  1.0000
  H   H1449     1.0  0.78911  0.24601  0.43464  1.0000
  H   H1450     1.0  0.97648  0.03041  0.40641  1.0000
  H   H1451     1.0  0.74606  0.25090  0.41611  1.0000
  H   H1452     1.0  0.74571  0.25573  0.12714  1.0000
  H   H1453     1.0  0.86814  0.25623  0.29496  1.0000
  H   H1454     1.0  0.96934  0.00812  0.42884  1.0000
  S   S359      1.0  0.72490  0.25667  0.26326  1.0000
  Fe  Fe175     1.0  0.73636  0.18687  0.59862  1.0000
  S   S360      1.0  0.71110  0.18275  0.55879  1.0000
  S   S361      1.0  0.76671  0.17898  0.58435  1.0000
  Fe  Fe176     1.0  0.71251  0.20362  0.66533  1.0000
  S   S362      1.0  0.68511  0.20139  0.63114  1.0000
  S   S363      1.0  0.71665  0.21242  0.72875  1.0000
  Fe  Fe177     1.0  0.69678  0.17182  0.61313  1.0000
  N   N91       1.0  0.73769  0.12630  0.54249  1.0000
  Fe  Fe178     1.0  0.70196  0.21260  0.58003  1.0000
  H   H1455     1.0  0.68323  0.17095  0.86765  1.0000
  S   S364      1.0  0.72296  0.17334  0.65107  1.0000
  S   S365      1.0  0.72835  0.21738  0.61636  1.0000
  C   C918      1.0  0.93911  0.01385  0.56430  1.0000
  C   C919      1.0  0.74856  0.14377  0.93371  1.0000
  Fe  Fe179     1.0  0.95799  0.07672  0.73947  1.0000
  S   S366      1.0  0.95813  0.04641  0.76440  1.0000
  S   S367      1.0  0.94256  0.10301  0.76569  1.0000
  H   H1456     1.0  0.69704  0.14041  0.80708  1.0000
  Fe  Fe180     1.0  0.95993  0.03650  0.70101  1.0000
  H   H1457     1.0  0.75784  0.21714  0.69759  1.0000
  C   C920      1.0  0.64626  0.12939  0.72019  1.0000
  S   S368      1.0  0.95684  0.06685  0.67586  1.0000
  Fe  Fe181     1.0  0.83818  0.18082  0.76756  1.0000
  S   S369      1.0  0.86154  0.16770  0.80548  1.0000
  S   S370      1.0  0.84245  0.19574  0.70951  1.0000
  Fe  Fe182     1.0  0.80666  0.16597  0.81911  1.0000
  S   S371      1.0  0.82722  0.15102  0.86120  1.0000
  S   S372      1.0  0.77494  0.17051  0.82448  1.0000
  Fe  Fe183     1.0  0.84380  0.17845  0.85630  1.0000
  S   S373      1.0  0.85586  0.19102  0.91266  1.0000
  Fe  Fe184     1.0  0.84321  0.14147  0.80700  1.0000
  S   S374      1.0  0.85411  0.11088  0.79333  1.0000
  S   S375      1.0  0.82209  0.19404  0.81795  1.0000
  S   S376      1.0  0.82096  0.15394  0.76524  1.0000
  C   C921      1.0  0.91825  0.10327  0.77699  1.0000
  C   C922      1.0  0.90599  0.08935  0.76165  1.0000
  C   C923      1.0  0.88632  0.09135  0.76810  1.0000
  C   C924      1.0  0.87889  0.10736  0.78951  1.0000
  C   C925      1.0  0.89126  0.12087  0.80583  1.0000
  C   C926      1.0  0.91086  0.11878  0.79971  1.0000
  H   H1458     1.0  0.91158  0.07735  0.74407  1.0000
  H   H1459     1.0  0.87679  0.08081  0.75554  1.0000
  H   H1460     1.0  0.88574  0.13296  0.82319  1.0000
  H   H1461     1.0  0.92034  0.12944  0.81207  1.0000
  C   C927      1.0  0.77267  0.18254  0.53461  1.0000
  C   C928      1.0  0.88192  0.13830  0.70884  1.0000
  H   H1462     1.0  0.94113  0.03327  0.61462  1.0000
  C   C929      1.0  0.83833  0.24779  0.90224  1.0000
  C   C930      1.0  0.76527  0.13549  0.91807  1.0000
  C   C931      1.0  0.77357  0.14373  0.88475  1.0000
  C   C932      1.0  0.76511  0.16023  0.86683  1.0000
  C   C933      1.0  0.74857  0.16871  0.88284  1.0000
  C   C934      1.0  0.74032  0.16052  0.91626  1.0000
  C   C935      1.0  0.84584  0.22088  0.71480  1.0000
  H   H1463     1.0  0.78626  0.13704  0.87244  1.0000
  H   H1464     1.0  0.74230  0.18180  0.86977  1.0000
  S   S377      1.0  0.68502  0.14930  0.95848  1.0000
  H   H1465     1.0  0.78815  0.22752  0.66745  1.0000
  H   H1466     1.0  0.66133  0.08437  0.88678  1.0000
  H   H1467     1.0  0.71757  0.17251  0.76450  1.0000
  H   H1468     1.0  0.87013  0.13765  0.68666  1.0000
  H   H1469     1.0  0.87538  0.14173  0.73787  1.0000
  C   C936      1.0  0.70738  0.24151  0.78044  1.0000
  H   H1470     1.0  0.67026  0.16673  0.67912  1.0000
  H   H1471     1.0  0.78571  0.17332  0.66557  1.0000
  H   H1472     1.0  0.89654  0.18393  0.68755  1.0000
  H   H1473     1.0  0.80736  0.21193  0.99114  1.0000
  H   H1474     1.0  0.91919  0.13876  0.72977  1.0000
  C   C937      1.0  0.76324  0.20176  0.69510  1.0000
  H   H1475     1.0  0.72638  0.16039  0.80850  1.0000
  H   H1476     1.0  0.87457  0.17284  0.67401  1.0000
  H   H1477     1.0  0.89284  0.14765  0.63568  1.0000
  H   H1478     1.0  0.72764  0.16720  0.92869  1.0000
  C   C938      1.0  0.68893  0.15367  0.79675  1.0000
  H   H1479     1.0  0.91480  0.15852  0.65029  1.0000
  C   C939      1.0  0.71722  0.17278  0.79740  1.0000
  H   H1480     1.0  0.71151  0.11515  0.56416  1.0000
  Fe  Fe185     1.0  0.71146  0.14806  0.99607  1.0000
  C   C940      1.0  0.70404  0.23366  0.74285  1.0000
  C   C941      1.0  0.90406  0.14785  0.65923  1.0000
  C   C942      1.0  0.91134  0.15312  0.72830  1.0000
  C   C943      1.0  0.85171  0.21611  0.92163  1.0000
  H   H1481     1.0  0.71731  0.23423  0.80066  1.0000
  N   N92       1.0  0.89595  0.15294  0.69809  1.0000
  C   C944      1.0  0.88650  0.17247  0.69602  1.0000
  H   H1482     1.0  0.90565  0.15624  0.75828  1.0000
  H   H1483     1.0  0.91123  0.13313  0.65991  1.0000
  H   H1484     1.0  0.88041  0.17684  0.72503  1.0000
  H   H1485     1.0  0.88862  0.12342  0.71124  1.0000
  H   H1486     1.0  0.92192  0.16437  0.72180  1.0000
  H   H1487     1.0  0.82624  0.16570  0.94831  1.0000
  C   C945      1.0  0.85324  0.24893  0.75551  1.0000
  H   H1488     1.0  0.68861  0.15332  0.76382  1.0000
  H   H1489     1.0  0.79415  0.20813  0.92383  1.0000
  H   H1490     1.0  0.80233  0.17493  0.54385  1.0000
  C   C946      1.0  0.68590  0.22611  0.94093  1.0000
  C   C947      1.0  0.69783  0.17148  0.85560  1.0000
  H   H1491     1.0  0.77404  0.17333  0.95842  1.0000
  N   N93       1.0  0.69757  0.17170  0.81188  1.0000
  H   H1492     1.0  0.68578  0.18954  0.76483  1.0000
  Fe  Fe186     1.0  0.66944  0.14246  0.01417  1.0000
  C   C948      1.0  0.65053  0.11481  0.69242  1.0000
  C   C949      1.0  0.66881  0.13779  0.65451  1.0000
  C   C950      1.0  0.94203  0.01827  0.60455  1.0000
  H   H1493     1.0  0.67402  0.15243  0.80677  1.0000
  H   H1494     1.0  0.85268  0.21935  0.77705  1.0000
  H   H1495     1.0  0.78311  0.17552  0.00790  1.0000
  C   C951      1.0  0.66174  0.11903  0.65960  1.0000
  C   C952      1.0  0.68628  0.18889  0.79774  1.0000
  H   H1496     1.0  0.80629  0.20773  0.73913  1.0000
  C   C953      1.0  0.80109  0.19334  0.92299  1.0000
  C   C954      1.0  0.79054  0.20823  0.73640  1.0000
  H   H1497     1.0  0.69251  0.20274  0.80843  1.0000
  H   H1498     1.0  0.85806  0.24996  0.99452  1.0000
  N   N94       1.0  0.78417  0.20040  0.69782  1.0000
  H   H1499     1.0  0.77171  0.12256  0.93157  1.0000
  H   H1500     1.0  0.81265  0.15757  0.98932  1.0000
  H   H1501     1.0  0.80625  0.17816  0.69544  1.0000
  C   C955      1.0  0.66489  0.15223  0.68277  1.0000
  H   H1502     1.0  0.67140  0.18863  0.80831  1.0000
  H   H1503     1.0  0.70437  0.18482  0.86810  1.0000
  C   C956      1.0  0.68828  0.23253  0.97997  1.0000
  H   H1504     1.0  0.82835  0.19784  0.97930  1.0000
  H   H1505     1.0  0.75897  0.13556  0.58433  1.0000
  H   H1506     1.0  0.97223  0.04437  0.99818  1.0000
  H   H1507     1.0  0.78491  0.19968  0.76141  1.0000
  H   H1508     1.0  0.70606  0.15860  0.86742  1.0000
  S   S378      1.0  0.68207  0.14294  0.61214  1.0000
  C   C957      1.0  0.85736  0.22411  0.95800  1.0000
  C   C958      1.0  0.84355  0.23315  0.68190  1.0000
  Fe  Fe187     1.0  0.68297  0.18058  0.97831  1.0000
  H   H1509     1.0  0.79287  0.18429  0.90185  1.0000
  C   C959      1.0  0.69373  0.25180  0.98763  1.0000
  C   C960      1.0  0.85062  0.22878  0.75165  1.0000
  C   C961      1.0  0.79238  0.21179  0.66551  1.0000
  C   C962      1.0  0.68948  0.23878  0.90973  1.0000
  C   C963      1.0  0.85355  0.24391  0.96645  1.0000
  H   H1510     1.0  0.80351  0.15504  0.93979  1.0000
  H   H1511     1.0  0.78483  0.17072  0.71852  1.0000
  C   C964      1.0  0.84225  0.22804  0.89375  1.0000
  H   H1512     1.0  0.75803  0.19589  0.66639  1.0000
  C   C965      1.0  0.69103  0.24300  0.71703  1.0000
  N   N95       1.0  0.80224  0.18437  0.96269  1.0000
  H   H1513     1.0  0.78775  0.20631  0.63596  1.0000
  S   S379      1.0  0.73849  0.13325  0.97549  1.0000
  S   S380      1.0  0.67739  0.20278  0.93013  1.0000
  C   C966      1.0  0.74329  0.13412  0.58157  1.0000
  H   H1514     1.0  0.66503  0.10772  0.63819  1.0000
  H   H1515     1.0  0.72395  0.18655  0.80704  1.0000
  H   H1516     1.0  0.68831  0.23695  0.68798  1.0000
  H   H1517     1.0  0.84006  0.22708  0.65322  1.0000
  H   H1518     1.0  0.78575  0.22371  0.74037  1.0000
  H   H1519     1.0  0.86472  0.21498  0.97972  1.0000
  H   H1520     1.0  0.83810  0.22218  0.86549  1.0000
  H   H1521     1.0  0.68813  0.23374  0.87952  1.0000
  H   H1522     1.0  0.73685  0.14890  0.58638  1.0000
  H   H1523     1.0  0.80818  0.21077  0.66647  1.0000
  H   H1524     1.0  0.75660  0.19333  0.71911  1.0000
  C   C967      1.0  0.84570  0.25336  0.68598  1.0000
  H   H1525     1.0  0.93779  0.01644  0.81274  1.0000
  H   H1526     1.0  0.97300  0.01196  0.80786  1.0000
  H   H1527     1.0  0.68553  0.22280  0.00424  1.0000
  C   C968      1.0  0.79049  0.17972  0.69422  1.0000
  C   C969      1.0  0.78287  0.18251  0.97821  1.0000
  S   S381      1.0  0.94689  0.00806  0.68302  1.0000
  C   C970      1.0  0.84413  0.25581  0.93845  1.0000
  C   C971      1.0  0.65362  0.14804  0.71545  1.0000
  H   H1528     1.0  0.65521  0.05903  0.88847  1.0000
  H   H1529     1.0  0.77542  0.19699  0.98087  1.0000
  H   H1530     1.0  0.81545  0.19496  0.91044  1.0000
  H   H1531     1.0  0.76255  0.10752  0.53831  1.0000
  C   C972      1.0  0.79141  0.17909  0.52239  1.0000
  C   C973      1.0  0.81155  0.16480  0.95993  1.0000
  S   S382      1.0  0.69292  0.23812  0.54147  1.0000
  C   C974      1.0  0.81347  0.19678  0.98954  1.0000
  H   H1532     1.0  0.93588  0.02552  0.54364  1.0000
  S   S383      1.0  0.71056  0.17977  0.01239  1.0000
  H   H1533     1.0  0.66257  0.08615  0.96042  1.0000
  H   H1534     1.0  0.70949  0.13924  0.54431  1.0000
  C   C975      1.0  0.74677  0.10679  0.53694  1.0000
  H   H1535     1.0  0.73860  0.12468  0.60609  1.0000
  C   C976      1.0  0.71679  0.12474  0.54041  1.0000
  C   C977      1.0  0.64930  0.07429  0.88912  1.0000
  H   H1536     1.0  0.64679  0.25408  0.81888  1.0000
  H   H1537     1.0  0.65531  0.24200  0.86320  1.0000
  H   H1538     1.0  0.65033  0.15938  0.73681  1.0000
  H   H1539     1.0  0.65725  0.06061  0.96205  1.0000
  C   C978      1.0  0.65080  0.07562  0.96051  1.0000
  H   H1540     1.0  0.74243  0.09643  0.56023  1.0000
  H   H1541     1.0  0.85751  0.25483  0.78381  1.0000
  H   H1542     1.0  0.83076  0.25677  0.88070  1.0000
  C   C979      1.0  0.65239  0.25653  0.84940  1.0000
  H   H1543     1.0  0.93498  0.00802  0.76282  1.0000
  H   H1544     1.0  0.97870  0.06735  0.97760  1.0000
  H   H1545     1.0  0.69515  0.25683  0.01783  1.0000
  Fe  Fe188     1.0  0.70488  0.30573  0.30154  1.0000
  S   S384      1.0  0.72927  0.28970  0.33287  1.0000
  S   S385      1.0  0.69473  0.33679  0.31495  1.0000
  Fe  Fe189     1.0  0.70126  0.27495  0.23739  1.0000
  C   C980      1.0  0.64798  0.35353  0.40304  1.0000
  S   S386      1.0  0.96949  0.44805  0.08897  1.0000
  H   H1546     1.0  0.95227  0.49987  0.02094  1.0000
  C   C981      1.0  0.90538  0.39519  0.51481  1.0000
  Fe  Fe190     1.0  0.74053  0.28416  0.27199  1.0000
  S   S387      1.0  0.77163  0.27960  0.25860  1.0000
  S   S388      1.0  0.68659  0.27934  0.29550  1.0000
  S   S389      1.0  0.71790  0.30230  0.24125  1.0000
  Fe  Fe191     1.0  0.82954  0.30725  0.08381  1.0000
  S   S390      1.0  0.85695  0.30542  0.11786  1.0000
  S   S391      1.0  0.80411  0.32280  0.11022  1.0000
  Fe  Fe192     1.0  0.97832  0.42948  0.44237  1.0000
  S   S392      1.0  0.87605  0.28602  0.03852  1.0000
  H   H1547     1.0  0.81024  0.27651  0.28651  1.0000
  Fe  Fe193     1.0  0.86040  0.27561  0.09153  1.0000
  H   H1548     1.0  0.69992  0.26746  0.41053  1.0000
  Fe  Fe194     1.0  0.87016  0.31617  0.06238  1.0000
  S   S393      1.0  0.89224  0.33902  0.07306  1.0000
  S   S394      1.0  0.83155  0.27626  0.06207  1.0000
  H   H1549     1.0  0.93073  0.38397  0.41278  1.0000
  H   H1550     1.0  0.92347  0.39819  0.03241  1.0000
  H   H1551     1.0  0.88323  0.38402  0.47708  1.0000
  Fe  Fe195     1.0  0.93966  0.43001  0.48013  1.0000
  H   H1552     1.0  0.87400  0.37784  0.10595  1.0000
  C   C982      1.0  0.77309  0.26557  0.49439  1.0000
  Fe  Fe196     1.0  0.95559  0.46797  0.44660  1.0000
  S   S395      1.0  0.95330  0.49869  0.42251  1.0000
  N   N96       1.0  0.84492  0.37162  0.11799  1.0000
  H   H1553     1.0  0.92910  0.36568  0.47578  1.0000
  S   S396      1.0  0.94948  0.43891  0.41966  1.0000
  H   H1554     1.0  0.93713  0.47369  0.08563  1.0000
  H   H1555     1.0  0.81694  0.25758  0.32082  1.0000
  H   H1556     1.0  0.73608  0.30816  0.14980  1.0000
  H   H1557     1.0  0.83856  0.34391  0.14360  1.0000
  C   C983      1.0  0.86086  0.38519  0.11748  1.0000
  H   H1558     1.0  0.64978  0.40728  0.03875  1.0000
  C   C984      1.0  0.94444  0.49131  0.30440  1.0000
  H   H1559     1.0  0.95013  0.35398  0.49652  1.0000
  H   H1560     1.0  0.86321  0.34701  0.13276  1.0000
  H   H1561     1.0  0.83018  0.38702  0.16431  1.0000
  C   C985      1.0  0.90971  0.37189  0.04958  1.0000
  H   H1562     1.0  0.86429  0.39070  0.14765  1.0000
  H   H1563     1.0  0.69159  0.26787  0.48172  1.0000
  H   H1564     1.0  0.75046  0.27523  0.16128  1.0000
  H   H1565     1.0  0.91834  0.36994  0.07613  1.0000
  H   H1566     1.0  0.76169  0.29541  0.10590  1.0000
  C   C986      1.0  0.94665  0.48750  0.34508  1.0000
  C   C987      1.0  0.84373  0.27843  0.25068  1.0000
  C   C988      1.0  0.67663  0.34278  0.34890  1.0000
  H   H1567     1.0  0.94517  0.47284  0.35615  1.0000
  H   H1568     1.0  0.67719  0.37354  0.33581  1.0000
  H   H1569     1.0  0.67276  0.31337  0.36874  1.0000
  H   H1570     1.0  0.95584  0.34898  0.38748  1.0000
  H   H1571     1.0  0.85288  0.35924  0.17447  1.0000
  C   C989      1.0  0.82022  0.26384  0.29152  1.0000
  C   C990      1.0  0.78008  0.29146  0.21666  1.0000
  C   C991      1.0  0.79656  0.28411  0.19849  1.0000
  C   C992      1.0  0.80394  0.29360  0.16566  1.0000
  C   C993      1.0  0.79493  0.31059  0.15101  1.0000
  C   C994      1.0  0.77839  0.31791  0.16902  1.0000
  C   C995      1.0  0.77090  0.30830  0.20169  1.0000
  H   H1572     1.0  0.80352  0.27091  0.20950  1.0000
  H   H1573     1.0  0.81663  0.28778  0.15173  1.0000
  H   H1574     1.0  0.77140  0.33109  0.15781  1.0000
  H   H1575     1.0  0.75831  0.31417  0.21587  1.0000
  C   C996      1.0  0.67061  0.36242  0.35316  1.0000
  H   H1576     1.0  0.92303  0.48931  0.05353  1.0000
  H   H1577     1.0  0.64837  0.46130  0.03250  1.0000
  C   C997      1.0  0.71925  0.27532  0.08342  1.0000
  Fe  Fe197     1.0  0.96224  0.44204  0.02530  1.0000
  S   S397      1.0  0.68785  0.26740  0.17834  1.0000
  N   N97       1.0  0.84021  0.26973  0.28975  1.0000
  C   C998      1.0  0.75307  0.26140  0.43645  1.0000
  H   H1578     1.0  0.83710  0.37709  0.05715  1.0000
  H   H1579     1.0  0.67773  0.42773  0.02246  1.0000
  C   C999      1.0  0.94643  0.38426  0.41711  1.0000
  S   S398      1.0  0.94312  0.46034  0.50517  1.0000
  H   H1580     1.0  0.65202  0.38297  0.38359  1.0000
  C   C1000     1.0  0.94483  0.36664  0.47857  1.0000
  C   C1001     1.0  0.84398  0.28410  0.32139  1.0000
  S   S399      1.0  0.91358  0.41100  0.47772  1.0000
  C   C1002     1.0  0.73960  0.26930  0.14058  1.0000
  Fe  Fe198     1.0  0.71204  0.26308  0.32218  1.0000
  N   N98       1.0  0.94627  0.50329  0.08289  1.0000
  H   H1581     1.0  0.64765  0.32280  0.41655  1.0000
  C   C1003     1.0  0.84095  0.36477  0.07735  1.0000
  H   H1582     1.0  0.96659  0.48462  0.05318  1.0000
  H   H1583     1.0  0.71486  0.28563  0.05927  1.0000
  H   H1584     1.0  0.81557  0.37159  0.13431  1.0000
  C   C1004     1.0  0.82775  0.38165  0.13362  1.0000
  H   H1585     1.0  0.82331  0.39440  0.11499  1.0000
  H   H1586     1.0  0.75685  0.27605  0.07167  1.0000
  H   H1587     1.0  0.84182  0.27768  0.35124  1.0000
  H   H1588     1.0  0.83440  0.29724  0.31851  1.0000
  H   H1589     1.0  0.82898  0.35446  0.07662  1.0000
  H   H1590     1.0  0.86965  0.27799  0.44985  1.0000
  C   C1005     1.0  0.72560  0.30141  0.12937  1.0000
  H   H1591     1.0  0.94133  0.47951  0.28420  1.0000
  H   H1592     1.0  0.94701  0.50516  0.14657  1.0000
  C   C1006     1.0  0.95659  0.50202  0.12128  1.0000
  C   C1007     1.0  0.66820  0.32852  0.37169  1.0000
  H   H1593     1.0  0.85871  0.28294  0.24809  1.0000
  C   C1008     1.0  0.84725  0.27963  0.49273  1.0000
  H   H1594     1.0  0.72459  0.26160  0.06922  1.0000
  H   H1595     1.0  0.83426  0.29146  0.24507  1.0000
  H   H1596     1.0  0.95461  0.33580  0.43324  1.0000
  S   S400      1.0  0.96847  0.41895  0.50121  1.0000
  H   H1597     1.0  0.85891  0.28895  0.32077  1.0000
  H   H1598     1.0  0.85360  0.35703  0.06483  1.0000
  C   C1009     1.0  0.95962  0.49930  0.05032  1.0000
  C   C1010     1.0  0.89560  0.35851  0.04042  1.0000
  C   C1011     1.0  0.75043  0.28903  0.08679  1.0000
  C   C1012     1.0  0.85010  0.35471  0.14337  1.0000
  N   N99       1.0  0.73373  0.28376  0.11003  1.0000
  H   H1599     1.0  0.74164  0.27121  0.44839  1.0000
  C   C1013     1.0  0.83094  0.27093  0.50667  1.0000
  C   C1014     1.0  0.85711  0.27118  0.46079  1.0000
  C   C1015     1.0  0.65401  0.33391  0.39879  1.0000
  H   H1600     1.0  0.74652  0.29998  0.06355  1.0000
  C   C1016     1.0  0.97464  0.36827  0.44435  1.0000
  C   C1017     1.0  0.95047  0.50275  0.37133  1.0000
  C   C1018     1.0  0.94929  0.34910  0.41724  1.0000
  H   H1601     1.0  0.95311  0.38537  0.38759  1.0000
  H   H1602     1.0  0.72094  0.31261  0.10724  1.0000
  C   C1019     1.0  0.93113  0.48880  0.08202  1.0000
  N   N100      1.0  0.95381  0.36705  0.43934  1.0000
  H   H1603     1.0  0.65163  0.44067  0.06500  1.0000
  H   H1604     1.0  0.94944  0.39795  0.43331  1.0000
  H   H1605     1.0  0.92092  0.49138  0.10641  1.0000
  H   H1606     1.0  0.84105  0.26781  0.22637  1.0000
  H   H1607     1.0  0.93367  0.34780  0.41288  1.0000
  H   H1608     1.0  0.78358  0.27420  0.47799  1.0000
  C   C1020     1.0  0.91270  0.38785  0.02477  1.0000
  H   H1609     1.0  0.76250  0.27046  0.41838  1.0000
  H   H1610     1.0  0.76256  0.27607  0.50737  1.0000
  C   C1021     1.0  0.88991  0.38329  0.50608  1.0000
  H   H1611     1.0  0.85208  0.29300  0.50613  1.0000
  H   H1612     1.0  0.72733  0.26503  0.15868  1.0000
  H   H1613     1.0  0.85759  0.39801  0.09814  1.0000
  S   S401      1.0  0.84238  0.32012  0.02987  1.0000
  H   H1614     1.0  0.96312  0.48718  0.12598  1.0000
  C   C1022     1.0  0.65633  0.36779  0.38011  1.0000
  H   H1615     1.0  0.71295  0.29788  0.14715  1.0000
  H   H1616     1.0  0.70622  0.27180  0.09985  1.0000
  H   H1617     1.0  0.94763  0.38016  0.49580  1.0000
  H   H1618     1.0  0.97856  0.38167  0.46086  1.0000
  Fe  Fe199     1.0  0.69037  0.34623  0.87270  1.0000
  S   S402      1.0  0.71697  0.33724  0.90694  1.0000
  S   S403      1.0  0.67516  0.37581  0.87866  1.0000
  Fe  Fe200     1.0  0.69040  0.30830  0.82571  1.0000
  S   S404      1.0  0.71678  0.29666  0.85576  1.0000
  S   S405      1.0  0.67490  0.29128  0.77864  1.0000
  Fe  Fe201     1.0  0.70351  0.30792  0.91122  1.0000
  S   S406      1.0  0.70280  0.28906  0.96602  1.0000
  Fe  Fe202     1.0  0.72798  0.32661  0.84813  1.0000
  S   S407      1.0  0.75884  0.32506  0.82989  1.0000
  S   S408      1.0  0.67616  0.31777  0.88167  1.0000
  S   S409      1.0  0.70245  0.33761  0.81342  1.0000
  Fe  Fe203     1.0  0.81652  0.33391  0.64499  1.0000
  S   S410      1.0  0.84486  0.33555  0.67519  1.0000
  S   S411      1.0  0.79137  0.35229  0.66580  1.0000
  H   H1619     1.0  0.92807  0.34140  0.92581  1.0000
  S   S412      1.0  0.86018  0.30136  0.61398  1.0000
  H   H1620     1.0  0.83217  0.39163  0.56136  1.0000
  Fe  Fe204     1.0  0.84549  0.30293  0.67242  1.0000
  S   S413      1.0  0.85312  0.28658  0.72841  1.0000
  Fe  Fe205     1.0  0.85747  0.33434  0.61434  1.0000
  S   S414      1.0  0.88288  0.35429  0.61013  1.0000
  S   S415      1.0  0.81620  0.30139  0.64654  1.0000
  S   S416      1.0  0.82867  0.33550  0.58388  1.0000
  C   C1023     1.0  0.94656  0.37520  0.92752  1.0000
  S   S417      1.0  0.81707  0.28186  0.54401  1.0000
  Fe  Fe206     1.0  0.93254  0.42653  0.96818  1.0000
  H   H1621     1.0  0.85772  0.37748  0.65503  1.0000
  S   S418      1.0  0.90541  0.41021  0.95856  1.0000
  Fe  Fe207     1.0  0.95229  0.46474  0.95068  1.0000
  H   H1622     1.0  0.72944  0.27590  0.66422  1.0000
  H   H1623     1.0  0.74593  0.27287  0.70511  1.0000
  C   C1024     1.0  0.84563  0.29073  0.83455  1.0000
  S   S419      1.0  0.94756  0.43762  0.91493  1.0000
  H   H1624     1.0  0.93629  0.38415  0.94499  1.0000
  N   N101      1.0  0.72874  0.29930  0.70682  1.0000
  H   H1625     1.0  0.67345  0.42396  0.97055  1.0000
  Fe  Fe208     1.0  0.84690  0.28894  0.01084  1.0000
  C   C1025     1.0  0.88734  0.37725  0.98148  1.0000
  H   H1626     1.0  0.95907  0.38436  0.92218  1.0000
  H   H1627     1.0  0.86850  0.39940  0.63949  1.0000
  H   H1628     1.0  0.71977  0.29361  0.76605  1.0000
  C   C1026     1.0  0.84024  0.32196  0.86626  1.0000
  H   H1629     1.0  0.93863  0.33137  0.97037  1.0000
  C   C1027     1.0  0.90700  0.38124  0.58081  1.0000
  H   H1630     1.0  0.72919  0.31734  0.75888  1.0000
  H   H1631     1.0  0.84770  0.37366  0.58423  1.0000
  C   C1028     1.0  0.88301  0.37038  0.53455  1.0000
  H   H1632     1.0  0.91366  0.38054  0.60984  1.0000
  H   H1633     1.0  0.70691  0.32183  0.70202  1.0000
  C   C1029     1.0  0.95218  0.48754  0.85323  1.0000
  H   H1634     1.0  0.66277  0.48109  0.60878  1.0000
  C   C1030     1.0  0.85504  0.39342  0.65058  1.0000
  S   S420      1.0  0.94998  0.49644  0.93273  1.0000
  H   H1635     1.0  0.65488  0.35003  0.93085  1.0000
  H   H1636     1.0  0.74239  0.30899  0.65413  1.0000
  C   C1031     1.0  0.69689  0.26464  0.95632  1.0000
  C   C1032     1.0  0.95248  0.50207  0.88237  1.0000
  C   C1033     1.0  0.68551  0.26864  0.76584  1.0000
  C   C1034     1.0  0.76652  0.33228  0.78294  1.0000
  C   C1035     1.0  0.78217  0.32230  0.76660  1.0000
  C   C1036     1.0  0.78979  0.32835  0.73072  1.0000
  C   C1037     1.0  0.78172  0.34443  0.71067  1.0000
  C   C1038     1.0  0.76577  0.35424  0.72654  1.0000
  C   C1039     1.0  0.75810  0.34811  0.76255  1.0000
  H   H1637     1.0  0.78842  0.30980  0.78184  1.0000
  H   H1638     1.0  0.80202  0.32066  0.71876  1.0000
  H   H1639     1.0  0.75944  0.36669  0.71115  1.0000
  H   H1640     1.0  0.74607  0.35597  0.77508  1.0000
  C   C1040     1.0  0.73145  0.27843  0.69652  1.0000
  H   H1641     1.0  0.93969  0.37227  0.89835  1.0000
  H   H1642     1.0  0.83085  0.42460  0.64920  1.0000
  H   H1643     1.0  0.84754  0.42629  0.60971  1.0000
  H   H1644     1.0  0.84380  0.26278  0.66051  1.0000
  H   H1645     1.0  0.84927  0.28422  0.86390  1.0000
  H   H1646     1.0  0.67042  0.47569  0.65858  1.0000
  H   H1647     1.0  0.81784  0.39233  0.66664  1.0000
  H   H1648     1.0  0.82301  0.42170  0.59878  1.0000
  H   H1649     1.0  0.66107  0.28105  0.90901  1.0000
  C   C1041     1.0  0.84407  0.38956  0.58309  1.0000
  C   C1042     1.0  0.85057  0.26129  0.72280  1.0000
  H   H1650     1.0  0.85668  0.39691  0.57125  1.0000
  H   H1651     1.0  0.83051  0.33492  0.86968  1.0000
  C   C1043     1.0  0.68166  0.26041  0.72868  1.0000
  C   C1044     1.0  0.95336  0.49263  0.81312  1.0000
  H   H1652     1.0  0.97057  0.33182  0.93916  1.0000
  N   N102      1.0  0.95209  0.35692  0.94835  1.0000
  H   H1653     1.0  0.85420  0.32710  0.85623  1.0000
  H   H1654     1.0  0.92593  0.40304  0.55935  1.0000
  C   C1045     1.0  0.93506  0.34522  0.95441  1.0000
  N   N103      1.0  0.83229  0.30767  0.83819  1.0000
  H   H1655     1.0  0.75783  0.30641  0.69670  1.0000
  H   H1656     1.0  0.87868  0.37930  0.95502  1.0000
  H   H1657     1.0  0.95062  0.47246  0.86154  1.0000
  H   H1658     1.0  0.85917  0.29487  0.82069  1.0000
  Fe  Fe209     1.0  0.97278  0.44991  0.52123  1.0000
  C   C1046     1.0  0.83492  0.41841  0.61998  1.0000
  C   C1047     1.0  0.82944  0.31687  0.79898  1.0000
  H   H1659     1.0  0.84307  0.32182  0.78676  1.0000
  H   H1660     1.0  0.92430  0.35338  0.97232  1.0000
  N   N104      1.0  0.83902  0.39717  0.62260  1.0000
  H   H1661     1.0  0.84249  0.31539  0.89617  1.0000
  H   H1662     1.0  0.87117  0.36123  0.52738  1.0000
  H   H1663     1.0  0.82362  0.30634  0.77710  1.0000
  H   H1664     1.0  0.87351  0.35089  0.99891  1.0000
  Fe  Fe210     1.0  0.83052  0.30259  0.58774  1.0000
  S   S421      1.0  0.95865  0.41288  0.99650  1.0000
  C   C1048     1.0  0.66954  0.43339  0.99630  1.0000
  C   C1049     1.0  0.89145  0.36942  0.57223  1.0000
  H   H1665     1.0  0.70750  0.30478  0.66141  1.0000
  H   H1666     1.0  0.67175  0.26774  0.70850  1.0000
  H   H1667     1.0  0.82472  0.37120  0.63868  1.0000
  H   H1668     1.0  0.74124  0.32668  0.69325  1.0000
  H   H1669     1.0  0.67877  0.49703  0.63414  1.0000
  C   C1050     1.0  0.96599  0.34570  0.92435  1.0000
  H   H1670     1.0  0.80960  0.38957  0.61641  1.0000
  H   H1671     1.0  0.72112  0.26932  0.71207  1.0000
  H   H1672     1.0  0.81553  0.29424  0.88268  1.0000
  C   C1051     1.0  0.81388  0.30107  0.85292  1.0000
  C   C1052     1.0  0.74318  0.31082  0.68682  1.0000
  H   H1673     1.0  0.70071  0.26471  0.82101  1.0000
  S   S422      1.0  0.83975  0.28077  0.94796  1.0000
  H   H1674     1.0  0.83946  0.27914  0.81564  1.0000
  C   C1053     1.0  0.91399  0.39401  0.55226  1.0000
  H   H1675     1.0  0.85219  0.39987  0.68018  1.0000
  H   H1676     1.0  0.69720  0.26769  0.89317  1.0000
  H   H1677     1.0  0.80759  0.29002  0.83284  1.0000
  H   H1678     1.0  0.74491  0.29637  0.76122  1.0000
  C   C1054     1.0  0.66620  0.48778  0.63804  1.0000
  C   C1055     1.0  0.73075  0.30173  0.75009  1.0000
  H   H1679     1.0  0.69830  0.29774  0.70826  1.0000
  C   C1056     1.0  0.70955  0.30622  0.69398  1.0000
  C   C1057     1.0  0.90154  0.39057  0.99062  1.0000
  C   C1058     1.0  0.82206  0.38724  0.63668  1.0000
  H   H1680     1.0  0.81944  0.32972  0.80035  1.0000
  H   H1681     1.0  0.95991  0.34193  0.89482  1.0000
  N   N105      1.0  0.64887  0.43336  0.00321  1.0000
  C   C1059     1.0  0.88439  0.36118  0.00626  1.0000
  H   H1682     1.0  0.95268  0.48141  0.79063  1.0000
  C   C1060     1.0  0.69814  0.25895  0.79187  1.0000
  S   S423      1.0  0.93476  0.45480  0.00125  1.0000
  H   H1683     1.0  0.80332  0.31343  0.85550  1.0000
  H   H1684     1.0  0.97356  0.37068  0.98374  1.0000
  H   H1685     1.0  0.96530  0.34817  0.00357  1.0000
  H   H1686     1.0  0.67437  0.44838  0.99001  1.0000
  H   H1687     1.0  0.65935  0.49684  0.71392  1.0000
  H   H1688     1.0  0.66621  0.26383  0.84646  1.0000
  C   C1061     1.0  0.96079  0.36162  0.98715  1.0000
  N   N106      1.0  0.64983  0.49935  0.65324  1.0000
  H   H1689     1.0  0.78100  0.25837  0.51940  1.0000
  C   C1062     1.0  0.65302  0.37812  0.90256  1.0000
  H   H1690     1.0  0.97348  0.50050  0.54596  1.0000
  C   C1063     1.0  0.69485  0.25799  0.91741  1.0000
  Fe  Fe211     1.0  0.97392  0.42593  0.94563  1.0000
  H   H1691     1.0  0.97370  0.45279  0.74962  1.0000
  C   C1064     1.0  0.64781  0.27280  0.91211  1.0000
  H   H1692     1.0  0.64691  0.40684  0.87895  1.0000
  C   C1065     1.0  0.64650  0.36338  0.92696  1.0000
  H   H1693     1.0  0.64753  0.29498  0.84528  1.0000
  H   H1694     1.0  0.64734  0.40308  0.98667  1.0000
  H   H1695     1.0  0.95061  0.36991  0.00620  1.0000
  H   H1696     1.0  0.65172  0.25914  0.92854  1.0000
  Fe  Fe212     1.0  0.69120  0.70156  0.37779  1.0000
  S   S424      1.0  0.72042  0.71210  0.36655  1.0000
  S   S425      1.0  0.67671  0.71165  0.43331  1.0000
  Fe  Fe213     1.0  0.69039  0.67595  0.30452  1.0000
  S   S426      1.0  0.71970  0.68485  0.28714  1.0000
  S   S427      1.0  0.67715  0.65430  0.26179  1.0000
  Fe  Fe214     1.0  0.72734  0.68103  0.35129  1.0000
  S   S428      1.0  0.75553  0.66712  0.36908  1.0000
  Fe  Fe215     1.0  0.71016  0.71518  0.30369  1.0000
  H   H1697     1.0  0.80276  0.74318  0.44462  1.0000
  S   S429      1.0  0.69894  0.66986  0.36774  1.0000
  S   S430      1.0  0.68017  0.70695  0.31591  1.0000
  Fe  Fe216     1.0  0.84781  0.65487  0.05506  1.0000
  S   S431      1.0  0.82026  0.65946  0.08625  1.0000
  S   S432      1.0  0.86021  0.62408  0.05835  1.0000
  H   H1698     1.0  0.94870  0.53438  0.07856  1.0000
  C   C1066     1.0  0.81403  0.60351  0.04978  1.0000
  S   S433      1.0  0.81845  0.70413  0.05182  1.0000
  Fe  Fe217     1.0  0.83137  0.68843  0.10410  1.0000
  S   S434      1.0  0.82623  0.69748  0.16688  1.0000
  H   H1699     1.0  0.79510  0.73154  0.16032  1.0000
  H   H1700     1.0  0.89857  0.66007  0.24369  1.0000
  S   S435      1.0  0.85997  0.68283  0.07751  1.0000
  C   C1067     1.0  0.85311  0.75417  0.20641  1.0000
  Fe  Fe218     1.0  0.94819  0.58468  0.18563  1.0000
  S   S436      1.0  0.94465  0.55519  0.15757  1.0000
  S   S437      1.0  0.92950  0.61204  0.17844  1.0000
  C   C1068     1.0  0.88806  0.65108  0.22751  1.0000
  C   C1069     1.0  0.72531  0.59894  0.33883  1.0000
  C   C1070     1.0  0.81658  0.74826  0.45341  1.0000
  Fe  Fe219     1.0  0.95468  0.54322  0.21642  1.0000
  H   H1701     1.0  0.73189  0.60499  0.36626  1.0000
  H   H1702     1.0  0.76635  0.73790  0.45441  1.0000
  S   S438      1.0  0.95569  0.57261  0.24616  1.0000
  C   C1071     1.0  0.65281  0.62527  0.24147  1.0000
  H   H1703     1.0  0.80088  0.67394  0.47961  1.0000
  H   H1704     1.0  0.86710  0.75353  0.15016  1.0000
  H   H1705     1.0  0.73093  0.73432  0.44808  1.0000
  H   H1706     1.0  0.71751  0.58570  0.34720  1.0000
  H   H1707     1.0  0.73709  0.59422  0.31908  1.0000
  C   C1072     1.0  0.83282  0.72696  0.21903  1.0000
  C   C1073     1.0  0.83699  0.71908  0.18184  1.0000
  C   C1074     1.0  0.84941  0.72861  0.15702  1.0000
  H   H1708     1.0  0.73542  0.62727  0.28941  1.0000
  H   H1709     1.0  0.81840  0.61625  0.06791  1.0000
  H   H1710     1.0  0.86611  0.64260  0.16450  1.0000
  H   H1711     1.0  0.85268  0.72259  0.12823  1.0000
  H   H1712     1.0  0.74183  0.67556  0.50986  1.0000
  C   C1075     1.0  0.68114  0.74180  0.48585  1.0000
  C   C1076     1.0  0.95226  0.52173  0.35669  1.0000
  H   H1713     1.0  0.87178  0.68342  0.25954  1.0000
  C   C1077     1.0  0.84423  0.74608  0.49688  1.0000
  C   C1078     1.0  0.88066  0.62046  0.08864  1.0000
  C   C1079     1.0  0.88642  0.60150  0.10030  1.0000
  C   C1080     1.0  0.90198  0.59853  0.12652  1.0000
  C   C1081     1.0  0.91181  0.61454  0.14114  1.0000
  C   C1082     1.0  0.90643  0.63338  0.12832  1.0000
  C   C1083     1.0  0.89097  0.63633  0.10212  1.0000
  H   H1714     1.0  0.87858  0.58912  0.08978  1.0000
  H   H1715     1.0  0.90598  0.58396  0.13640  1.0000
  H   H1716     1.0  0.91426  0.64576  0.13890  1.0000
  H   H1717     1.0  0.88705  0.65090  0.09237  1.0000
  H   H1718     1.0  0.96823  0.51261  0.12302  1.0000
  C   C1084     1.0  0.70878  0.72675  0.20040  1.0000
  H   H1719     1.0  0.76871  0.71485  0.47919  1.0000
  N   N107      1.0  0.71254  0.61358  0.31934  1.0000
  H   H1720     1.0  0.85013  0.68289  0.23107  1.0000
  H   H1721     1.0  0.86841  0.68724  0.17001  1.0000
  H   H1722     1.0  0.70415  0.71419  0.21664  1.0000
  H   H1723     1.0  0.72951  0.63799  0.33626  1.0000
  C   C1085     1.0  0.76578  0.73074  0.48384  1.0000
  C   C1086     1.0  0.68338  0.73526  0.44681  1.0000
  H   H1724     1.0  0.70113  0.71488  0.14337  1.0000
  C   C1087     1.0  0.70710  0.72715  0.15893  1.0000
  C   C1088     1.0  0.65010  0.63717  0.30856  1.0000
  C   C1089     1.0  0.71295  0.74341  0.13773  1.0000
  H   H1725     1.0  0.89592  0.64287  0.20417  1.0000
  H   H1726     1.0  0.71551  0.60067  0.26159  1.0000
  C   C1090     1.0  0.76175  0.67041  0.41926  1.0000
  C   C1091     1.0  0.74769  0.67240  0.44782  1.0000
  C   C1092     1.0  0.70430  0.60519  0.28281  1.0000
  C   C1093     1.0  0.71633  0.74263  0.22073  1.0000
  C   C1094     1.0  0.69213  0.74715  0.41940  1.0000
  C   C1095     1.0  0.78094  0.67076  0.43094  1.0000
  H   H1727     1.0  0.73286  0.67198  0.43911  1.0000
  H   H1728     1.0  0.81996  0.72788  0.50172  1.0000
  H   H1729     1.0  0.71425  0.64216  0.29395  1.0000
  H   H1730     1.0  0.79188  0.66918  0.40895  1.0000
  C   C1096     1.0  0.72342  0.63098  0.30933  1.0000
  H   H1731     1.0  0.70276  0.62522  0.37483  1.0000
  C   C1097     1.0  0.85758  0.74609  0.16947  1.0000
  N   N108      1.0  0.74718  0.73436  0.50257  1.0000
  H   H1732     1.0  0.97109  0.51012  0.04996  1.0000
  H   H1733     1.0  0.85273  0.63977  0.20868  1.0000
  H   H1734     1.0  0.69568  0.59223  0.28923  1.0000
  H   H1735     1.0  0.83762  0.75045  0.26011  1.0000
  H   H1736     1.0  0.96117  0.50886  0.50218  1.0000
  N   N109      1.0  0.87230  0.66329  0.21057  1.0000
  H   H1737     1.0  0.89013  0.68749  0.19843  1.0000
  Fe  Fe220     1.0  0.84624  0.69630  0.02310  1.0000
  C   C1098     1.0  0.78606  0.67341  0.47094  1.0000
  C   C1099     1.0  0.85893  0.65075  0.18885  1.0000
  H   H1738     1.0  0.78596  0.73252  0.11046  1.0000
  H   H1739     1.0  0.69470  0.61599  0.26733  1.0000
  C   C1100     1.0  0.77198  0.67517  0.49953  1.0000
  H   H1740     1.0  0.92742  0.52659  0.10176  1.0000
  C   C1101     1.0  0.69709  0.61929  0.34648  1.0000
  H   H1741     1.0  0.82725  0.59722  0.03652  1.0000
  H   H1742     1.0  0.97565  0.55057  0.50428  1.0000
  C   C1102     1.0  0.73200  0.72655  0.47690  1.0000
  C   C1103     1.0  0.86219  0.67363  0.24280  1.0000
  S   S439      1.0  0.71008  0.74404  0.08596  1.0000
  H   H1743     1.0  0.68763  0.63085  0.33314  1.0000
  H   H1744     1.0  0.85623  0.66321  0.26417  1.0000
  H   H1745     1.0  0.88281  0.64006  0.24851  1.0000
  C   C1104     1.0  0.93766  0.52307  0.07788  1.0000
  C   C1105     1.0  0.79628  0.73915  0.13141  1.0000
  C   C1106     1.0  0.75280  0.67444  0.48789  1.0000
  C   C1107     1.0  0.65859  0.63812  0.27152  1.0000
  S   S440      1.0  0.71843  0.74276  0.27256  1.0000
  C   C1108     1.0  0.82630  0.73959  0.48564  1.0000
  H   H1746     1.0  0.81080  0.73572  0.12031  1.0000
  H   H1747     1.0  0.73447  0.71079  0.47033  1.0000
  C   C1109     1.0  0.87997  0.67776  0.18314  1.0000
  H   H1748     1.0  0.95165  0.54018  0.30507  1.0000
  H   H1749     1.0  0.68803  0.60675  0.35347  1.0000
  C   C1110     1.0  0.84082  0.74451  0.23126  1.0000
  H   H1750     1.0  0.72705  0.70650  0.04384  1.0000
  H   H1751     1.0  0.88759  0.67050  0.15829  1.0000
  Fe  Fe221     1.0  0.80981  0.67454  0.03117  1.0000
  H   H1752     1.0  0.69335  0.74248  0.38897  1.0000
  C   C1111     1.0  0.95024  0.52550  0.31601  1.0000
  H   H1753     1.0  0.84696  0.65953  0.17537  1.0000
  H   H1754     1.0  0.82328  0.71955  0.23837  1.0000
  H   H1755     1.0  0.95523  0.53360  0.37684  1.0000
  H   H1756     1.0  0.77763  0.73631  0.50244  1.0000
  H   H1757     1.0  0.64583  0.51387  0.10144  1.0000
  Fe  Fe222     1.0  0.97570  0.55656  0.14388  1.0000
  C   C1112     1.0  0.78275  0.61796  0.03807  1.0000
  H   H1758     1.0  0.92994  0.52450  0.04904  1.0000
  H   H1759     1.0  0.67425  0.73266  0.50706  1.0000
  S   S441      1.0  0.94401  0.51457  0.23852  1.0000
  C   C1113     1.0  0.74385  0.75558  0.50820  1.0000
  H   H1760     1.0  0.97453  0.53496  0.46148  1.0000
  H   H1761     1.0  0.80842  0.59248  0.07028  1.0000
  H   H1762     1.0  0.65429  0.64708  0.33185  1.0000
  H   H1763     1.0  0.65925  0.62593  0.21269  1.0000
  H   H1764     1.0  0.76321  0.74747  0.32934  1.0000
  H   H1765     1.0  0.71792  0.72798  0.49115  1.0000
  H   H1766     1.0  0.77587  0.60728  0.05752  1.0000
  H   H1767     1.0  0.78635  0.63087  0.05658  1.0000
  C   C1114     1.0  0.94624  0.51031  0.28976  1.0000
  S   S442      1.0  0.97860  0.58694  0.16714  1.0000
  H   H1768     1.0  0.72453  0.68339  0.01929  1.0000
  N   N110      1.0  0.79982  0.60935  0.01907  1.0000
  Fe  Fe223     1.0  0.69348  0.68851  0.83410  1.0000
  S   S443      1.0  0.71878  0.69192  0.79580  1.0000
  S   S444      1.0  0.68067  0.71153  0.87385  1.0000
  Fe  Fe224     1.0  0.68745  0.64649  0.80734  1.0000
  S   S445      1.0  0.71254  0.64627  0.76723  1.0000
  S   S446      1.0  0.66665  0.62250  0.81701  1.0000
  Fe  Fe225     1.0  0.72744  0.66193  0.81693  1.0000
  S   S447      1.0  0.75873  0.65782  0.83109  1.0000
  Fe  Fe226     1.0  0.70175  0.67626  0.75002  1.0000
  S   S448      1.0  0.70142  0.68648  0.68706  1.0000
  S   S449      1.0  0.70324  0.65958  0.85893  1.0000
  S   S450      1.0  0.67553  0.67543  0.78626  1.0000
  Fe  Fe227     1.0  0.84756  0.66868  0.59392  1.0000
  S   S451      1.0  0.81912  0.66884  0.62311  1.0000
  S   S452      1.0  0.86681  0.64162  0.59009  1.0000
  Fe  Fe228     1.0  0.84226  0.71036  0.56550  1.0000
  S   S453      1.0  0.81345  0.71393  0.59167  1.0000
  H   H1769     1.0  0.82873  0.74687  0.84460  1.0000
  Fe  Fe229     1.0  0.82633  0.69882  0.64439  1.0000
  S   S454      1.0  0.81578  0.71152  0.70188  1.0000
  Fe  Fe230     1.0  0.80813  0.68399  0.56827  1.0000
  H   H1770     1.0  0.91577  0.57840  0.79288  1.0000
  S   S455      1.0  0.85585  0.69743  0.62027  1.0000
  C   C1115     1.0  0.72677  0.72850  0.97839  1.0000
  Fe  Fe231     1.0  0.94177  0.59028  0.72425  1.0000
  S   S456      1.0  0.94270  0.56372  0.68535  1.0000
  S   S457      1.0  0.91593  0.60961  0.73605  1.0000
  H   H1771     1.0  0.80708  0.58536  0.98060  1.0000
  H   H1772     1.0  0.69704  0.75035  0.62204  1.0000
  C   C1116     1.0  0.95583  0.52665  0.83125  1.0000
  Fe  Fe232     1.0  0.96008  0.54961  0.73444  1.0000
  H   H1773     1.0  0.84450  0.74849  0.62095  1.0000
  C   C1117     1.0  0.86537  0.75299  0.95575  1.0000
  S   S458      1.0  0.95675  0.57526  0.77533  1.0000
  C   C1118     1.0  0.67224  0.60070  0.74860  1.0000
  H   H1774     1.0  0.94343  0.65311  0.62880  1.0000
  H   H1775     1.0  0.78376  0.59604  0.97222  1.0000
  H   H1776     1.0  0.94514  0.60013  0.56164  1.0000
  H   H1777     1.0  0.76080  0.71136  0.68521  1.0000
  S   S459      1.0  0.77978  0.66803  0.01250  1.0000
  S   S460      1.0  0.95561  0.51820  0.75143  1.0000
  C   C1119     1.0  0.82940  0.73072  0.71985  1.0000
  C   C1120     1.0  0.84862  0.73164  0.71072  1.0000
  C   C1121     1.0  0.96684  0.62721  0.59375  1.0000
  H   H1778     1.0  0.66769  0.65698  0.69562  1.0000
  H   H1779     1.0  0.78681  0.67865  0.71433  1.0000
  H   H1780     1.0  0.85517  0.72063  0.69205  1.0000
  H   H1781     1.0  0.71848  0.68231  0.94680  1.0000
  H   H1782     1.0  0.71947  0.73648  0.95371  1.0000
  C   C1122     1.0  0.89282  0.56367  0.73650  1.0000
  H   H1783     1.0  0.66976  0.74601  0.91543  1.0000
  C   C1123     1.0  0.86631  0.71674  0.86877  1.0000
  C   C1124     1.0  0.87969  0.63267  0.63163  1.0000
  C   C1125     1.0  0.89031  0.61511  0.62810  1.0000
  C   C1126     1.0  0.90166  0.60803  0.65979  1.0000
  C   C1127     1.0  0.90211  0.61829  0.69555  1.0000
  C   C1128     1.0  0.89108  0.63556  0.69950  1.0000
  C   C1129     1.0  0.88002  0.64285  0.66751  1.0000
  H   H1784     1.0  0.88975  0.60702  0.60062  1.0000
  H   H1785     1.0  0.90984  0.59453  0.65668  1.0000
  H   H1786     1.0  0.89128  0.64350  0.72720  1.0000
  H   H1787     1.0  0.87182  0.65636  0.67052  1.0000
  C   C1130     1.0  0.69583  0.71162  0.68499  1.0000
  C   C1131     1.0  0.68815  0.72121  0.71786  1.0000
  H   H1788     1.0  0.66467  0.63119  0.68864  1.0000
  N   N111      1.0  0.84648  0.72136  0.85636  1.0000
  C   C1132     1.0  0.80801  0.62396  0.99275  1.0000
  C   C1133     1.0  0.69912  0.72218  0.65046  1.0000
  H   H1789     1.0  0.68545  0.71317  0.74455  1.0000
  N   N112      1.0  0.94589  0.62833  0.58973  1.0000
  H   H1790     1.0  0.70489  0.71478  0.62484  1.0000
  C   C1134     1.0  0.69244  0.73353  0.88071  1.0000
  H   H1791     1.0  0.90802  0.52835  0.75514  1.0000
  C   C1135     1.0  0.66669  0.58668  0.72046  1.0000
  C   C1136     1.0  0.83336  0.71263  0.88461  1.0000
  H   H1792     1.0  0.71736  0.72515  0.84797  1.0000
  H   H1793     1.0  0.87661  0.72348  0.84860  1.0000
  H   H1794     1.0  0.85356  0.74999  0.83619  1.0000
  C   C1137     1.0  0.76480  0.66030  0.88153  1.0000
  C   C1138     1.0  0.75150  0.65679  0.91071  1.0000
  C   C1139     1.0  0.75639  0.65901  0.95079  1.0000
  H   H1795     1.0  0.73894  0.69681  0.93845  1.0000
  C   C1140     1.0  0.78802  0.66823  0.93294  1.0000
  C   C1141     1.0  0.78317  0.66577  0.89275  1.0000
  H   H1796     1.0  0.73753  0.65202  0.90244  1.0000
  H   H1797     1.0  0.81130  0.63744  0.00941  1.0000
  H   H1798     1.0  0.80208  0.67279  0.94135  1.0000
  H   H1799     1.0  0.79355  0.66837  0.87027  1.0000
  H   H1800     1.0  0.89156  0.58387  0.80425  1.0000
  C   C1142     1.0  0.65499  0.50814  0.69177  1.0000
  H   H1801     1.0  0.86934  0.70071  0.86926  1.0000
  H   H1802     1.0  0.74602  0.65615  0.97315  1.0000
  H   H1803     1.0  0.69319  0.69461  0.99182  1.0000
  C   C1143     1.0  0.72955  0.69852  0.01554  1.0000
  H   H1804     1.0  0.68509  0.60868  0.74455  1.0000
  C   C1144     1.0  0.91179  0.54060  0.77521  1.0000
  H   H1805     1.0  0.81826  0.71571  0.87600  1.0000
  C   C1145     1.0  0.82113  0.74489  0.74469  1.0000
  H   H1806     1.0  0.80622  0.74429  0.75165  1.0000
  H   H1807     1.0  0.90524  0.56652  0.83391  1.0000
  H   H1808     1.0  0.87420  0.53520  0.77249  1.0000
  H   H1809     1.0  0.91504  0.53428  0.80495  1.0000
  C   C1146     1.0  0.90249  0.57181  0.80321  1.0000
  H   H1810     1.0  0.74865  0.70845  0.53815  1.0000
  H   H1811     1.0  0.67528  0.58395  0.69468  1.0000
  H   H1812     1.0  0.97346  0.61958  0.56805  1.0000
  H   H1813     1.0  0.92519  0.54658  0.76411  1.0000
  Fe  Fe233     1.0  0.97051  0.57506  0.66524  1.0000
  H   H1814     1.0  0.87846  0.74785  0.94246  1.0000
  H   H1815     1.0  0.66682  0.51847  0.68892  1.0000
  H   H1816     1.0  0.92198  0.64000  0.62189  1.0000
  H   H1817     1.0  0.95733  0.54171  0.82314  1.0000
  S   S461      1.0  0.77764  0.67925  0.54977  1.0000
  H   H1818     1.0  0.90582  0.56987  0.72396  1.0000
  H   H1819     1.0  0.97296  0.64196  0.59611  1.0000
  C   C1147     1.0  0.84326  0.74278  0.85563  1.0000
  H   H1820     1.0  0.66389  0.64150  0.73734  1.0000
  H   H1821     1.0  0.67701  0.74837  0.74122  1.0000
  C   C1148     1.0  0.84304  0.71329  0.81640  1.0000
  H   H1822     1.0  0.82819  0.71639  0.80597  1.0000
  C   C1149     1.0  0.69480  0.74234  0.64893  1.0000
  C   C1150     1.0  0.72033  0.75336  0.87547  1.0000
  H   H1823     1.0  0.65654  0.52506  0.62037  1.0000
  H   H1824     1.0  0.69120  0.71679  0.96398  1.0000
  H   H1825     1.0  0.74520  0.69742  0.01110  1.0000
  C   C1151     1.0  0.93857  0.60837  0.58661  1.0000
  H   H1826     1.0  0.94625  0.63229  0.52670  1.0000
  H   H1827     1.0  0.75876  0.72943  0.56105  1.0000
  H   H1828     1.0  0.95462  0.53287  0.89374  1.0000
  C   C1152     1.0  0.66115  0.60427  0.78199  1.0000
  H   H1829     1.0  0.84546  0.69717  0.81567  1.0000
  N   N113      1.0  0.75952  0.68005  0.68481  1.0000
  C   C1153     1.0  0.78037  0.67736  0.68418  1.0000
  C   C1154     1.0  0.75140  0.66449  0.70891  1.0000
  C   C1155     1.0  0.75184  0.67905  0.64393  1.0000
  C   C1156     1.0  0.75455  0.69932  0.70223  1.0000
  H   H1830     1.0  0.94572  0.65457  0.55497  1.0000
  H   H1831     1.0  0.78686  0.68857  0.66530  1.0000
  H   H1832     1.0  0.78464  0.66278  0.67214  1.0000
  H   H1833     1.0  0.73568  0.66601  0.70955  1.0000
  H   H1834     1.0  0.75499  0.64974  0.69686  1.0000
  H   H1835     1.0  0.75674  0.66496  0.74011  1.0000
  H   H1836     1.0  0.73607  0.68079  0.64319  1.0000
  H   H1837     1.0  0.75561  0.66482  0.62961  1.0000
  H   H1838     1.0  0.75761  0.69068  0.62503  1.0000
  H   H1839     1.0  0.75989  0.70040  0.73330  1.0000
  H   H1840     1.0  0.73887  0.70195  0.70261  1.0000
  C   C1157     1.0  0.85969  0.74632  0.72733  1.0000
  N   N114      1.0  0.89653  0.55585  0.77668  1.0000
  S   S462      1.0  0.86254  0.71581  0.98326  1.0000
  C   C1158     1.0  0.71059  0.73633  0.86580  1.0000
  C   C1159     1.0  0.77454  0.66496  0.96196  1.0000
  H   H1841     1.0  0.78834  0.58068  0.01450  1.0000
  H   H1842     1.0  0.94084  0.62989  0.65235  1.0000
  C   C1160     1.0  0.95435  0.52161  0.87127  1.0000
  C   C1161     1.0  0.72351  0.69753  0.94508  1.0000
  C   C1162     1.0  0.97051  0.51355  0.52706  1.0000
  H   H1843     1.0  0.72417  0.73713  0.00580  1.0000
  C   C1163     1.0  0.68692  0.75188  0.68174  1.0000
  H   H1844     1.0  0.85265  0.71972  0.79442  1.0000
  C   C1164     1.0  0.87904  0.54732  0.79182  1.0000
  C   C1165     1.0  0.95512  0.51220  0.80202  1.0000
  C   C1166     1.0  0.68345  0.74121  0.71603  1.0000
  H   H1845     1.0  0.86932  0.72225  0.89910  1.0000
  C   C1167     1.0  0.83849  0.74749  0.99752  1.0000
  H   H1846     1.0  0.79794  0.62832  0.96842  1.0000
  H   H1847     1.0  0.83558  0.69650  0.88641  1.0000
  H   H1848     1.0  0.74228  0.72840  0.97271  1.0000
  H   H1849     1.0  0.71608  0.70445  0.91928  1.0000
  H   H1850     1.0  0.97145  0.61883  0.62051  1.0000
  H   H1851     1.0  0.86725  0.55847  0.79327  1.0000
  C   C1168     1.0  0.79451  0.59207  0.99557  1.0000
  H   H1852     1.0  0.83556  0.71854  0.91502  1.0000
  H   H1853     1.0  0.88800  0.55214  0.71572  1.0000
  H   H1854     1.0  0.92466  0.64057  0.54988  1.0000
  C   C1169     1.0  0.65971  0.64417  0.70592  1.0000
  C   C1170     1.0  0.85504  0.74045  0.97935  1.0000
  H   H1855     1.0  0.94177  0.59980  0.61397  1.0000
  H   H1856     1.0  0.88138  0.54126  0.82209  1.0000
  H   H1857     1.0  0.87471  0.74663  0.72111  1.0000
  H   H1858     1.0  0.88184  0.57571  0.73657  1.0000
  C   C1171     1.0  0.94041  0.63943  0.55371  1.0000
  S   S463      1.0  0.83598  0.68161  0.53674  1.0000
  S   S464      1.0  0.96833  0.60271  0.70059  1.0000
  S   S465      1.0  0.97710  0.57567  0.60043  1.0000
  H   H1859     1.0  0.92294  0.60863  0.58166  1.0000
  H   H1860     1.0  0.77202  0.62321  0.01566  1.0000
  C   C1172     1.0  0.93771  0.63826  0.62471  1.0000
  H   H1861     1.0  0.82147  0.61844  0.97932  1.0000
  N   N115      1.0  0.71972  0.70848  0.98198  1.0000
  S   S466      1.0  0.83654  0.66779  0.99804  1.0000
  H   H1862     1.0  0.84490  0.74928  0.88558  1.0000
  H   H1863     1.0  0.73335  0.72752  0.55688  1.0000
  H   H1864     1.0  0.96224  0.52437  0.54496  1.0000
  C   C1173     1.0  0.68386  0.74804  0.90413  1.0000
  S   S467      1.0  0.85618  0.73617  0.53844  1.0000
  H   H1865     1.0  0.73463  0.75519  0.86516  1.0000
  H   H1866     1.0  0.81928  0.75514  0.56965  1.0000
  H   H1867     1.0  0.81135  0.74985  0.64092  1.0000
  C   C1174     1.0  0.74699  0.72455  0.54143  1.0000
  C   C1175     1.0  0.64997  0.57632  0.72542  1.0000
  H   H1868     1.0  0.83053  0.73804  0.01596  1.0000
  C   C1176     1.0  0.69904  0.70945  0.98894  1.0000
  H   H1869     1.0  0.69566  0.71776  0.01644  1.0000
  Fe  Fe234     1.0  0.69443  0.81398  0.04309  1.0000
  N   N116      1.0  0.89687  0.82662  0.22182  1.0000
  H   H1870     1.0  0.76247  0.75865  0.12890  1.0000
  Fe  Fe235     1.0  0.71301  0.77390  0.05928  1.0000
  H   H1871     1.0  0.67243  0.80641  0.19254  1.0000
  H   H1872     1.0  0.72814  0.77115  0.21501  1.0000
  Fe  Fe236     1.0  0.73737  0.80953  0.05470  1.0000
  S   S468      1.0  0.76611  0.81958  0.07508  1.0000
  H   H1873     1.0  0.77183  0.78188  0.27488  1.0000
  C   C1177     1.0  0.91942  0.96744  0.09254  1.0000
  S   S469      1.0  0.71291  0.80210  0.09284  1.0000
  C   C1178     1.0  0.79498  0.76988  0.09654  1.0000
  C   C1179     1.0  0.68854  0.75973  0.49790  1.0000
  H   H1874     1.0  0.87399  0.98098  0.46126  1.0000
  Fe  Fe237     1.0  0.93259  0.91813  0.45745  1.0000
  S   S470      1.0  0.93266  0.94648  0.42417  1.0000
  S   S471      1.0  0.90842  0.89737  0.46570  1.0000
  H   H1875     1.0  0.93397  0.96071  0.09083  1.0000
  H   H1876     1.0  0.92101  0.98332  0.09854  1.0000
  C   C1180     1.0  0.86520  0.93397  0.48571  1.0000
  S   S472      1.0  0.96177  0.90861  0.43866  1.0000
  Fe  Fe238     1.0  0.97198  0.92419  0.49306  1.0000
  Fe  Fe239     1.0  0.82691  0.79275  0.34884  1.0000
  S   S473      1.0  0.85731  0.79615  0.33036  1.0000
  H   H1877     1.0  0.75025  0.76849  0.27530  1.0000
  Fe  Fe240     1.0  0.81036  0.81731  0.28238  1.0000
  S   S474      1.0  0.83876  0.82344  0.25761  1.0000
  S   S475      1.0  0.78062  0.82420  0.26018  1.0000
  Fe  Fe241     1.0  0.84604  0.79193  0.26864  1.0000
  H   H1878     1.0  0.65960  0.77390  0.20923  1.0000
  Fe  Fe242     1.0  0.84888  0.82780  0.32055  1.0000
  S   S476      1.0  0.87103  0.85140  0.32176  1.0000
  S   S477      1.0  0.81676  0.78537  0.28759  1.0000
  S   S478      1.0  0.81931  0.82480  0.34446  1.0000
  H   H1879     1.0  0.87900  0.81488  0.26609  1.0000
  H   H1880     1.0  0.85240  0.96799  0.45358  1.0000
  C   C1181     1.0  0.96333  0.98717  0.10876  1.0000
  C   C1182     1.0  0.96625  0.98423  0.06819  1.0000
  Fe  Fe243     1.0  0.96287  0.93803  0.41013  1.0000
  H   H1881     1.0  0.97463  0.96251  0.26832  1.0000
  H   H1882     1.0  0.86129  0.97223  0.50292  1.0000
  C   C1183     1.0  0.89833  0.88442  0.42560  1.0000
  C   C1184     1.0  0.90411  0.88739  0.38681  1.0000
  C   C1185     1.0  0.89558  0.87710  0.35549  1.0000
  C   C1186     1.0  0.88129  0.86369  0.36260  1.0000
  C   C1187     1.0  0.87560  0.86060  0.40147  1.0000
  C   C1188     1.0  0.88407  0.87099  0.43283  1.0000
  H   H1883     1.0  0.91507  0.89768  0.38083  1.0000
  H   H1884     1.0  0.90005  0.87961  0.32551  1.0000
  H   H1885     1.0  0.86460  0.85034  0.40730  1.0000
  H   H1886     1.0  0.87950  0.86862  0.46278  1.0000
  C   C1189     1.0  0.76997  0.82114  0.12657  1.0000
  C   C1190     1.0  0.78857  0.82240  0.14158  1.0000
  C   C1191     1.0  0.79203  0.82310  0.18260  1.0000
  C   C1192     1.0  0.77685  0.82290  0.20873  1.0000
  C   C1193     1.0  0.75826  0.82175  0.19373  1.0000
  C   C1194     1.0  0.75484  0.82076  0.15278  1.0000
  H   H1887     1.0  0.80035  0.82287  0.12146  1.0000
  H   H1888     1.0  0.80639  0.82418  0.19396  1.0000
  H   H1889     1.0  0.74645  0.82181  0.21381  1.0000
  H   H1890     1.0  0.74045  0.82023  0.14159  1.0000
  C   C1195     1.0  0.65753  0.82160  0.49021  1.0000
  S   S479      1.0  0.94272  0.93174  0.51418  1.0000
  C   C1196     1.0  0.76966  0.79561  0.34895  1.0000
  H   H1891     1.0  0.87427  0.84730  0.23493  1.0000
  C   C1197     1.0  0.69937  0.76509  0.43130  1.0000
  C   C1198     1.0  0.66330  0.76887  0.17891  1.0000
  S   S480      1.0  0.70887  0.79277  0.48512  1.0000
  H   H1892     1.0  0.91984  0.83522  0.18517  1.0000
  H   H1893     1.0  0.80577  0.76144  0.19348  1.0000
  H   H1894     1.0  0.65910  0.86485  0.44135  1.0000
  C   C1199     1.0  0.77336  0.76433  0.14986  1.0000
  H   H1895     1.0  0.78461  0.76434  0.07435  1.0000
  C   C1200     1.0  0.80673  0.76843  0.16394  1.0000
  N   N117      1.0  0.90841  0.96412  0.05570  1.0000
  H   H1896     1.0  0.73181  0.79126  0.34287  1.0000
  C   C1201     1.0  0.88626  0.81766  0.18870  1.0000
  C   C1202     1.0  0.74055  0.77788  0.34978  1.0000
  H   H1897     1.0  0.64884  0.86025  0.48825  1.0000
  H   H1898     1.0  0.76197  0.80967  0.34223  1.0000
  S   S481      1.0  0.66690  0.82958  0.06022  1.0000
  H   H1899     1.0  0.78409  0.79667  0.33643  1.0000
  H   H1900     1.0  0.90183  0.82162  0.28404  1.0000
  H   H1901     1.0  0.69051  0.85546  0.47088  1.0000
  H   H1902     1.0  0.96691  0.00606  0.25268  1.0000
  C   C1203     1.0  0.82482  0.76326  0.43204  1.0000
  H   H1903     1.0  0.69431  0.83171  0.49242  1.0000
  H   H1904     1.0  0.79258  0.78598  0.09852  1.0000
  S   S482      1.0  0.97561  0.95300  0.46291  1.0000
  H   H1905     1.0  0.77157  0.79439  0.38160  1.0000
  C   C1204     1.0  0.96011  0.99843  0.04089  1.0000
  H   H1906     1.0  0.89112  0.80224  0.18362  1.0000
  C   C1205     1.0  0.91729  0.82673  0.21251  1.0000
  C   C1206     1.0  0.89422  0.81519  0.25823  1.0000
  C   C1207     1.0  0.88968  0.84688  0.22790  1.0000
  H   H1907     1.0  0.92314  0.81164  0.20783  1.0000
  H   H1908     1.0  0.85194  0.93229  0.46785  1.0000
  H   H1909     1.0  0.88966  0.98897  0.06495  1.0000
  Fe  Fe244     1.0  0.94536  0.95923  0.47959  1.0000
  H   H1910     1.0  0.89154  0.85602  0.20120  1.0000
  H   H1911     1.0  0.70636  0.77409  0.41006  1.0000
  H   H1912     1.0  0.92566  0.83342  0.23698  1.0000
  C   C1208     1.0  0.90711  0.94289  0.04854  1.0000
  H   H1913     1.0  0.87078  0.81733  0.19486  1.0000
  H   H1914     1.0  0.82155  0.76604  0.15367  1.0000
  H   H1915     1.0  0.74956  0.79464  0.28090  1.0000
  N   N118      1.0  0.75960  0.77875  0.33225  1.0000
  C   C1209     1.0  0.97890  0.00131  0.27259  1.0000
  H   H1916     1.0  0.68233  0.81560  0.43198  1.0000
  C   C1210     1.0  0.88912  0.97294  0.05949  1.0000
  H   H1917     1.0  0.91249  0.96105  0.11865  1.0000
  H   H1918     1.0  0.68255  0.77149  0.11103  1.0000
  H   H1919     1.0  0.88144  0.96643  0.08453  1.0000
  H   H1920     1.0  0.86920  0.94415  0.40982  1.0000
  C   C1211     1.0  0.88196  0.94571  0.42925  1.0000
  C   C1212     1.0  0.66787  0.77781  0.11084  1.0000
  H   H1921     1.0  0.89051  0.93182  0.42707  1.0000
  H   H1922     1.0  0.84921  0.78124  0.42668  1.0000
  H   H1923     1.0  0.89711  0.85399  0.25320  1.0000
  H   H1924     1.0  0.96769  0.97588  0.12962  1.0000
  C   C1213     1.0  0.75769  0.78100  0.28890  1.0000
  S   S483      1.0  0.73870  0.78043  0.02452  1.0000
  H   H1925     1.0  0.92846  0.85698  0.48126  1.0000
  C   C1214     1.0  0.68357  0.84369  0.48745  1.0000
  H   H1926     1.0  0.88795  0.82581  0.16063  1.0000
  H   H1927     1.0  0.74149  0.77646  0.38252  1.0000
  S   S484      1.0  0.86241  0.77668  0.22042  1.0000
  C   C1215     1.0  0.65293  0.85327  0.45979  1.0000
  H   H1928     1.0  0.66718  0.78967  0.08837  1.0000
  H   H1929     1.0  0.65961  0.82284  0.41110  1.0000
  H   H1930     1.0  0.69091  0.79385  0.16584  1.0000
  H   H1931     1.0  0.89921  0.79972  0.25467  1.0000
  H   H1932     1.0  0.65324  0.75732  0.17023  1.0000
  H   H1933     1.0  0.74351  0.76352  0.47952  1.0000
  H   H1934     1.0  0.89058  0.95753  0.41675  1.0000
  H   H1935     1.0  0.66742  0.80886  0.49559  1.0000
  H   H1936     1.0  0.96873  0.97351  0.22133  1.0000
  H   H1937     1.0  0.89981  0.93548  0.07300  1.0000
  H   H1938     1.0  0.88045  0.97071  0.03213  1.0000
  S   S485      1.0  0.93589  0.98921  0.50049  1.0000
  N   N119      1.0  0.87668  0.94999  0.47059  1.0000
  S   S486      1.0  0.81188  0.77409  0.39271  1.0000
  C   C1216     1.0  0.95454  0.00447  0.12228  1.0000
  C   C1217     1.0  0.69791  0.77122  0.47065  1.0000
  H   H1939     1.0  0.72566  0.77155  0.14208  1.0000
  C   C1218     1.0  0.67620  0.80015  0.16321  1.0000
  H   H1940     1.0  0.97260  0.99516  0.29970  1.0000
  C   C1219     1.0  0.72067  0.75918  0.15811  1.0000
  H   H1941     1.0  0.67641  0.81248  0.14175  1.0000
  H   H1942     1.0  0.94503  0.87073  0.45434  1.0000
  H   H1943     1.0  0.77035  0.78028  0.15349  1.0000
  H   H1944     1.0  0.67915  0.83916  0.40918  1.0000
  C   C1220     1.0  0.77051  0.76050  0.34129  1.0000
  N   N120      1.0  0.66265  0.78522  0.15039  1.0000
  C   C1221     1.0  0.84282  0.76963  0.44302  1.0000
  H   H1945     1.0  0.67775  0.76180  0.18075  1.0000
  H   H1946     1.0  0.97316  0.97090  0.05818  1.0000
  H   H1947     1.0  0.78495  0.76063  0.32836  1.0000
  C   C1222     1.0  0.86557  0.96861  0.47214  1.0000
  H   H1948     1.0  0.73266  0.76516  0.33822  1.0000
  N   N121      1.0  0.66654  0.83671  0.46631  1.0000
  C   C1223     1.0  0.67214  0.82822  0.42786  1.0000
  H   H1949     1.0  0.67995  0.84971  0.51699  1.0000
  C   C1224     1.0  0.72226  0.75884  0.19948  1.0000
  C   C1225     1.0  0.94381  0.85793  0.47421  1.0000
  S   S487      1.0  0.97423  0.94145  0.34893  1.0000
  H   H1950     1.0  0.80444  0.78442  0.16818  1.0000
  C   C1226     1.0  0.65824  0.85034  0.03369  1.0000
  H   H1951     1.0  0.87323  0.91971  0.48462  1.0000
  C   C1227     1.0  0.85245  0.76113  0.47564  1.0000
  H   H1952     1.0  0.95120  0.89096  0.51371  1.0000
  H   H1953     1.0  0.90328  0.96339  0.48444  1.0000
  C   C1228     1.0  0.89406  0.95165  0.49529  1.0000
  H   H1954     1.0  0.77256  0.75849  0.37372  1.0000
  S   S488      1.0  0.94876  0.00675  0.17247  1.0000
  H   H1955     1.0  0.86632  0.76618  0.48433  1.0000
  H   H1956     1.0  0.94802  0.84468  0.45702  1.0000
  H   H1957     1.0  0.90258  0.93774  0.49529  1.0000
  H   H1958     1.0  0.91931  0.98924  0.02646  1.0000
  H   H1959     1.0  0.80951  0.76721  0.08473  1.0000
  N   N122      1.0  0.79282  0.76045  0.13544  1.0000
  H   H1960     1.0  0.65826  0.76617  0.10052  1.0000
  C   C1229     1.0  0.97582  0.86150  0.49968  1.0000
  H   H1961     1.0  0.97400  0.00264  0.49935  1.0000
  H   H1962     1.0  0.92145  0.93575  0.04583  1.0000
  H   H1963     1.0  0.77118  0.75731  0.17903  1.0000
  N   N123      1.0  0.95564  0.85998  0.51044  1.0000
  H   H1964     1.0  0.97805  0.87438  0.48048  1.0000
  H   H1965     1.0  0.89917  0.93975  0.02059  1.0000
  H   H1966     1.0  0.86112  0.93656  0.51699  1.0000
  H   H1967     1.0  0.93264  0.96701  0.01869  1.0000
  C   C1230     1.0  0.91801  0.97320  0.02217  1.0000
  Fe  Fe245     1.0  0.69792  0.83546  0.60053  1.0000
  H   H1968     1.0  0.89522  0.87365  0.97668  1.0000
  C   C1231     1.0  0.83210  0.76686  0.99141  1.0000
  Fe  Fe246     1.0  0.69545  0.79451  0.63404  1.0000
  S   S489      1.0  0.72048  0.78287  0.60032  1.0000
  H   H1969     1.0  0.82568  0.77082  0.77953  1.0000
  Fe  Fe247     1.0  0.73415  0.81057  0.61946  1.0000
  S   S490      1.0  0.76477  0.80600  0.63960  1.0000
  H   H1970     1.0  0.78993  0.84650  0.90827  1.0000
  H   H1971     1.0  0.80616  0.83685  0.94555  1.0000
  S   S491      1.0  0.70976  0.82138  0.65615  1.0000
  S   S492      1.0  0.68143  0.80945  0.58157  1.0000
  H   H1972     1.0  0.79512  0.81279  0.99436  1.0000
  H   H1973     1.0  0.94126  0.97521  0.85048  1.0000
  H   H1974     1.0  0.75990  0.83952  0.99667  1.0000
  S   S493      1.0  0.94569  0.94874  0.92748  1.0000
  H   H1975     1.0  0.68206  0.85181  0.99483  1.0000
  C   C1232     1.0  0.65822  0.88940  0.55870  1.0000
  C   C1233     1.0  0.85152  0.76038  0.75245  1.0000
  C   C1234     1.0  0.85872  0.77218  0.94879  1.0000
  H   H1976     1.0  0.93836  0.84126  0.54476  1.0000
  C   C1235     1.0  0.66131  0.87499  0.98276  1.0000
  Fe  Fe248     1.0  0.84101  0.81282  0.89606  1.0000
  S   S494      1.0  0.86912  0.81244  0.86550  1.0000
  S   S495      1.0  0.83322  0.80281  0.95680  1.0000
  Fe  Fe249     1.0  0.81915  0.82882  0.82554  1.0000
  S   S496      1.0  0.84508  0.83032  0.78800  1.0000
  S   S497      1.0  0.78869  0.83667  0.80957  1.0000
  Fe  Fe250     1.0  0.85272  0.80087  0.81332  1.0000
  H   H1977     1.0  0.78402  0.84692  0.99868  1.0000
  Fe  Fe251     1.0  0.85973  0.84197  0.84250  1.0000
  S   S498      1.0  0.87990  0.86683  0.83489  1.0000
  S   S499      1.0  0.82557  0.79832  0.84622  1.0000
  S   S500      1.0  0.83297  0.84340  0.87756  1.0000
  C   C1236     1.0  0.95297  0.88819  0.83955  1.0000
  C   C1237     1.0  0.71192  0.76752  0.90013  1.0000
  C   C1238     1.0  0.94604  0.98379  0.61863  1.0000
  C   C1239     1.0  0.94380  0.97943  0.57824  1.0000
  C   C1240     1.0  0.93635  0.00312  0.79412  1.0000
  H   H1978     1.0  0.94848  0.97207  0.63964  1.0000
  H   H1979     1.0  0.94460  0.96444  0.56845  1.0000
  C   C1241     1.0  0.90819  0.89579  0.94184  1.0000
  C   C1242     1.0  0.91003  0.90348  0.90390  1.0000
  C   C1243     1.0  0.90070  0.89484  0.87158  1.0000
  C   C1244     1.0  0.88970  0.87832  0.87686  1.0000
  C   C1245     1.0  0.88761  0.87080  0.91489  1.0000
  C   C1246     1.0  0.89674  0.87962  0.94736  1.0000
  H   H1980     1.0  0.91861  0.91609  0.89945  1.0000
  H   H1981     1.0  0.90214  0.90086  0.84226  1.0000
  H   H1982     1.0  0.87913  0.85807  0.91921  1.0000
  S   S501      1.0  0.86621  0.77753  0.77502  1.0000
  C   C1247     1.0  0.77117  0.81502  0.68665  1.0000
  C   C1248     1.0  0.78870  0.80915  0.70353  1.0000
  C   C1249     1.0  0.79416  0.81580  0.74115  1.0000
  C   C1250     1.0  0.78208  0.82843  0.76219  1.0000
  C   C1251     1.0  0.76449  0.83432  0.74548  1.0000
  C   C1252     1.0  0.75907  0.82769  0.70768  1.0000
  H   H1983     1.0  0.79812  0.79944  0.68761  1.0000
  H   H1984     1.0  0.80772  0.81116  0.75389  1.0000
  H   H1985     1.0  0.75520  0.84428  0.76151  1.0000
  H   H1986     1.0  0.74572  0.83265  0.69457  1.0000
  C   C1253     1.0  0.82026  0.77098  0.57640  1.0000
  H   H1987     1.0  0.95505  0.99628  0.86178  1.0000
  H   H1988     1.0  0.75699  0.83600  0.90566  1.0000
  H   H1989     1.0  0.83065  0.77690  0.55535  1.0000
  S   S502      1.0  0.72487  0.78756  0.91631  1.0000
  H   H1990     1.0  0.79777  0.77251  0.63945  1.0000
  C   C1254     1.0  0.70760  0.77691  0.78548  1.0000
  H   H1991     1.0  0.71913  0.78053  0.71038  1.0000
  S   S503      1.0  0.96346  0.93728  0.01502  1.0000
  H   H1992     1.0  0.85032  0.76730  0.65584  1.0000
  H   H1993     1.0  0.74438  0.77849  0.80779  1.0000
  H   H1994     1.0  0.96478  0.89399  0.85791  1.0000
  H   H1995     1.0  0.78773  0.79764  0.95405  1.0000
  N   N124      1.0  0.95272  0.98936  0.79981  1.0000
  H   H1996     1.0  0.93850  0.86238  0.78771  1.0000
  H   H1997     1.0  0.76465  0.81083  0.90389  1.0000
  S   S504      1.0  0.72390  0.82718  0.56578  1.0000
  S   S505      1.0  0.92046  0.90591  0.98243  1.0000
  C   C1255     1.0  0.83213  0.75988  0.76054  1.0000
  S   S506      1.0  0.68657  0.86663  0.59376  1.0000
  C   C1256     1.0  0.97044  0.99893  0.78900  1.0000
  C   C1257     1.0  0.94948  0.87777  0.53206  1.0000
  H   H1998     1.0  0.68726  0.76448  0.52832  1.0000
  H   H1999     1.0  0.96246  0.96156  0.77705  1.0000
  Fe  Fe252     1.0  0.96511  0.96226  0.97257  1.0000
  H   H2000     1.0  0.74104  0.79203  0.72179  1.0000
  C   C1258     1.0  0.69355  0.76500  0.91371  1.0000
  H   H2001     1.0  0.70093  0.80822  0.73976  1.0000
  C   C1259     1.0  0.81224  0.76593  0.64473  1.0000
  H   H2002     1.0  0.70158  0.78212  0.81402  1.0000
  H   H2003     1.0  0.89069  0.95516  0.52660  1.0000
  H   H2004     1.0  0.92276  0.99628  0.80182  1.0000
  H   H2005     1.0  0.65285  0.84315  0.59202  1.0000
  H   H2006     1.0  0.81618  0.76859  0.67623  1.0000
  H   H2007     1.0  0.85586  0.76991  0.60436  1.0000
  H   H2008     1.0  0.65317  0.82747  0.51951  1.0000
  C   C1260     1.0  0.64937  0.85701  0.57813  1.0000
  H   H2009     1.0  0.81923  0.77224  0.00523  1.0000
  H   H2010     1.0  0.80616  0.77809  0.56981  1.0000
  H   H2011     1.0  0.72997  0.75875  0.52253  1.0000
  H   H2012     1.0  0.93423  0.87741  0.54014  1.0000
  C   C1261     1.0  0.94671  0.86297  0.88707  1.0000
  H   H2013     1.0  0.68673  0.77615  0.93158  1.0000
  N   N125      1.0  0.95112  0.86695  0.84529  1.0000
  H   H2014     1.0  0.79815  0.82154  0.90593  1.0000
  C   C1262     1.0  0.76120  0.82317  0.92429  1.0000
  H   H2015     1.0  0.96667  0.97383  0.84764  1.0000
  H   H2016     1.0  0.74805  0.80286  0.79055  1.0000
  S   S507      1.0  0.71909  0.82403  0.00739  1.0000
  H   H2017     1.0  0.95782  0.86857  0.90758  1.0000
  C   C1263     1.0  0.73708  0.79269  0.80077  1.0000
  H   H2018     1.0  0.94550  0.84706  0.89261  1.0000
  H   H2019     1.0  0.83789  0.80220  0.60557  1.0000
  H   H2020     1.0  0.70634  0.81615  0.78924  1.0000
  N   N126      1.0  0.77746  0.82749  0.95067  1.0000
  C   C1264     1.0  0.77209  0.84350  0.97805  1.0000
  C   C1265     1.0  0.79361  0.83340  0.92660  1.0000
  C   C1266     1.0  0.66310  0.87128  0.57609  1.0000
  H   H2021     1.0  0.91026  0.97082  0.99372  1.0000
  S   S508      1.0  0.68131  0.77707  0.68094  1.0000
  H   H2022     1.0  0.96217  0.84389  0.56358  1.0000
  H   H2023     1.0  0.86663  0.78169  0.93006  1.0000
  S   S509      1.0  0.96150  0.99405  0.98968  1.0000
  Fe  Fe253     1.0  0.94643  0.92267  0.96734  1.0000
  H   H2024     1.0  0.96835  0.84074  0.83882  1.0000
  N   N127      1.0  0.72189  0.79036  0.77059  1.0000
  C   C1267     1.0  0.78305  0.80987  0.97369  1.0000
  H   H2025     1.0  0.93355  0.84390  0.82357  1.0000
  C   C1268     1.0  0.84204  0.77910  0.96646  1.0000
  C   C1269     1.0  0.82749  0.79544  0.62540  1.0000
  Fe  Fe254     1.0  0.71847  0.79404  0.98027  1.0000
  C   C1270     1.0  0.94002  0.99442  0.55101  1.0000
  H   H2026     1.0  0.77110  0.80480  0.99174  1.0000
  H   H2027     1.0  0.95602  0.89181  0.80826  1.0000
  Fe  Fe255     1.0  0.97231  0.93519  0.90233  1.0000
  H   H2028     1.0  0.69554  0.77558  0.76407  1.0000
  C   C1271     1.0  0.84505  0.76461  0.62516  1.0000
  S   S510      1.0  0.69259  0.78490  0.01253  1.0000
  H   H2029     1.0  0.66942  0.88119  0.95921  1.0000
  H   H2030     1.0  0.92183  0.86733  0.82612  1.0000
  H   H2031     1.0  0.74859  0.81909  0.94145  1.0000
  N   N128      1.0  0.82627  0.77423  0.61791  1.0000
  H   H2032     1.0  0.73711  0.76771  0.73895  1.0000
  H   H2033     1.0  0.93296  0.87002  0.89561  1.0000
  H   H2034     1.0  0.76796  0.85709  0.96175  1.0000
  Fe  Fe256     1.0  0.70802  0.80039  0.54988  1.0000
  C   C1272     1.0  0.66850  0.85833  0.00289  1.0000
  H   H2035     1.0  0.73129  0.79866  0.82896  1.0000
  H   H2036     1.0  0.93979  0.89644  0.84775  1.0000
  C   C1273     1.0  0.93564  0.85981  0.81950  1.0000
  H   H2037     1.0  0.81347  0.80311  0.62045  1.0000
  C   C1274     1.0  0.95342  0.84276  0.53599  1.0000
  H   H2038     1.0  0.93720  0.96410  0.78215  1.0000
  H   H2039     1.0  0.66876  0.90054  0.55710  1.0000
  S   S511      1.0  0.97176  0.90816  0.93922  1.0000
  H   H2040     1.0  0.72289  0.82003  0.75029  1.0000
  H   H2041     1.0  0.94879  0.97624  0.74255  1.0000
  C   C1275     1.0  0.95395  0.98340  0.84177  1.0000
  H   H2042     1.0  0.96997  0.00380  0.75759  1.0000
  C   C1276     1.0  0.73018  0.78229  0.73388  1.0000
  C   C1277     1.0  0.71262  0.80955  0.76214  1.0000
  C   C1278     1.0  0.95016  0.97204  0.77432  1.0000
  H   H2043     1.0  0.95812  0.87993  0.55950  1.0000
  H   H2044     1.0  0.83205  0.79845  0.65647  1.0000
  S   S512      1.0  0.97523  0.93430  0.83612  1.0000
  H   H2045     1.0  0.71378  0.76197  0.79041  1.0000
  C   C1279     1.0  0.96921  0.85683  0.83507  1.0000
  C   C1280     1.0  0.94518  0.00320  0.63191  1.0000
  H   H2046     1.0  0.97307  0.85967  0.80384  1.0000
  H   H2047     1.0  0.75507  0.76205  0.52724  1.0000
  H   H2048     1.0  0.95793  0.82904  0.52061  1.0000
