data_image0
_chemical_formula_structural       FeS2FeS2FeSFeS3FeS2FeS2FeSFeS3FeS2FeS2FeSFeS3FeS2FeS2FeSFeS3FeS2FeS2FeSFeS3FeS2FeS2FeSFeS3FeS2FeS2FeSFeS3FeS2FeS2FeSFeS3C6H4C6H4C6H4C6H4C6H4C6H4C6H4C6H4C6H4C6H4C6H4C6H4C6H4C6H4C6H4C6H4NC4H12NC4H12NC4H12NC4H12NC4H12NC4H12NC4H12NC4H12NC4H12NC4H12NC4H12NC4H12NC4H12NC4H12NC4H12NC4H12
_chemical_formula_sum              "Fe32 S64 C160 H256 N16"
_cell_length_a       25.590833951434504
_cell_length_b       22.29583709981014
_cell_length_c       27.945208110603726
_cell_angle_alpha    90.66308473456021
_cell_angle_beta     88.64736206669781
_cell_angle_gamma    90.57206724426159

_space_group_name_H-M_alt    "P 1"
_space_group_IT_number       1

loop_
  _space_group_symop_operation_xyz
  'x, y, z'

loop_
  _atom_site_type_symbol
  _atom_site_label
  _atom_site_symmetry_multiplicity
  _atom_site_fract_x
  _atom_site_fract_y
  _atom_site_fract_z
  _atom_site_occupancy
  Fe  Fe1       1.0  0.06405119142640436  0.9796532940247115  0.4079434456402625  1.0000
  S   S1        1.0  0.996611093120902  0.9202653204860278  0.4292538423201383  1.0000
  S   S2        1.0  0.09152329273334536  0.980658316754776  0.33143768633827925  1.0000
  Fe  Fe2       1.0  0.07317537106548566  0.03309816033135782  0.5070874594670868  1.0000
  S   S3        1.0  0.00672762108975089  0.9783093252970229  0.537351059285408  1.0000
  S   S4        1.0  0.11572354421970611  0.10218872927633948  0.5507178126923675  1.0000
  Fe  Fe3       1.0  0.0428790601729665  0.9029176504512056  0.49457868538721494  1.0000
  S   S5        1.0  0.04505665488409494  0.8107187849446617  0.5260287618037176  1.0000
  Fe  Fe4       1.0  0.9671202891184185  0.000876602085947864  0.4692763839789106  1.0000
  S   S6        1.0  0.8841627886728373  0.029001671059914802  0.4602992988989544  1.0000
  S   S7        1.0  0.11342172279233725  0.9558564386646631  0.4698460861024473  1.0000
  S   S8        1.0  0.03065012854304361  0.06219491751025297  0.44239763596836723  1.0000
  Fe  Fe5       1.0  0.9578154106127278  0.7374236373282926  0.1977314790180733  1.0000
  S   S9        1.0  0.9541866071477016  0.8153937984932466  0.14844460446809737  1.0000
  S   S10       1.0  0.01587296577336139  0.7289657971160017  0.25576976017533337  1.0000
  Fe  Fe6       1.0  0.8663981833581224  0.6731565302767575  0.1530090215678126  1.0000
  S   S11       1.0  0.8545356926787679  0.7457409680601041  0.09991402782701875  1.0000
  S   S12       1.0  0.8119879730361774  0.5938443499135876  0.15088339399440276  1.0000
  Fe  Fe7       1.0  0.9415955607461777  0.7457420921167804  0.09146294952712819  1.0000
  S   S13       1.0  0.9833899952528333  0.7587239837353941  0.020833470207902938  1.0000
  Fe  Fe8       1.0  0.8681897426028173  0.808182456633315  0.16168943486223997  1.0000
  S   S14       1.0  0.8200621606369113  0.8904337862652039  0.17012772667057963  1.0000
  S   S15       1.0  0.9530786876198556  0.6675353496456692  0.13978482356504207  1.0000
  S   S16       1.0  0.8720301235965912  0.7357569605800144  0.2161221522336226  1.0000
  Fe  Fe9       1.0  0.17038256137025665  0.5316764576071841  0.42226035783464333  1.0000
  S   S17       1.0  0.08809110866837214  0.5116928385874792  0.40087116683202917  1.0000
  S   S18       1.0  0.19864294403839253  0.627169243129208  0.42613245861745197  1.0000
  Fe  Fe10      1.0  0.20063727766120837  0.40027265742776436  0.4232246346118646  1.0000
  S   S19       1.0  0.1213932593760945  0.3694067662608997  0.400672328407935  1.0000
  S   S20       1.0  0.26298057887732473  0.3306988630626904  0.4284833452283597  1.0000
  Fe  Fe11      1.0  0.12544214926002087  0.4461032748112751  0.3497003348636835  1.0000
  S   S21       1.0  0.09843204866746179  0.4374519604653472  0.2740149065071612  1.0000
  Fe  Fe12      1.0  0.09200893870691564  0.43733047480698617  0.4540638526301997  1.0000
  S   S22       1.0  0.03139777988272674  0.40363329224614886  0.5067152281799129  1.0000
  S   S23       1.0  0.20777517570820556  0.4708585100589376  0.36720529051320283  1.0000
  S   S24       1.0  0.17121864579650556  0.4633558675256797  0.4806701924680763  1.0000
  Fe  Fe13      1.0  0.186067429280891  0.5367273098087064  0.9776705335361667  1.0000
  S   S25       1.0  0.21259055664873508  0.6259927170216509  0.006137013553725757  1.0000
  S   S26       1.0  0.10300979962647822  0.5245052122175335  0.9561466070212153  1.0000
  Fe  Fe14      1.0  0.2892456163875193  0.47680521785575775  0.9965230539759766  1.0000
  S   S27       1.0  0.32400598231111577  0.5608964856272335  0.02713811050889681  1.0000
  S   S28       1.0  0.3352474242631177  0.3915914043689448  0.9914088495016606  1.0000
  Fe  Fe15      1.0  0.24623843117633074  0.5717121064608162  0.06458464700927177  1.0000
  S   S29       1.0  0.24078594077193385  0.6012860593335392  0.14161838639691565  1.0000
  Fe  Fe16      1.0  0.28713274849771736  0.6063546308016895  0.965640730832564  1.0000
  S   S30       1.0  0.3301660745217343  0.6728332202758575  0.9190223625303744  1.0000
  S   S31       1.0  0.21459858444925478  0.4834138211354797  0.039196420915621255  1.0000
  S   S32       1.0  0.25771262087434993  0.5211451378503217  0.9317457296677846  1.0000
  Fe  Fe17      1.0  0.7520348889817583  0.4026667850435578  0.5048987033804919  1.0000
  S   S33       1.0  0.7405650282204308  0.388371092816997  0.5837802669514709  1.0000
  S   S34       1.0  0.798707856405209  0.47980066967260676  0.47538533307331776  1.0000
  Fe  Fe18      1.0  0.696535576105604  0.2862543331858271  0.47813735114270983  1.0000
  S   S35       1.0  0.6798427389170754  0.26204979723656624  0.5545598100338378  1.0000
  S   S36       1.0  0.6775552573853706  0.2218147668229802  0.41898325407195236  1.0000
  Fe  Fe19      1.0  0.6597373356433893  0.35922504596414134  0.5636620010736783  1.0000
  S   S37       1.0  0.5847666100043117  0.390970486131644  0.5978146653959653  1.0000
  Fe  Fe20      1.0  0.7620712117934296  0.29313814975544866  0.5662106802281532  1.0000
  S   S38       1.0  0.8213053564002287  0.23836295947375974  0.6032237249857092  1.0000
  S   S39       1.0  0.6695256656603951  0.3810998691753424  0.48572568824296986  1.0000
  S   S40       1.0  0.7802890380826699  0.31011712494334337  0.48901643864562133  1.0000
  Fe  Fe21      1.0  0.6316293000177198  0.4833262348201715  0.8495802927800008  1.0000
  S   S41       1.0  0.7079827393413404  0.43623618189940644  0.8406377957510576  1.0000
  S   S42       1.0  0.5898197922374561  0.5338462905968674  0.7934566852019623  1.0000
  Fe  Fe22      1.0  0.6171363905915902  0.4450175775835537  0.95305743339633  1.0000
  S   S43       1.0  0.6914551830195312  0.39260084006212903  0.9528029458035734  1.0000
  S   S44       1.0  0.569808474419  0.4655865084786386  0.019574108832000947  1.0000
  Fe  Fe23      1.0  0.7249610348358082  0.47225697170013864  0.914011993312597  1.0000
  S   S45       1.0  0.7993870299002487  0.5200141798938548  0.9327473817219409  1.0000
  Fe  Fe24      1.0  0.6667745506424291  0.3615270308970103  0.8798374510824054  1.0000
  S   S46       1.0  0.6728456475890878  0.26893992346238865  0.8480302589433867  1.0000
  S   S47       1.0  0.6522521813531647  0.52663747269049  0.9190817180277046  1.0000
  S   S48       1.0  0.5889185434390084  0.4064543335983298  0.8837023325852531  1.0000
  Fe  Fe25      1.0  0.37313679608926986  0.04467520418622195  0.6186469381858287  1.0000
  S   S49       1.0  0.3957880246909765  0.11050342955176573  0.6759496912816783  1.0000
  S   S50       1.0  0.3115124890572979  0.9737663174691209  0.6307399211296492  1.0000
  Fe  Fe26      1.0  0.44066228807407426  0.10521786158968816  0.5418834567348711  1.0000
  S   S51       1.0  0.46868825830000027  0.17681948505962605  0.592410537090359  1.0000
  S   S52       1.0  0.461328215615406  0.09538375648188713  0.4638799636307052  1.0000
  Fe  Fe27      1.0  0.47627411622035765  0.101059227029908  0.6435248655185519  1.0000
  S   S53       1.0  0.5485001320312485  0.10031630452304197  0.6869452663325875  1.0000
  Fe  Fe28      1.0  0.38584466433659054  0.17933030875711187  0.6192838774905803  1.0000
  S   S54       1.0  0.3423196690515474  0.26452317323581603  0.6325733427965585  1.0000
  S   S55       1.0  0.4549088514698084  0.028692070441297846  0.591006171555119  1.0000
  S   S56       1.0  0.35704951446954486  0.11436612090783949  0.5641539172585973  1.0000
  Fe  Fe29      1.0  0.5745889365111668  0.9764834958283275  0.9353381175420573  1.0000
  S   S57       1.0  0.6421270963422173  0.9625945024459382  0.8842821605441912  1.0000
  S   S58       1.0  0.5371501867279433  0.06666309783549984  0.9471211263984664  1.0000
  Fe  Fe30      1.0  0.5722221612325161  0.8452501242682694  0.9642755646918465  1.0000
  S   S59       1.0  0.6391488024079747  0.820378329801509  0.9151330558980547  1.0000
  S   S60       1.0  0.5345475610442026  0.7767936607972196  0.012391570070872104  1.0000
  Fe  Fe31      1.0  0.6750719681014392  0.9063127460838584  0.9416800277346439  1.0000
  S   S61       1.0  0.7613017130689804  0.913623834170084  0.9539909058825092  1.0000
  Fe  Fe32      1.0  0.5995962896373748  0.8788102528188432  0.8625486865351788  1.0000
  S   S62       1.0  0.5861508901202375  0.8537617597397594  0.7858513184916274  1.0000
  S   S63       1.0  0.6109136527728422  0.9269583455887117  0.9952017700575336  1.0000
  S   S64       1.0  0.5291706827778656  0.8967273390460416  0.9095749877311999  1.0000
  C   C1        1.0  0.5803185771105162  0.9191834013642503  0.7525534882748623  1.0000
  C   C2        1.0  0.6142599723550779  0.9676907369631984  0.7601860921685407  1.0000
  C   C3        1.0  0.6053197526511732  0.02279457947737451  0.7384673566180058  1.0000
  C   C4        1.0  0.5621178687503202  0.02953995956161637  0.7094025460793768  1.0000
  C   C5        1.0  0.5289527799646206  0.9806058829420112  0.7005604167761573  1.0000
  C   C6        1.0  0.5384185434637211  0.9251789521218268  0.721732478937054  1.0000
  H   H1        1.0  0.6474840029409263  0.9627162052851308  0.7828652783973384  1.0000
  H   H2        1.0  0.6311499670082009  0.060534582221387856  0.7452579744237157  1.0000
  H   H3        1.0  0.49518063065062207  0.9856575176414886  0.6786339902136254  1.0000
  H   H4        1.0  0.511940046069803  0.8877467662290456  0.7160227514785504  1.0000
  C   C7        1.0  0.6296567709053704  0.21579698576861883  0.8727035707133228  1.0000
  C   C8        1.0  0.599258225832207  0.2288307553996049  0.9136986170590606  1.0000
  C   C9        1.0  0.5690932391193446  0.18329630590411924  0.9354818065243553  1.0000
  C   C10       1.0  0.5695159062325266  0.12492320393592582  0.9163419510555819  1.0000
  C   C11       1.0  0.5977228946597328  0.11304851555004958  0.8738993845832224  1.0000
  C   C12       1.0  0.6278180467754881  0.15833879971426024  0.8522046664326071  1.0000
  H   H5        1.0  0.6004212658912984  0.2733136536826445  0.9295843259693553  1.0000
  H   H6        1.0  0.5469499171841321  0.19284156206679295  0.9681315017802986  1.0000
  H   H7        1.0  0.596789141472872  0.06900387578628187  0.8577049068218064  1.0000
  H   H8        1.0  0.650711046213007  0.1484493075143205  0.8200430570897774  1.0000
  C   C13       1.0  0.6145602215881739  0.1918882400025498  0.42751564684626014  1.0000
  C   C14       1.0  0.598456632676189  0.1425569909013158  0.39998431459333716  1.0000
  C   C15       1.0  0.550106510850371  0.11460402119219082  0.40990535963875785  1.0000
  C   C16       1.0  0.5180964286062193  0.13564917042186075  0.4476412927083869  1.0000
  C   C17       1.0  0.5331336606757586  0.1867137527463128  0.4735897851560839  1.0000
  C   C18       1.0  0.5812847015314482  0.21493531397295923  0.4634705271372216  1.0000
  H   H9        1.0  0.6238952631114717  0.12509648891630776  0.371766387874703  1.0000
  H   H10       1.0  0.5383210648836182  0.07553893010786794  0.38935025262334555  1.0000
  H   H11       1.0  0.5074855612699667  0.20501789565421746  0.501066875671183  1.0000
  H   H12       1.0  0.5927434520859107  0.2543085740881395  0.4837519871049205  1.0000
  C   C19       1.0  0.5889827563025867  0.4321315507778481  0.6511944290253986  1.0000
  C   C20       1.0  0.6314222470566634  0.4260647865131665  0.6813205721149316  1.0000
  C   C21       1.0  0.6322105365313749  0.4576113821894768  0.725119598410492  1.0000
  C   C22       1.0  0.5909917279889593  0.49576616143973495  0.7382915846617143  1.0000
  C   C23       1.0  0.549364416189902  0.5028321148777708  0.7074545271679429  1.0000
  C   C24       1.0  0.5480534656278719  0.4704941361725142  0.6642798675030248  1.0000
  H   H13       1.0  0.6630181299804802  0.39614135955666385  0.6714691158633972  1.0000
  H   H14       1.0  0.6647724053481132  0.45248332993158485  0.7485138119451115  1.0000
  H   H15       1.0  0.5174941179630144  0.5323443713285843  0.717423077242086  1.0000
  H   H16       1.0  0.515106196532728  0.47505179034733025  0.6410162193761598  1.0000
  C   C25       1.0  0.3851304578206558  0.704876396851401  0.9460621972497861  1.0000
  C   C26       1.0  0.39310944127721054  0.6985320097547706  0.9950858385739016  1.0000
  C   C27       1.0  0.43935047290020823  0.7201214911874657  0.015374829913203047  1.0000
  C   C28       1.0  0.47739979452452636  0.7486474029123994  0.9867236841007816  1.0000
  C   C29       1.0  0.4694769226893982  0.7548283040765273  0.9377029482422624  1.0000
  C   C30       1.0  0.4230794800898346  0.733781419847217  0.9175420566713625  1.0000
  H   H17       1.0  0.36335800801373364  0.6779836343829665  0.017595368012804702  1.0000
  H   H18       1.0  0.44517453132285384  0.7156692297338658  0.05339409100168946  1.0000
  H   H19       1.0  0.49939793423211937  0.7749672008517815  0.9150813003271029  1.0000
  H   H20       1.0  0.4170977957638004  0.7388137676260792  0.8795999002000474  1.0000
  C   C31       1.0  0.4008851421937237  0.40502419843110943  0.004559265156275805  1.0000
  C   C32       1.0  0.44029867770577097  0.3759951747418911  0.977915452215296  1.0000
  C   C33       1.0  0.49277098968672495  0.39271529124875204  0.9837785133563662  1.0000
  C   C34       1.0  0.5057042554097279  0.4381706128240937  0.016447499826424794  1.0000
  C   C35       1.0  0.4665590435509319  0.4645954144167223  0.04507761171750002  1.0000
  C   C36       1.0  0.41420403970050496  0.4479253451763807  0.03916841240304336  1.0000
  H   H21       1.0  0.4301546762407464  0.34202483998203537  0.9516713547768895  1.0000
  H   H22       1.0  0.5231045901708717  0.3705791325612605  0.9629216676050074  1.0000
  H   H23       1.0  0.4765591920943189  0.4992623766148689  0.07079876871426981  1.0000
  H   H24       1.0  0.3841578296817971  0.46884597968522523  0.06099714448181758  1.0000
  C   C37       1.0  0.9680960112326515  0.43122587492183856  0.5007373359156306  1.0000
  C   C38       1.0  0.9565383469922248  0.47323449821521296  0.4657736162913562  1.0000
  C   C39       1.0  0.9045017986567835  0.4900809238192189  0.45899297308141535  1.0000
  C   C40       1.0  0.8641619029157804  0.46409660397170727  0.4866448878296334  1.0000
  C   C41       1.0  0.8760266516987772  0.42294563252524786  0.5220503128009997  1.0000
  C   C42       1.0  0.92787816843055  0.4070488465200491  0.5294211307311955  1.0000
  H   H25       1.0  0.9874598740741968  0.4923542307125512  0.4438120627487521  1.0000
  H   H26       1.0  0.8953298256383173  0.5221707291466152  0.4317955261945836  1.0000
  H   H27       1.0  0.8452937433503178  0.4031010059435566  0.5439077478271093  1.0000
  H   H28       1.0  0.9365476769001035  0.3750118285052258  0.5568637785776965  1.0000
  C   C43       1.0  0.32371604628953127  0.2892949253789356  0.5762385497355567  1.0000
  C   C44       1.0  0.34863342362412303  0.2664454110869524  0.5349737039167772  1.0000
  C   C45       1.0  0.3308780080862927  0.2814229475498811  0.4897369599870457  1.0000
  C   C46       1.0  0.28814862441826405  0.319404875006735  0.4854734530361012  1.0000
  C   C47       1.0  0.2642744983284975  0.3440698881071831  0.5266710814141955  1.0000
  C   C48       1.0  0.2821602479169255  0.3290942303518636  0.5721260522890861  1.0000
  H   H29       1.0  0.38187133518385435  0.2373511911411385  0.5377494322650674  1.0000
  H   H30       1.0  0.3501897230229296  0.2632228078681382  0.45799320850661  1.0000
  H   H31       1.0  0.2315571331854239  0.373674663704726  0.5235786959014637  1.0000
  H   H32       1.0  0.26346121488845825  0.34742746728704693  0.6040760165902749  1.0000
  C   C49       1.0  0.1326806493063014  0.4882036455245237  0.23700706066431873  1.0000
  C   C50       1.0  0.12862398554712318  0.483948726641863  0.18722994324241882  1.0000
  C   C51       1.0  0.15999490152317633  0.5205576580172685  0.15750748058949363  1.0000
  C   C52       1.0  0.1960652815812364  0.5606255810520928  0.1775238063021423  1.0000
  C   C53       1.0  0.19753674891202674  0.5675376711255866  0.22723796157267448  1.0000
  C   C54       1.0  0.16549850245278952  0.5318596774472849  0.256881844814297  1.0000
  H   H33       1.0  0.10225780234905872  0.45133230891287657  0.1716013635981802  1.0000
  H   H34       1.0  0.15654505809184793  0.5169857035999988  0.11924929647648559  1.0000
  H   H35       1.0  0.22419450142923944  0.5997396970137792  0.24302781006717458  1.0000
  H   H36       1.0  0.1666542814884538  0.538080234351863  0.29515046445178733  1.0000
  C   C55       1.0  0.8098758676273086  0.5684189513146972  0.0913040091948043  1.0000
  C   C56       1.0  0.8482710219000709  0.5876006828649578  0.05848400411536314  1.0000
  C   C57       1.0  0.846096013599093  0.5699246289640632  0.010362214049874474  1.0000
  C   C58       1.0  0.8042271819888244  0.5350364222548601  0.9943022614390933  1.0000
  C   C59       1.0  0.765904483955666  0.5150436630052556  0.027198299388176306  1.0000
  C   C60       1.0  0.7691774195652912  0.5310249175698702  0.0758771913816707  1.0000
  H   H37       1.0  0.8800448191745726  0.6155605700545475  0.07040299485824963  1.0000
  H   H38       1.0  0.8770044125298836  0.583220375138099  0.9856108303875265  1.0000
  H   H39       1.0  0.7336540099571048  0.48758760818649816  0.015212438064591716  1.0000
  H   H40       1.0  0.739802074680516  0.5152569341449379  0.10134083588502785  1.0000
  C   C61       1.0  0.014714835592131825  0.6933365215083322  0.0006392870298781439  1.0000
  C   C62       1.0  0.05881459981876103  0.6975968725172562  0.9702484281504329  1.0000
  C   C63       1.0  0.08594792815736481  0.6456469356303342  0.9562479616242804  1.0000
  C   C64       1.0  0.06797002074398618  0.5893131668173447  0.9713864458424183  1.0000
  C   C65       1.0  0.02278873785260838  0.5850338966153185  0.0003627164133457317  1.0000
  C   C66       1.0  0.9966136402102367  0.6370786475282473  0.015473056785195949  1.0000
  H   H41       1.0  0.07285278294084785  0.7410721916703941  0.9585168605749486  1.0000
  H   H42       1.0  0.12070083099331921  0.6490128276282643  0.9335588373437658  1.0000
  H   H43       1.0  0.008685878304337313  0.5414848767839431  0.011927209886598344  1.0000
  H   H44       1.0  0.962251810708321  0.63341916268997  0.03826547382074175  1.0000
  C   C67       1.0  0.8053541519559333  0.9061798115491356  0.11080466960503488  1.0000
  C   C68       1.0  0.7550218932828866  0.9235036403766501  0.09899654978872463  1.0000
  C   C69       1.0  0.741347819628325  0.9266614588636963  0.05080972280631224  1.0000
  C   C70       1.0  0.7781301680713383  0.9133468454281343  0.014467258538302774  1.0000
  C   C71       1.0  0.829253768913443  0.8992175873543121  0.02636510387781743  1.0000
  C   C72       1.0  0.8426899744848644  0.8949939239182407  0.07446696099013139  1.0000
  H   H45       1.0  0.725974780775904  0.9317409648800159  0.12701771262167316  1.0000
  H   H46       1.0  0.7022243622129835  0.9387617620795047  0.042204358642339956  1.0000
  H   H47       1.0  0.8582071244962479  0.8898970916001238  0.998507446512876  1.0000
  H   H48       1.0  0.8818480406375043  0.8820805859413742  0.0833885364648419  1.0000
  C   C73       1.0  0.16537634027735298  0.06619241705146939  0.5810797433463527  1.0000
  C   C74       1.0  0.166787861658889  0.0035344412673157244  0.5823268159306493  1.0000
  C   C75       1.0  0.21048177626144324  0.9747015651019454  0.6002868879594718  1.0000
  C   C76       1.0  0.25241721497378383  0.008476543059289243  0.6176236880158902  1.0000
  C   C77       1.0  0.2489178372367285  0.07099210458346361  0.6199808223430974  1.0000
  C   C78       1.0  0.20597039334906753  0.09991894916433242  0.6008941112697183  1.0000
  H   H49       1.0  0.13465703376126534  0.9771949023273573  0.5686722567882405  1.0000
  H   H50       1.0  0.2123466473986684  0.9265470668708027  0.5992158057843452  1.0000
  H   H51       1.0  0.279971398184966  0.09732707090531201  0.6355666876732878  1.0000
  H   H52       1.0  0.20547552319455087  0.14827229035941092  0.6000782447899363  1.0000
  C   C79       1.0  0.1505051659922447  0.6762437906993846  0.44814753485556175  1.0000
  C   C80       1.0  0.11263267086647641  0.6564017999793549  0.481360064134711  1.0000
  C   C81       1.0  0.0791330460319346  0.6978296625959731  0.5041073075282633  1.0000
  C   C82       1.0  0.08266913109920959  0.7588451868169737  0.4928989599283146  1.0000
  C   C83       1.0  0.11913450927683683  0.7782513322273713  0.45826751786043624  1.0000
  C   C84       1.0  0.1532611534817015  0.7370351898393622  0.43614232590101665  1.0000
  H   H53       1.0  0.11060299198964986  0.6095484578000494  0.49098180772671013  1.0000
  H   H54       1.0  0.051032283976435666  0.682739488604569  0.531022428820377  1.0000
  H   H55       1.0  0.12222211527794835  0.8252231219033963  0.44962638743052863  1.0000
  H   H56       1.0  0.18249321721944195  0.7524052268676097  0.41035389603295885  1.0000
  C   C85       1.0  0.8655523873962889  0.08404676602306616  0.502393388066032  1.0000
  C   C86       1.0  0.8973837367928694  0.09871088429462982  0.540954365175079  1.0000
  C   C87       1.0  0.8829157563901386  0.1448592435688396  0.5730585715306362  1.0000
  C   C88       1.0  0.8373760452301783  0.177388472917263  0.5658023225926373  1.0000
  C   C89       1.0  0.8058133782128941  0.16279380764006635  0.5271190628761632  1.0000
  C   C90       1.0  0.8194636030731214  0.1157290221726135  0.4958377594036186  1.0000
  H   H57       1.0  0.9331290379431363  0.07462812363120741  0.5461460810107613  1.0000
  H   H58       1.0  0.9075042410705935  0.15610887903638138  0.6029048350943326  1.0000
  H   H59       1.0  0.770737193334503  0.18777720210475546  0.5211800859453062  1.0000
  H   H60       1.0  0.7949794411782606  0.10500084330159898  0.46578388272240284  1.0000
  C   C91       1.0  0.07916778833075022  0.9088935939557298  0.30805171949185933  1.0000
  C   C92       1.0  0.06642443828099198  0.9014980884569864  0.259930318642112  1.0000
  C   C93       1.0  0.04855683643752462  0.8456099992311871  0.2431171933626414  1.0000
  C   C94       1.0  0.04422237769913728  0.7969920865242397  0.2742318140952145  1.0000
  C   C95       1.0  0.060263713616683035  0.8034979984777795  0.3215129969175934  1.0000
  C   C96       1.0  0.07723480044118758  0.8595702907285229  0.33851199836475804  1.0000
  H   H61       1.0  0.06847233734360803  0.9394994159769554  0.23618938452010285  1.0000
  H   H62       1.0  0.0381704543287662  0.8404012998566721  0.20620870531774393  1.0000
  H   H63       1.0  0.05775836941227097  0.7658517292852182  0.34563949379650605  1.0000
  H   H64       1.0  0.08792757475012092  0.8648544705429131  0.3755057127211436  1.0000
  N   N1        1.0  0.43820732753030867  0.018135393901791197  0.8330820033069392  1.0000
  C   C97       1.0  0.4105074191282209  0.004222986671652551  0.7883946286534568  1.0000
  C   C98       1.0  0.49401481472479075  0.0036100478497653743  0.8262246033448953  1.0000
  C   C99       1.0  0.4156771651320796  0.9820313494328647  0.8726851617240613  1.0000
  C   C100      1.0  0.4331314539134916  0.08263134959721374  0.8449898304196273  1.0000
  H   H65       1.0  0.4133559723582018  0.9557158696892799  0.7787184633023503  1.0000
  H   H66       1.0  0.42757087036098707  0.029777871293237945  0.7576947227976071  1.0000
  H   H67       1.0  0.36827160448636315  0.015420564988950947  0.7916783880766933  1.0000
  H   H68       1.0  0.5159573989264553  0.0118279666020209  0.8594098621227456  1.0000
  H   H69       1.0  0.4994349870792482  0.9556263409171347  0.8160442710232719  1.0000
  H   H70       1.0  0.5128129157086346  0.03159533265856984  0.7979641548232173  1.0000
  H   H71       1.0  0.43583578761190483  0.9918698506914558  0.906927567262637  1.0000
  H   H72       1.0  0.4196779905524776  0.9330607746539852  0.8652404529760633  1.0000
  H   H73       1.0  0.37339668772144635  0.9913920616098367  0.8787351249931734  1.0000
  H   H74       1.0  0.4540748072338768  0.09438115781225576  0.8784408782698809  1.0000
  H   H75       1.0  0.3914790975594461  0.09532897442689814  0.8506534962796698  1.0000
  H   H76       1.0  0.4500867273662626  0.11110196013611828  0.815959626530674  1.0000
  N   N2        1.0  0.22968870083446546  0.7713587176961568  0.5765688433389397  1.0000
  C   C101      1.0  0.17781416361894364  0.8000175737694221  0.5762102898502123  1.0000
  C   C102      1.0  0.27113293520324455  0.8180266428183866  0.5780638076849827  1.0000
  C   C103      1.0  0.2368748853992131  0.7341053425355306  0.5328508107288779  1.0000
  C   C104      1.0  0.23284276275220472  0.7329814807148143  0.6191630964172055  1.0000
  H   H77       1.0  0.1735077391735529  0.828905361404802  0.5442992794216546  1.0000
  H   H78       1.0  0.17077770548987514  0.8285460665096519  0.6085999016192574  1.0000
  H   H79       1.0  0.1456648738814057  0.7659998688284935  0.5752374987941014  1.0000
  H   H80       1.0  0.2684636849886668  0.8495042766049203  0.5475681421687967  1.0000
  H   H81       1.0  0.26853804999124153  0.8453238111499891  0.6116740669597469  1.0000
  H   H82       1.0  0.31081460267485217  0.7980420145865541  0.5763345317461479  1.0000
  H   H83       1.0  0.20642697167084179  0.6982151971049285  0.5306952244108673  1.0000
  H   H84       1.0  0.2754864156269059  0.7115778240487853  0.5315896147841158  1.0000
  H   H85       1.0  0.23431356754371202  0.7613941694446793  0.49989759452680077  1.0000
  H   H86       1.0  0.22729336885175844  0.7596003620502154  0.6528464930243927  1.0000
  H   H87       1.0  0.27147173909717615  0.7106352481898736  0.6206328051786423  1.0000
  H   H88       1.0  0.20216139962709034  0.6971576966776205  0.6189466267183028  1.0000
  N   N3        1.0  0.1261498015107767  0.7220767678231869  0.11706904169323525  1.0000
  C   C105      1.0  0.11349334320853322  0.6642388794616095  0.09345146699424225  1.0000
  C   C106      1.0  0.17744708911316742  0.7443851699141076  0.09906436798271981  1.0000
  C   C107      1.0  0.12783707468308703  0.7136262670484853  0.1694085841198615  1.0000
  C   C108      1.0  0.08557565595233374  0.7661514453386699  0.10617767450128371  1.0000
  H   H89       1.0  0.074798288079861  0.6462797174226803  0.10574577524661068  1.0000
  H   H90       1.0  0.14312388510006469  0.6297485756333429  0.10082667594950964  1.0000
  H   H91       1.0  0.11218121179772811  0.6688794192284861  0.05398501760248075  1.0000
  H   H92       1.0  0.17753878194702577  0.7508031774019761  0.05959831476132728  1.0000
  H   H93       1.0  0.18809374766545117  0.7879612911859797  0.11620002035249165  1.0000
  H   H94       1.0  0.20914361197256093  0.7122939329074228  0.10656709081241711  1.0000
  H   H95       1.0  0.13454374426196059  0.7567893710672126  0.18883354997723936  1.0000
  H   H96       1.0  0.15974138747082467  0.6828103971849501  0.17905688163663852  1.0000
  H   H97       1.0  0.09062761955563858  0.6939501461635185  0.18367332325666913  1.0000
  H   H98       1.0  0.09268867683899518  0.8099496823903579  0.12448836579499936  1.0000
  H   H99       1.0  0.04626365682464084  0.7496993952726597  0.1177328573070241  1.0000
  H   H100      1.0  0.08408712980198052  0.7745569345129841  0.06701614050227042  1.0000
  N   N4        1.0  0.8975187806354885  0.9155694565405107  0.30299216493262426  1.0000
  C   C109      1.0  0.9277440399062236  0.8651221521272188  0.3216015447012735  1.0000
  C   C110      1.0  0.8985503251521081  0.966057213747213  0.33774724011705687  1.0000
  C   C111      1.0  0.8428854401562963  0.8959881675933131  0.2957656528033939  1.0000
  C   C112      1.0  0.9210493515516956  0.9350654282429889  0.25685364952338674  1.0000
  H   H101      1.0  0.9288413000006112  0.8264880554487105  0.2959799864441351  1.0000
  H   H102      1.0  0.9110270935234875  0.8488486077297204  0.35626999641911716  1.0000
  H   H103      1.0  0.9688818396192718  0.8788476851386968  0.3279749154668313  1.0000
  H   H104      1.0  0.8756009365811002  0.004766759742891091  0.3252835538671554  1.0000
  H   H105      1.0  0.881788187876309  0.9526934929076203  0.37325869975936554  1.0000
  H   H106      1.0  0.9392443504054637  0.9822554337675621  0.3437532140732697  1.0000
  H   H107      1.0  0.840859320889558  0.8572091170488374  0.2703804872559275  1.0000
  H   H108      1.0  0.8193092523122371  0.9324198518083591  0.28026210692357345  1.0000
  H   H109      1.0  0.823479739137872  0.8822504211823703  0.3300162361873003  1.0000
  H   H110      1.0  0.9214056347846621  0.8977965038234387  0.23003657601585825  1.0000
  H   H111      1.0  0.9621397107284572  0.9508064489453146  0.2610836840177522  1.0000
  H   H112      1.0  0.8985882321266181  0.9722646658694832  0.2411771772692024  1.0000
  N   N5        1.0  0.9312284626780194  0.25573764274740707  0.4364935069465654  1.0000
  C   C113      1.0  0.8909299170638598  0.21198996189508795  0.4213230265991204  1.0000
  C   C114      1.0  0.9176832308577705  0.3161859173003998  0.4197895049369295  1.0000
  C   C115      1.0  0.9825974997552016  0.23842608102381524  0.41561418423777136  1.0000
  C   C116      1.0  0.9339398498335384  0.2562953097348855  0.4892807958620511  1.0000
  H   H113      1.0  0.8866529710120277  0.21138036882091188  0.3818067528592725  1.0000
  H   H114      1.0  0.8519474174775954  0.22261046180487207  0.4376614868024217  1.0000
  H   H115      1.0  0.9007920478569996  0.16562702815775532  0.4321631379250868  1.0000
  H   H116      1.0  0.9486162281187647  0.3496020145003953  0.4286511208825323  1.0000
  H   H117      1.0  0.9128834215369527  0.3168298911412628  0.3803457881887297  1.0000
  H   H118      1.0  0.8805284219445169  0.3322432236991238  0.43679665052645894  1.0000
  H   H119      1.0  0.013889364587138076  0.2706676640078341  0.4263683534458187  1.0000
  H   H120      1.0  0.9820247764259273  0.2373518238925493  0.37579321559931705  1.0000
  H   H121      1.0  0.9941019145390929  0.1930780567209487  0.4276434678946304  1.0000
  H   H122      1.0  0.9434868335765423  0.21118004734720888  0.5030644380275229  1.0000
  H   H123      1.0  0.8960082899265339  0.2697489970996266  0.5064742554436865  1.0000
  H   H124      1.0  0.9643390476866215  0.2883769214933342  0.5019106442550241  1.0000
  N   N6        1.0  0.4577362019078665  0.5429140362985198  0.8879368474600154  1.0000
  C   C117      1.0  0.4137411076968859  0.541025755510951  0.9230666065674382  1.0000
  C   C118      1.0  0.4461168892857741  0.5856379766539711  0.8496728080598492  1.0000
  C   C119      1.0  0.46522377348338273  0.4825069206859563  0.8667646763762774  1.0000
  C   C120      1.0  0.5057762548470403  0.5624346198491655  0.9122899287912014  1.0000
  H   H125      1.0  0.4203972144451291  0.5075369435531535  0.9512688260092617  1.0000
  H   H126      1.0  0.37620575049325744  0.5292500617394736  0.9057997096031303  1.0000
  H   H127      1.0  0.4084916911825514  0.5849925714978236  0.9414648891587901  1.0000
  H   H128      1.0  0.4788288955046226  0.588307489079072  0.8226813819780782  1.0000
  H   H129      1.0  0.4098975090858545  0.5725874812698697  0.830722008628528  1.0000
  H   H130      1.0  0.4398635064612393  0.6315124930362096  0.8644877697338301  1.0000
  H   H131      1.0  0.49785539610286106  0.4823598110907596  0.8397213670615836  1.0000
  H   H132      1.0  0.42931160797714935  0.46630160709689883  0.8487961223996463  1.0000
  H   H133      1.0  0.4745782169972881  0.4493279116965671  0.8946331578947664  1.0000
  H   H134      1.0  0.5397768220090826  0.5645784720480507  0.886745389581111  1.0000
  H   H135      1.0  0.5157996352833398  0.5310346871051154  0.9412941667364555  1.0000
  H   H136      1.0  0.5011164252685012  0.6078837902613681  0.9287755471668839  1.0000
  N   N7        1.0  0.2538720132505862  0.11725543651445514  0.4490395235188608  1.0000
  C   C121      1.0  0.23691275853728155  0.16586434617225998  0.48209503863182857  1.0000
  C   C122      1.0  0.2514555176460794  0.05932926366104119  0.47427533436246094  1.0000
  C   C123      1.0  0.30805247128815905  0.12946708389345662  0.43192935128874177  1.0000
  C   C124      1.0  0.21875423620838466  0.11458998175799118  0.4077731411897655  1.0000
  H   H137      1.0  0.23711000400217705  0.20989075852860584  0.4637808475503333  1.0000
  H   H138      1.0  0.2630576381889908  0.170121796604223  0.5132798121679647  1.0000
  H   H139      1.0  0.1966084629799132  0.15772636191645328  0.49627722838959043  1.0000
  H   H140      1.0  0.26515882146313263  0.021801667808427183  0.4507425440246824  1.0000
  H   H141      1.0  0.27609880853173097  0.06009273432593365  0.5065262260708807  1.0000
  H   H142      1.0  0.2108182108376348  0.04839652349285717  0.48662388377896526  1.0000
  H   H143      1.0  0.32252929147899734  0.09368407070027551  0.4070380532075041  1.0000
  H   H144      1.0  0.33570966801958213  0.13218114486855215  0.4620611660560865  1.0000
  H   H145      1.0  0.31105227649570183  0.17298567496954664  0.41278953664195056  1.0000
  H   H146      1.0  0.17751253081793653  0.10555733529460642  0.41948779992469387  1.0000
  H   H147      1.0  0.23022491418327376  0.07826408807546814  0.38203974554848646  1.0000
  H   H148      1.0  0.21948716099336618  0.15765735126772595  0.3879192193343845  1.0000
  N   N8        1.0  0.8604765163963893  0.7290520506738702  0.9246940476261258  1.0000
  C   C125      1.0  0.9147511583764888  0.7424693742879583  0.9085712127241791  1.0000
  C   C126      1.0  0.8256208701296167  0.7773640475406051  0.909396526862599  1.0000
  C   C127      1.0  0.858392754369475  0.7254112054442271  0.9774346732638556  1.0000
  C   C128      1.0  0.8433376822077656  0.6711762955760091  0.9036145495754191  1.0000
  H   H149      1.0  0.942004736643957  0.706657449434244  0.9194670921577345  1.0000
  H   H150      1.0  0.9293375191486214  0.7852093900290685  0.9247445201741394  1.0000
  H   H151      1.0  0.9179791531687382  0.7463478999810083  0.8689691693435869  1.0000
  H   H152      1.0  0.7845510325903571  0.769557364619737  0.9220554454068579  1.0000
  H   H153      1.0  0.8380558959531343  0.8217581630543294  0.9241345631473287  1.0000
  H   H154      1.0  0.8254604296517817  0.7811696156292508  0.8697445394852957  1.0000
  H   H155      1.0  0.8186131716976652  0.7130951632117004  0.991144092097692  1.0000
  H   H156      1.0  0.8695686881080166  0.7690595304065588  0.9943086213041592  1.0000
  H   H157      1.0  0.8860570370347701  0.6914086036584823  0.990458175016455  1.0000
  H   H158      1.0  0.8034164036513444  0.6580489129273359  0.9166173993533692  1.0000
  H   H159      1.0  0.8699178878598604  0.6340739236311057  0.9129952887912374  1.0000
  H   H160      1.0  0.8427371747302536  0.6728606133725724  0.8638730641029259  1.0000
  N   N9        1.0  0.7386104068830743  0.10063310720483498  0.9616324102938452  1.0000
  C   C129      1.0  0.7296722482547958  0.16600074147923063  0.9645607199599153  1.0000
  C   C130      1.0  0.786453438042352  0.08583387744360937  0.9875059057248603  1.0000
  C   C131      1.0  0.7448763651045788  0.08195505835442529  0.910898328273869  1.0000
  C   C132      1.0  0.6934021309323044  0.0685483387274477  0.9835233140683832  1.0000
  H   H161      1.0  0.7252013633898722  0.18183531472176703  0.002337499842548496  1.0000
  H   H162      1.0  0.6935217505010599  0.178400319663865  0.945895942474816  1.0000
  H   H163      1.0  0.7624623695258038  0.19180211166492464  0.9474912514267904  1.0000
  H   H164      1.0  0.7945738038586352  0.0368588920187336  0.9854189165303019  1.0000
  H   H165      1.0  0.8212997008287248  0.10969635293999125  0.9722200105865398  1.0000
  H   H166      1.0  0.7828003793785208  0.0982436470264747  0.026132846219447673  1.0000
  H   H167      1.0  0.7521749321570977  0.03287763521291143  0.907428284158323  1.0000
  H   H168      1.0  0.7781763412521113  0.10587089187829625  0.8929672959021614  1.0000
  H   H169      1.0  0.7092240666540999  0.09163388335622447  0.8904777189691332  1.0000
  H   H170      1.0  0.6987739844547243  0.019185368081114484  0.9814078831164835  1.0000
  H   H171      1.0  0.6565085916005517  0.07878369804219298  0.9650995512782694  1.0000
  H   H172      1.0  0.687608410649878  0.0809459325623123  0.021955473124136708  1.0000
  N   N10       1.0  0.5331644937739328  0.27682091793742725  0.7282756493346746  1.0000
  C   C133      1.0  0.5588619081161549  0.2744477631988249  0.6803653804640465  1.0000
  C   C134      1.0  0.5279109422119185  0.3399752184147249  0.7441055036743683  1.0000
  C   C135      1.0  0.5652240380953978  0.24442977319176262  0.7627351583970116  1.0000
  C   C136      1.0  0.4807354461225087  0.24864793647124062  0.7258145073279466  1.0000
  H   H173      1.0  0.5351354703821574  0.29729588754649283  0.653195169445765  1.0000
  H   H174      1.0  0.5645719745983828  0.22743246617607626  0.6677725524156972  1.0000
  H   H175      1.0  0.5979711869701376  0.29676648168149766  0.6803842446315177  1.0000
  H   H176      1.0  0.5668756073508264  0.36161260852301047  0.7483925263995638  1.0000
  H   H177      1.0  0.506185072869677  0.36661757903935  0.7177337486727068  1.0000
  H   H178      1.0  0.5069310428630985  0.343611451008903  0.7793115440143745  1.0000
  H   H179      1.0  0.5478704289389382  0.24643038669690842  0.7995967348423482  1.0000
  H   H180      1.0  0.6054095356932704  0.26396365213584305  0.7644926433118985  1.0000
  H   H181      1.0  0.5695718713788096  0.19633669972428458  0.7525764534239721  1.0000
  H   H182      1.0  0.4600521191966091  0.24960604465514913  0.7612513627661907  1.0000
  H   H183      1.0  0.48335580018900254  0.2010051101897341  0.7138864616015259  1.0000
  H   H184      1.0  0.4557296929942934  0.27205392926362615  0.699842020563561  1.0000
  N   N11       1.0  0.6432208951369214  0.6472640325544645  0.046702615793127185  1.0000
  C   C137      1.0  0.643038352595506  0.5984480005073056  0.08207161498986063  1.0000
  C   C138      1.0  0.692555961787961  0.6458780862237143  0.018122364882790398  1.0000
  C   C139      1.0  0.6388915184905981  0.7057721469665644  0.07186818633555732  1.0000
  C   C140      1.0  0.5984274915142376  0.6389494390230994  0.014732979941444402  1.0000
  H   H185      1.0  0.6758460625169119  0.6036935364660063  0.10735378646395663  1.0000
  H   H186      1.0  0.6471646729637633  0.5537038059460523  0.06418472703820405  1.0000
  H   H187      1.0  0.6058541946061329  0.5972788493384446  0.1035221361335205  1.0000
  H   H188      1.0  0.6943782192348051  0.6827365754358113  0.9916148877397386  1.0000
  H   H189      1.0  0.7271893479280607  0.6504588323657009  0.041382449245376714  1.0000
  H   H190      1.0  0.6965990591971901  0.6028282266364495  0.997913431611139  1.0000
  H   H191      1.0  0.6391720494926855  0.7435839962701251  0.04613046418071787  1.0000
  H   H192      1.0  0.6717500972770087  0.7133435146245009  0.09672049160279966  1.0000
  H   H193      1.0  0.601616001102288  0.7089490821246816  0.09310872734919472  1.0000
  H   H194      1.0  0.5987328406058076  0.6732064891290417  0.9860413600216277  1.0000
  H   H195      1.0  0.5604744847507329  0.6431336568076677  0.03479421766468227  1.0000
  H   H196      1.0  0.5987640603748481  0.5938467901108979  0.9973621027570941  1.0000
  N   N12       1.0  0.6372072309438689  0.07101576036598045  0.5580244106636758  1.0000
  C   C141      1.0  0.6062716489584745  0.12335784401164453  0.5740192943383818  1.0000
  C   C142      1.0  0.6910917267421417  0.09077578261939911  0.5456745995995803  1.0000
  C   C143      1.0  0.6131406721641282  0.04358272557320331  0.5153585138386076  1.0000
  C   C144      1.0  0.6380873369820876  0.02677689087463353  0.5969859864807001  1.0000
  H   H197      1.0  0.5652150041329136  0.11013533773079544  0.5826488655942716  1.0000
  H   H198      1.0  0.605268171742116  0.15800222321222226  0.5458658300876582  1.0000
  H   H199      1.0  0.6226796296264355  0.1447826124405911  0.6066468584741069  1.0000
  H   H200      1.0  0.7160067287740557  0.052472024648740456  0.5338708875760406  1.0000
  H   H201      1.0  0.691505383951272  0.12371668345534871  0.515900602329195  1.0000
  H   H202      1.0  0.7102100116165523  0.11284029386956673  0.5767830123993427  1.0000
  H   H203      1.0  0.6346326615040055  0.003014253481547158  0.5028337213542764  1.0000
  H   H204      1.0  0.6132958880414919  0.07556387111190599  0.485091598201023  1.0000
  H   H205      1.0  0.5715990923225565  0.0304158807710313  0.5226185773774369  1.0000
  H   H206      1.0  0.6616267147314585  0.9868300716283823  0.5865584383197666  1.0000
  H   H207      1.0  0.5978740166688813  0.01093808150366482  0.6068628016071214  1.0000
  H   H208      1.0  0.65514138259407  0.04659307975327165  0.6299960807378236  1.0000
  N   N13       1.0  0.30463144021029476  0.41113379673965145  0.16595169575180033  1.0000
  C   C145      1.0  0.3321451990775471  0.39198703472751634  0.20903549970712845  1.0000
  C   C146      1.0  0.31819331978856025  0.47435636222128963  0.15572250926357536  1.0000
  C   C147      1.0  0.24758929487756307  0.4053989095191179  0.17448160158299922  1.0000
  C   C148      1.0  0.32045747661782775  0.37299114659118143  0.12456056890542354  1.0000
  H   H209      1.0  0.3227136163764266  0.34449080138042715  0.21792380649611742  1.0000
  H   H210      1.0  0.3208780394797099  0.4200204378576827  0.24086441392695626  1.0000
  H   H211      1.0  0.3753327193246816  0.39583658874295574  0.20390437984255405  1.0000
  H   H212      1.0  0.2985234983696076  0.49004245108605304  0.12311564798029888  1.0000
  H   H213      1.0  0.30579220437622057  0.5047673370856575  0.18573655203162165  1.0000
  H   H214      1.0  0.3610086963846588  0.4807618294988434  0.14970308128743798  1.0000
  H   H215      1.0  0.22561619328719706  0.4195056002108278  0.14265004046454802  1.0000
  H   H216      1.0  0.23423718744024838  0.43386188352516697  0.20535614869938348  1.0000
  H   H217      1.0  0.23573235152077124  0.3583631558739884  0.1825028252382889  1.0000
  H   H218      1.0  0.3003640748879642  0.38647902258735845  0.09145395273896938  1.0000
  H   H219      1.0  0.3106666706203549  0.3249390661035341  0.13076186823747118  1.0000
  H   H220      1.0  0.3632727585345683  0.3762503569643552  0.11682426502462101  1.0000
  N   N14       1.0  0.6836449442519138  0.5711826233705075  0.5842397989129314  1.0000
  C   C149      1.0  0.66249557633096  0.6318503891280226  0.5774662597006497  1.0000
  C   C150      1.0  0.7372421217055021  0.5681872161904311  0.5634529776952164  1.0000
  C   C151      1.0  0.6499134473164304  0.5265652940301019  0.5600719474650169  1.0000
  C   C152      1.0  0.6848885287910348  0.5580898412482286  0.635936909209929  1.0000
  H   H221      1.0  0.6220920198911694  0.6355262352647649  0.5928887956625165  1.0000
  H   H222      1.0  0.6609492576798778  0.6429927448997184  0.5387807381558599  1.0000
  H   H223      1.0  0.687006973517561  0.6667284509028816  0.5952042912942513  1.0000
  H   H224      1.0  0.7378625483896141  0.5768096110990414  0.524246886653817  1.0000
  H   H225      1.0  0.7638688976596979  0.6014752431723109  0.5804411642596302  1.0000
  H   H226      1.0  0.7545418388411355  0.5230659219377337  0.5681873412986457  1.0000
  H   H227      1.0  0.6489041642648565  0.5340231700055192  0.5207802250753166  1.0000
  H   H228      1.0  0.6089648499335197  0.5276535616869416  0.5744770603639351  1.0000
  H   H229      1.0  0.6641121028761023  0.4802527548837969  0.5651821034252766  1.0000
  H   H230      1.0  0.7012433268396566  0.5128439617567951  0.6422820328762572  1.0000
  H   H231      1.0  0.6449785013596562  0.5590369963665426  0.6527265375340108  1.0000
  H   H232      1.0  0.7094670263147288  0.5912278961149486  0.6555154068585823  1.0000
  N   N15       1.0  0.9723728919831807  0.5560923343956614  0.2869341599927629  1.0000
  C   C153      1.0  0.9604627441560247  0.5258084363837694  0.33274454743920573  1.0000
  C   C154      1.0  0.025513925995694464  0.5826485583019497  0.2883318681989797  1.0000
  C   C155      1.0  0.9339165524806029  0.6039313654960818  0.2795766012083091  1.0000
  C   C156      1.0  0.9695968478397776  0.5120833716177283  0.24704778191674445  1.0000
  H   H233      1.0  0.9202874212187723  0.5061868720862186  0.33353102756411895  1.0000
  H   H234      1.0  0.9634309625355155  0.5576635083418706  0.36359523096330265  1.0000
  H   H235      1.0  0.9883535361765801  0.48872632230053037  0.33879530975958166  1.0000
  H   H236      1.0  0.05508655980604904  0.5487711877503532  0.29723712633162186  1.0000
  H   H237      1.0  0.03758724541803793  0.6021508548260592  0.25326685627270573  1.0000
  H   H238      1.0  0.028139571873955216  0.6190940472824241  0.31580918382155004  1.0000
  H   H239      1.0  0.9417630084702845  0.6270859233051039  0.2450867967024871  1.0000
  H   H240      1.0  0.9355261101299155  0.6387262999739775  0.30843451961187857  1.0000
  H   H241      1.0  0.893261508280233  0.585729526223794  0.27865787964235395  1.0000
  H   H242      1.0  0.9792838665668623  0.533328072059797  0.2120271803025928  1.0000
  H   H243      1.0  0.9297935580563682  0.4918699248255834  0.24450347352714505  1.0000
  H   H244      1.0  0.9976347342368672  0.4748906347795846  0.2515463706267362  1.0000
  N   N16       1.0  0.11162282015246472  0.29162851338944007  0.5935676550537826  1.0000
  C   C157      1.0  0.140175799466703  0.2522528600884857  0.6259331151203338  1.0000
  C   C158      1.0  0.05473646846625835  0.28226469529884635  0.6011180446262648  1.0000
  C   C159      1.0  0.12622593599028264  0.2768484306733836  0.5433231922431527  1.0000
  C   C160      1.0  0.12535685257542162  0.35495814338498377  0.6039327782228157  1.0000
  H   H245      1.0  0.18331804812444719  0.25676803195902087  0.6203316807133412  1.0000
  H   H246      1.0  0.12936886773249268  0.20425776485925473  0.6199930836502725  1.0000
  H   H247      1.0  0.13113436683240365  0.26310655629462  0.6641909810038514  1.0000
  H   H248      1.0  0.031913111740596634  0.3116174046028295  0.5775655759015794  1.0000
  H   H249      1.0  0.04309864889982773  0.23490586101162858  0.5932885939884359  1.0000
  H   H250      1.0  0.042325833117846656  0.292643543946175  0.6387280528233106  1.0000
  H   H251      1.0  0.1065514482833323  0.30691734676830973  0.5179675382891097  1.0000
  H   H252      1.0  0.11513894196843388  0.22985700708742995  0.5339715753088748  1.0000
  H   H253      1.0  0.1690722343997324  0.2816304671923955  0.5366691738207681  1.0000
  H   H254      1.0  0.10463616297342893  0.3859972702071026  0.5800687781483856  1.0000
  H   H255      1.0  0.16797116890069597  0.36350113210267754  0.5985262600693707  1.0000
  H   H256      1.0  0.11467152495269972  0.36779150391189463  0.6414745961702047  1.0000
