data_image0
_chemical_formula_structural       FeS2FeS2FeSFeS3FeS2FeS2FeSFeS3FeS2FeS2FeSFeS3FeS2FeS2FeSFeS3FeS2FeS2FeSFeS3FeS2FeS2FeSFeS3FeS2FeS2FeSFeS3FeS2FeS2FeSFeS3FeS2FeS2FeSFeS3FeS2FeS2FeSFeS3FeS2FeS2FeSFeS3FeS2FeS2FeSFeS3C6H4C6H4C6H4C6H4C6H4C6H4C6H4C6H4C6H4C6H4C6H4C6H4C6H4C6H4C6H4C6H4C6H4C6H4C6H4C6H4C6H4C6H4C6H4C6H4NC4H12NC4H12NC4H12NC4H12NC4H12NC4H12NC4H12NC4H12NC4H12NC4H12NC4H12NC4H12NC4H12NC4H12NC4H12NC4H12NC4H12NC4H12NC4H12NC4H12NC4H12NC4H12NC4H12NC4H12
_chemical_formula_sum              "Fe48 S96 C240 H384 N24"
_cell_length_a       28.216156427909397
_cell_length_b       27.532461123396953
_cell_length_c       53.57097126942297
_cell_angle_alpha    90.296403271754
_cell_angle_beta     89.41313260027584
_cell_angle_gamma    119.50993135060773

_space_group_name_H-M_alt    "P 1"
_space_group_IT_number       1

loop_
  _space_group_symop_operation_xyz
  'x, y, z'

loop_
  _atom_site_type_symbol
  _atom_site_label
  _atom_site_symmetry_multiplicity
  _atom_site_fract_x
  _atom_site_fract_y
  _atom_site_fract_z
  _atom_site_occupancy
  Fe  Fe1       1.0  0.688196752783684  0.8082690472108244  0.5397834601727719  1.0000
  S   S1        1.0  0.602469084398049  0.793454739672771  0.5414497283294022  1.0000
  S   S2        1.0  0.6997160521550848  0.7427619176713406  0.5595890508249104  1.0000
  Fe  Fe2       1.0  0.7242518614214989  0.9041824754362859  0.5023979332269455  1.0000
  S   S3        1.0  0.6413659149084311  0.8959544617622491  0.5015065260043796  1.0000
  S   S4        1.0  0.7932959026058523  0.9670916218688913  0.4782258586392753  1.0000
  Fe  Fe3       1.0  0.6430390612193021  0.8870596578940022  0.5429314135973651  1.0000
  S   S5        1.0  0.6153766741927655  0.9351290471935536  0.567221366797957  1.0000
  Fe  Fe4       1.0  0.6100282312094336  0.8037643536585665  0.4999259125067644  1.0000
  S   S6        1.0  0.5557292066930712  0.7486759732665609  0.46921338498096027  1.0000
  S   S7        1.0  0.7283939813210469  0.9014271480144537  0.5443120893530292  1.0000
  S   S8        1.0  0.6931417325344157  0.8124528591910742  0.49798905093363066  1.0000
  Fe  Fe5       1.0  0.9593442003444683  0.2908902102095008  0.5947371650963816  1.0000
  S   S9        1.0  0.8976946699470197  0.3197623715221643  0.5930135406831774  1.0000
  S   S10       1.0  0.04277692502156704  0.3434217484582853  0.5776588306175967  1.0000
  Fe  Fe6       1.0  0.8879086718242903  0.1922385551427475  0.6286924175988067  1.0000
  S   S11       1.0  0.8204262004452819  0.2129300413887021  0.629810014567426  1.0000
  S   S12       1.0  0.8818913130711501  0.11610811921642604  0.6475998565541206  1.0000
  Fe  Fe7       1.0  0.8374563243272853  0.22840797336786162  0.5887918342542323  1.0000
  S   S13       1.0  0.7689238531264646  0.19634520422712096  0.561411948465523  1.0000
  Fe  Fe8       1.0  0.88676370132973  0.3021151640959011  0.6341509698131064  1.0000
  S   S14       1.0  0.8867210440208021  0.35901971845628466  0.6646974941836662  1.0000
  S   S15       1.0  0.9000799104363034  0.20094269178593888  0.5870522850201394  1.0000
  S   S16       1.0  0.9532715157393858  0.2799041376406673  0.6363250810396676  1.0000
  Fe  Fe9       1.0  0.8745147821303589  0.7374890738221014  0.6653424176058429  1.0000
  S   S17       1.0  0.7958360611688768  0.6591287271511078  0.6735969789968842  1.0000
  S   S18       1.0  0.8829807799399508  0.8084150729429526  0.6410340532357884  1.0000
  Fe  Fe10      1.0  0.9404365756918376  0.7035930285315761  0.6989909524570245  1.0000
  S   S19       1.0  0.8676330450210958  0.621763561619402  0.7089790112755782  1.0000
  S   S20       1.0  0.02040501153320465  0.7192039942522275  0.7150961341590313  1.0000
  Fe  Fe11      1.0  0.8459718009278301  0.6163671674735992  0.6685286885177378  1.0000
  S   S21       1.0  0.8204582685856727  0.5433446230330898  0.6423418777282912  1.0000
  Fe  Fe12      1.0  0.825074574028619  0.6719575056791421  0.7131990957565282  1.0000
  S   S22       1.0  0.7824070049281856  0.6668988627998031  0.7495669083803839  1.0000
  S   S23       1.0  0.922904656096503  0.6942067677614485  0.6579387131917852  1.0000
  S   S24       1.0  0.8992857374576533  0.7543449741486854  0.7055647700409283  1.0000
  Fe  Fe13      1.0  0.7146174313287269  0.9741214852805575  0.7685893916504533  1.0000
  S   S25       1.0  0.6265077895434659  0.9084977223474594  0.7657426047168279  1.0000
  S   S26       1.0  0.7440519090845215  0.05554133506931769  0.7479806688860365  1.0000
  Fe  Fe14      1.0  0.7380406041265904  0.9084061142318325  0.808178626730065  1.0000
  S   S27       1.0  0.651788090654698  0.8382856138398579  0.8083109316274045  1.0000
  S   S28       1.0  0.8033835122474214  0.9103379935686067  0.8331821373220665  1.0000
  Fe  Fe15      1.0  0.6591139557676766  0.8486533257651192  0.7667285839019833  1.0000
  S   S29       1.0  0.6326985362118835  0.776653869061927  0.7402097667611579  1.0000
  Fe  Fe16      1.0  0.6278912571048971  0.9049593642766631  0.8075861463799542  1.0000
  S   S30       1.0  0.5685451725601948  0.9046352106856766  0.8365732912692893  1.0000
  S   S31       1.0  0.7472509265130844  0.9146105615155282  0.7664251002471473  1.0000
  S   S32       1.0  0.714109444243729  0.9749521802716569  0.810496486116623  1.0000
  Fe  Fe17      1.0  0.1791065699362715  0.8857073528523517  0.8297146935102163  1.0000
  S   S33       1.0  0.1899355848179705  0.8123502116824886  0.8384348391189428  1.0000
  S   S34       1.0  0.10596352861267164  0.8784190764066144  0.8095267231741812  1.0000
  Fe  Fe18      1.0  0.27780496250809156  0.965985608686989  0.8609792937868721  1.0000
  S   S35       1.0  0.2960895235492983  0.898722643174494  0.8723201180800438  1.0000
  S   S36       1.0  0.33477187223108246  0.053827510600440664  0.8738974336460597  1.0000
  Fe  Fe19      1.0  0.279451083340374  0.8718286030350059  0.8321916073511486  1.0000
  S   S37       1.0  0.3321762542528209  0.8538447371260172  0.8059067626885957  1.0000
  Fe  Fe20      1.0  0.205548113201193  0.8465269692612414  0.8774981917458753  1.0000
  S   S38       1.0  0.16447651510716496  0.8016682137101948  0.9128912160083589  1.0000
  S   S39       1.0  0.26714739843813046  0.9430422074237507  0.8203674415787067  1.0000
  S   S40       1.0  0.1887705525188362  0.9159654500390906  0.8692205654881562  1.0000
  Fe  Fe21      1.0  0.7850665221525994  0.7115091378763593  0.9371407776862818  1.0000
  S   S41       1.0  0.7739715110602885  0.6260241756638415  0.9306958140248377  1.0000
  S   S42       1.0  0.7234135525458558  0.7271712137759135  0.9177684492708372  1.0000
  Fe  Fe22      1.0  0.8811295962788753  0.7444030070164521  0.9724851259252718  1.0000
  S   S43       1.0  0.8767595242713601  0.6612344196790044  0.9684982217876702  1.0000
  S   S44       1.0  0.9420193517371095  0.812333490749304  0.9976747003471566  1.0000
  Fe  Fe23      1.0  0.8652228634632699  0.6712039945904829  0.9277808631090008  1.0000
  S   S45       1.0  0.9104346526717597  0.659286995289446  0.8957001406147742  1.0000
  Fe  Fe24      1.0  0.7863910907676235  0.6254050360215607  0.9719298239556334  1.0000
  S   S46       1.0  0.7372548441085791  0.5604936749314348  0.0010120693674751102  1.0000
  S   S47       1.0  0.8754667851841503  0.7569512814480942  0.9314655760108362  1.0000
  S   S48       1.0  0.7910432036399597  0.7080804603477481  0.9787026035270823  1.0000
  Fe  Fe25      1.0  0.12442131017091534  0.37917964591696485  0.2001692212730564  1.0000
  S   S49       1.0  0.1986494018783116  0.4622014715972776  0.20714456111291427  1.0000
  S   S50       1.0  0.04684286560171369  0.3654000758562202  0.21898083877602878  1.0000
  Fe  Fe26      1.0  0.18645952389622367  0.3394427837378599  0.1666230225807964  1.0000
  S   S51       1.0  0.26545476077145913  0.4185491183361653  0.1714657153459055  1.0000
  S   S52       1.0  0.18413637916044162  0.2682556620032273  0.14451362389783612  1.0000
  Fe  Fe27      1.0  0.24100824658780476  0.4121816914711467  0.21174902620259448  1.0000
  S   S53       1.0  0.29482318125210427  0.42595346855645744  0.24481393740440702  1.0000
  Fe  Fe28      1.0  0.21549307197159834  0.46099719778908105  0.16619431224999562  1.0000
  S   S54       1.0  0.2481249859200604  0.5336567760855959  0.13926364489083443  1.0000
  S   S55       1.0  0.16580123255725537  0.32918069725425364  0.20763752327475446  1.0000
  S   S56       1.0  0.1376296602982623  0.38181072985045933  0.1585320249907582  1.0000
  Fe  Fe29      1.0  0.41821793650405215  0.24448188473358795  0.2582051573037698  1.0000
  S   S57       1.0  0.3304561057179382  0.1778122482852614  0.2591575698459687  1.0000
  S   S58       1.0  0.4394924326114381  0.31102388203296255  0.2292141395263366  1.0000
  Fe  Fe30      1.0  0.44954981240374264  0.19423105273480623  0.30107555806379  1.0000
  S   S59       1.0  0.36345312630264026  0.12426552862824594  0.30533655647436214  1.0000
  S   S60       1.0  0.5061390262624015  0.19549064406939037  0.3310809206299082  1.0000
  Fe  Fe31      1.0  0.363791408762451  0.11956869240818035  0.26356704099625244  1.0000
  S   S61       1.0  0.3334017735609017  0.03566206655239035  0.2452717267318304  1.0000
  Fe  Fe32      1.0  0.33883639520081354  0.1896280566443855  0.30058409029553357  1.0000
  S   S62       1.0  0.2713802842377181  0.1900376145747842  0.32369797792798677  1.0000
  S   S63       1.0  0.4516857287243886  0.18528717570943473  0.259394974666265  1.0000
  S   S64       1.0  0.42487853765215383  0.2602653191082994  0.299504484669594  1.0000
  Fe  Fe33      1.0  0.8885838560796383  0.20656429355927933  0.3347184833380466  1.0000
  S   S65       1.0  0.8852744993192131  0.28427238010687783  0.34366824562828324  1.0000
  S   S66       1.0  0.9545896500080309  0.20323965287546178  0.31189033712265685  1.0000
  Fe  Fe34      1.0  0.7876390355653992  0.13343173265229782  0.3662437396226364  1.0000
  S   S67       1.0  0.7755745361670284  0.20512327228635455  0.37772998042638123  1.0000
  S   S68       1.0  0.7291683322405277  0.0474540381102706  0.38032421073085954  1.0000
  Fe  Fe35      1.0  0.7948755534954729  0.2313162593523111  0.3375237145699675  1.0000
  S   S69       1.0  0.7529151858530995  0.26181000803983207  0.3111719006333552  1.0000
  Fe  Fe36      1.0  0.8662277537593673  0.2506321525487506  0.382761943827315  1.0000
  S   S70       1.0  0.9100910953283661  0.29532363867632555  0.4175291471608747  1.0000
  S   S71       1.0  0.7999269125289662  0.15564429680144218  0.3255875358030881  1.0000
  S   S72       1.0  0.8765692596586289  0.17683008651522936  0.37431393266475316  1.0000
  Fe  Fe37      1.0  0.28501052351739253  0.47255063765965977  0.4650995536724909  1.0000
  S   S73       1.0  0.2832066192016428  0.39004625189645953  0.4671979571296819  1.0000
  S   S74       1.0  0.3281182301136704  0.537373156500034  0.49505789946110285  1.0000
  Fe  Fe38      1.0  0.2083459079214066  0.43555157743794126  0.42056657002421877  1.0000
  S   S75       1.0  0.2015556371105339  0.35146265734590665  0.41908512285269356  1.0000
  S   S76       1.0  0.15934073062540985  0.44827137278514595  0.39133832651212513  1.0000
  Fe  Fe39      1.0  0.19319252380767196  0.35275559334160533  0.4607155057716419  1.0000
  S   S77       1.0  0.12153961565372653  0.2781899438171162  0.4783584728176153  1.0000
  Fe  Fe40      1.0  0.2913230560173885  0.39747500897050175  0.42534395307539186  1.0000
  S   S78       1.0  0.35140495091530655  0.38802607245991494  0.40074298919366674  1.0000
  S   S79       1.0  0.19423097531222333  0.4344947474483669  0.4617957441220694  1.0000
  S   S80       1.0  0.2991656606500484  0.4825148426682174  0.4236283563854958  1.0000
  Fe  Fe41      1.0  0.14855006538781984  0.8011606968485606  0.08868871990699151  1.0000
  S   S81       1.0  0.2162538571411147  0.7805814439018375  0.08979598822675225  1.0000
  S   S82       1.0  0.0771368810003236  0.7391667673947887  0.06589971591012223  1.0000
  Fe  Fe42      1.0  0.20931956377731858  0.9023010278863244  0.12280724868111019  1.0000
  S   S83       1.0  0.28086627568040234  0.8885750864684085  0.1264456989334022  1.0000
  S   S84       1.0  0.2142034919255803  0.9788164276059763  0.1410749043219297  1.0000
  Fe  Fe43      1.0  0.270876128075785  0.8726996117987899  0.08530283294318955  1.0000
  S   S85       1.0  0.3433242609649238  0.9099695978149133  0.05958102658584259  1.0000
  Fe  Fe44      1.0  0.21871297636997836  0.7980918250984336  0.13074862404061083  1.0000
  S   S86       1.0  0.21877216156458332  0.7432478527933533  0.1619833749467608  1.0000
  S   S87       1.0  0.2033089851448402  0.8922734117515123  0.08099618389239394  1.0000
  S   S88       1.0  0.1470288997421599  0.8126479277016593  0.13018691224041917  1.0000
  Fe  Fe45      1.0  0.34701286999104347  0.1865347818876637  0.9991617390758681  1.0000
  S   S89       1.0  0.4317672402219671  0.19938102821780967  0.9990771717781494  1.0000
  S   S90       1.0  0.27547795701192307  0.117856539948698  0.9789794473339144  1.0000
  Fe  Fe46      1.0  0.3747327159519822  0.2835979596737123  0.03447595619454957  1.0000
  S   S91       1.0  0.46234955134224504  0.30518712439575246  0.037608619919324626  1.0000
  S   S92       1.0  0.34290894816945894  0.3383119160324151  0.05054225286637104  1.0000
  Fe  Fe47      1.0  0.45904023839402885  0.29098088968276975  0.9961912121231286  1.0000
  S   S93       1.0  0.5217180763927096  0.3450966048037943  0.9672046038006513  1.0000
  Fe  Fe48      1.0  0.4282265218636104  0.21236753424782187  0.0402466461712192  1.0000
  S   S94       1.0  0.4599656117403318  0.172527225056998  0.06675303582737091  1.0000
  S   S95       1.0  0.37393173656616924  0.2766739075753238  0.9926982167064902  1.0000
  S   S96       1.0  0.34099051608629594  0.19187825849255438  0.040822776431057584  1.0000
  C   C1        1.0  0.37508071981568014  0.9830756689862286  0.05984980110473259  1.0000
  C   C2        1.0  0.4319289897727957  0.014463696146098881  0.060120983894328406  1.0000
  C   C3        1.0  0.45788207131041014  0.07278487269917022  0.06183422823226392  1.0000
  C   C4        1.0  0.42715488395059037  0.10006171534347752  0.06227895834418695  1.0000
  C   C5        1.0  0.37029183766315993  0.06884161644511132  0.061137778552654794  1.0000
  C   C6        1.0  0.3442296837333043  0.010308784894184964  0.06039802526795601  1.0000
  H   H1        1.0  0.4558966854734084  0.9935775065251787  0.05969811285127524  1.0000
  H   H2        1.0  0.5018434878112793  0.09683291862934418  0.06273104307457555  1.0000
  H   H3        1.0  0.3463364264745246  0.0897015765154702  0.06175691381088233  1.0000
  H   H4        1.0  0.3003323946205237  0.9864508569301312  0.06021480373007691  1.0000
  C   C7        1.0  0.9791032420428311  0.3375366096851002  0.4099361267289262  1.0000
  C   C8        1.0  0.9948712933671493  0.3719579918428208  0.3888503529831814  1.0000
  C   C9        1.0  0.050331942999362736  0.4063888233368015  0.38320479615826597  1.0000
  C   C10       1.0  0.09000764442117899  0.4060140360698238  0.3985260184198174  1.0000
  C   C11       1.0  0.07404926773159362  0.37051680598773246  0.41924753227765743  1.0000
  C   C12       1.0  0.018741453293735333  0.33657981429752826  0.4250283260215355  1.0000
  H   H5        1.0  0.9643668277222315  0.37318418816881793  0.377231214585896  1.0000
  H   H6        1.0  0.06241939477469347  0.4335592888079248  0.3670783345246211  1.0000
  H   H7        1.0  0.10420938234490867  0.3686759248891069  0.43077942497985633  1.0000
  H   H8        1.0  0.006726618538528628  0.30891718114480976  0.44096616875669903  1.0000
  C   C13       1.0  0.2904503413308487  0.2477602058763114  0.34341709397725073  1.0000
  C   C14       1.0  0.3397240735866444  0.2969658483927424  0.3397053436373894  1.0000
  C   C15       1.0  0.3573717329337613  0.34040305812072563  0.35713830037446753  1.0000
  C   C16       1.0  0.32515966307206745  0.3354246590716401  0.3780481828670532  1.0000
  C   C17       1.0  0.2742337692697991  0.2876284263896658  0.3810504449956894  1.0000
  C   C18       1.0  0.25698043840125506  0.24370973375290758  0.3637518538549778  1.0000
  H   H9        1.0  0.36459589530482844  0.3014327864204093  0.3235468313257409  1.0000
  H   H10       1.0  0.3965202814447784  0.3776316081079772  0.3546082627217838  1.0000
  H   H11       1.0  0.2494804256802521  0.2832880923646389  0.3973304247412707  1.0000
  H   H12       1.0  0.21872790047822585  0.20565533184323423  0.36665849412248913  1.0000
  C   C19       1.0  0.6836726413176589  0.24120834805248276  0.3164280874818275  1.0000
  C   C20       1.0  0.6573203267072748  0.21518579619224498  0.3386778457486449  1.0000
  C   C21       1.0  0.6027248957053493  0.2010130756156977  0.34277853749570064  1.0000
  C   C22       1.0  0.5738047834209145  0.21182930511842835  0.324518876654039  1.0000
  C   C23       1.0  0.5998013510381959  0.23696166605821836  0.3020496273267555  1.0000
  C   C24       1.0  0.654764288056311  0.25198873181881537  0.298111276438193  1.0000
  H   H13       1.0  0.6791558589689565  0.206681047106751  0.3528897436968  1.0000
  H   H14       1.0  0.5828227529097171  0.18152149492978445  0.36017867642530943  1.0000
  H   H15       1.0  0.5778851355746426  0.24568528924730734  0.2879275698594194  1.0000
  H   H16       1.0  0.6749625413858411  0.2722921160320277  0.28089066022469167  1.0000
  C   C25       1.0  0.2967810895998705  0.01937647830931577  0.21726838462817763  1.0000
  C   C26       1.0  0.28342094054296535  0.056774836805879136  0.20602375413786156  1.0000
  C   C27       1.0  0.2568007680447682  0.04346070816037706  0.18285574615113637  1.0000
  C   C28       1.0  0.24368850269428396  0.9929530099659791  0.1708982571652347  1.0000
  C   C29       1.0  0.25627037846597756  0.9553409146421227  0.18239620367318102  1.0000
  C   C30       1.0  0.28273860696133135  0.9685470072511068  0.20548987405587474  1.0000
  H   H17       1.0  0.29431377247885065  0.09597265407348687  0.2150744248686542  1.0000
  H   H18       1.0  0.24690197852784526  0.07235744574395242  0.1739802965248667  1.0000
  H   H19       1.0  0.24540496009960047  0.9158294933083765  0.17361139123093483  1.0000
  H   H20       1.0  0.29269240562014126  0.9393424857534316  0.21420155103387664  1.0000
  C   C31       1.0  0.22847808984717125  0.28787812669543966  0.11846966877817804  1.0000
  C   C32       1.0  0.2538052017886951  0.34253118212493194  0.10938256441036408  1.0000
  C   C33       1.0  0.2891366129883609  0.35743610549365856  0.08866265914873889  1.0000
  C   C34       1.0  0.30044189024256557  0.3182536932228823  0.07725854150937006  1.0000
  C   C35       1.0  0.2755216648934004  0.2636487752929297  0.0864891546718706  1.0000
  C   C36       1.0  0.23879730269384683  0.2482680049735913  0.10672380616240666  1.0000
  H   H21       1.0  0.24554385752552746  0.37318574324319337  0.11804572508582417  1.0000
  H   H22       1.0  0.3079510701291158  0.3996277387426866  0.0814998767382169  1.0000
  H   H23       1.0  0.28413990646527776  0.23314586546153163  0.07798752304422112  1.0000
  H   H24       1.0  0.21869371826895925  0.20567244042698973  0.11338890578267438  1.0000
  C   C37       1.0  0.23797102775266862  0.5907049663405454  0.1454253773353624  1.0000
  C   C38       1.0  0.21253351562304876  0.593689461177202  0.16744795288127967  1.0000
  C   C39       1.0  0.20743765230609523  0.6410505020125171  0.17242134195412723  1.0000
  C   C40       1.0  0.2265535984136013  0.6850138860805496  0.15517773685620717  1.0000
  C   C41       1.0  0.25102480026291474  0.6815725586572845  0.13291897828427518  1.0000
  C   C42       1.0  0.25710036830470456  0.6346692398242506  0.12816100056094637  1.0000
  H   H25       1.0  0.19713951831431314  0.5598079470082844  0.18076078401159115  1.0000
  H   H26       1.0  0.1882624704578137  0.6435223046333448  0.18962796694505268  1.0000
  H   H27       1.0  0.2663259827168538  0.7155884548560528  0.1196509435908963  1.0000
  H   H28       1.0  0.27698235212612093  0.6326113267024118  0.11112003151914192  1.0000
  C   C43       1.0  0.3354034352359534  0.3945445420529509  0.24030659450597475  1.0000
  C   C44       1.0  0.3430199047823236  0.3661117550424473  0.26007034876002244  1.0000
  C   C45       1.0  0.3747039503254952  0.3402164072948325  0.25664510182935185  1.0000
  C   C46       1.0  0.4005915780878494  0.34434073200976584  0.23372351245781925  1.0000
  C   C47       1.0  0.39343436705791585  0.37324958667802466  0.2139876884167742  1.0000
  C   C48       1.0  0.36025947168348954  0.39768813156692  0.2171665013129293  1.0000
  H   H29       1.0  0.32377429129802315  0.3631129384975201  0.2779504596006365  1.0000
  H   H30       1.0  0.37949915439636384  0.3175244703677795  0.27187011500437347  1.0000
  H   H31       1.0  0.41310108582117705  0.37619434509175825  0.1961678012778953  1.0000
  H   H32       1.0  0.35479562895443506  0.4197453731091059  0.20183865639813148  1.0000
  C   C49       1.0  0.02697464037372832  0.32387046750186077  0.2460718503610931  1.0000
  C   C50       1.0  0.036471269628491454  0.27882490978699126  0.24845398060008467  1.0000
  C   C51       1.0  0.015324311917485511  0.24287915882569064  0.26910700774696295  1.0000
  C   C52       1.0  0.9845032138926972  0.2517178648616571  0.28740997001452795  1.0000
  C   C53       1.0  0.9767463367795274  0.29794250564321906  0.2855020776298863  1.0000
  C   C54       1.0  0.9978752689894581  0.3338474322592861  0.26484538479997466  1.0000
  H   H33       1.0  0.05830152820487511  0.270408665870753  0.23392483026608102  1.0000
  H   H34       1.0  0.02150655689721037  0.20719251571649053  0.2704784986867122  1.0000
  H   H35       1.0  0.9540678063182639  0.3058207835739297  0.2997528776629313  1.0000
  H   H36       1.0  0.9914733166083635  0.3693647440486857  0.26329225342656204  1.0000
  C   C55       1.0  0.9867346871211682  0.7972199997579313  0.014475592607353871  1.0000
  C   C56       1.0  0.01350835725372912  0.829068028450634  0.03556804011300474  1.0000
  C   C57       1.0  0.044467877308121295  0.8137313295932076  0.05074380842949777  1.0000
  C   C58       1.0  0.048072664700751444  0.7660030008610014  0.045002197410404676  1.0000
  C   C59       1.0  0.02320171728496101  0.7356207408512901  0.02338770506734322  1.0000
  C   C60       1.0  0.9934183485083046  0.7517231225408689  0.007983601509406135  1.0000
  H   H37       1.0  0.008991114653065901  0.8647030877587754  0.0405982020738791  1.0000
  H   H38       1.0  0.06346766770634812  0.8373783523803275  0.067443168344554  1.0000
  H   H39       1.0  0.02662501688671015  0.6992304241228768  0.01859943710939005  1.0000
  H   H40       1.0  0.9754723184439836  0.7286425850663699  0.9911529218369916  1.0000
  C   C61       1.0  0.6793925575202029  0.4985643017469799  0.9916052353353059  1.0000
  C   C62       1.0  0.6724897117306303  0.48078879278518405  0.9667596233526624  1.0000
  C   C63       1.0  0.6245854894345285  0.4324939187706179  0.9596079687159281  1.0000
  C   C64       1.0  0.583351996863391  0.402067995892994  0.9772279155400009  1.0000
  C   C65       1.0  0.5907655209492807  0.4195653904846556  0.0021142760878438693  1.0000
  C   C66       1.0  0.6387877181084792  0.4675285067836381  0.009299422054539708  1.0000
  H   H41       1.0  0.7041292687699814  0.503981988498322  0.9531077697901428  1.0000
  H   H42       1.0  0.619147411600857  0.41885469194275926  0.940350571603373  1.0000
  H   H43       1.0  0.5592393436347257  0.39660476127540706  0.015783422595554653  1.0000
  H   H44       1.0  0.6439555568710392  0.48103270395433345  0.028564069377588153  1.0000
  C   C67       1.0  0.09395762360261788  0.761386264017589  0.9081947193844108  1.0000
  C   C68       1.0  0.05765724796930843  0.7557393736431717  0.9274389458151056  1.0000
  C   C69       1.0  0.0012669824296420718  0.7248000485817735  0.9235856087937253  1.0000
  C   C70       1.0  0.9809765205859491  0.6979758596029543  0.9007401820774968  1.0000
  C   C71       1.0  0.01724050717882397  0.7035290191432886  0.8815104211948791  1.0000
  C   C72       1.0  0.07361883296594189  0.7356355751147452  0.8851568436139926  1.0000
  H   H45       1.0  0.07312149373483745  0.7758060066038004  0.9452467449911386  1.0000
  H   H46       1.0  0.9736907704220765  0.7214541252892813  0.9384209149066542  1.0000
  H   H47       1.0  0.0018799100957178627  0.6827799903538131  0.86384909485804  1.0000
  H   H48       1.0  0.10136485547310656  0.7390738055619349  0.8703699047714536  1.0000
  C   C73       1.0  0.3177814063641967  0.07196590642143244  0.9029277829400627  1.0000
  C   C74       1.0  0.26544419334515607  0.04075173539556246  0.9131420861345356  1.0000
  C   C75       1.0  0.25243137219997297  0.0559615490398655  0.9361836959994491  1.0000
  C   C76       1.0  0.29200985570389487  0.10180513308149854  0.9494307400293168  1.0000
  C   C77       1.0  0.34438213340263485  0.13314231551585773  0.9392709712292172  1.0000
  C   C78       1.0  0.357090874841052  0.11847964163573411  0.9159763878537907  1.0000
  H   H49       1.0  0.2346614496214458  0.005432635861272851  0.9031286206254318  1.0000
  H   H50       1.0  0.21161440175686902  0.032027400566886806  0.9437223637640602  1.0000
  H   H51       1.0  0.37510177349179424  0.16893452185303828  0.9492236872300759  1.0000
  H   H52       1.0  0.3975923291012144  0.1430649518187212  0.9081528353027445  1.0000
  C   C79       1.0  0.7840372979673139  0.8556345241585646  0.8548294178674753  1.0000
  C   C80       1.0  0.7338198990533253  0.8067056924745338  0.853068669834474  1.0000
  C   C81       1.0  0.716239575156157  0.7664950845494524  0.872087851263712  1.0000
  C   C82       1.0  0.7495365953239526  0.7742026158673736  0.8926277131398801  1.0000
  C   C83       1.0  0.8012222824822348  0.8215905720178318  0.8937402600385838  1.0000
  C   C84       1.0  0.8182822947053817  0.8623899317465649  0.8749223439709837  1.0000
  H   H53       1.0  0.7082323876731769  0.7999322679337469  0.837155662010911  1.0000
  H   H54       1.0  0.6765827006293189  0.7295251405448394  0.8709213886308645  1.0000
  H   H55       1.0  0.8269339813970691  0.8281027276581705  0.9096708738077711  1.0000
  H   H56       1.0  0.8572414215737201  0.900161202220185  0.8763619187639681  1.0000
  C   C85       1.0  0.5020234932023248  0.8873437611427426  0.8278714651127828  1.0000
  C   C86       1.0  0.4855773905439764  0.8773548986923924  0.8029790612360568  1.0000
  C   C87       1.0  0.43276546733201166  0.8655616419919225  0.7965874246619028  1.0000
  C   C88       1.0  0.3962405649184974  0.8638826703709108  0.8149997984649886  1.0000
  C   C89       1.0  0.41232158418625575  0.8726671555099115  0.8399626759411817  1.0000
  C   C90       1.0  0.4652026981168323  0.8847145875033608  0.8463515603737198  1.0000
  H   H57       1.0  0.5135556925140637  0.8789757961049625  0.7886297375324883  1.0000
  H   H58       1.0  0.420379935021095  0.8583782044958947  0.7772516182616598  1.0000
  H   H59       1.0  0.3841028464406526  0.8704342828002681  0.8543174245552347  1.0000
  H   H60       1.0  0.4775766521588769  0.8919858243285997  0.8656727347694141  1.0000
  C   C91       1.0  0.7378127999146443  0.6940342655261228  0.7478196585731317  1.0000
  C   C92       1.0  0.7403524540031775  0.7321613215916377  0.7658913225147197  1.0000
  C   C93       1.0  0.7072340348829876  0.7567509298157301  0.7639355145927444  1.0000
  C   C94       1.0  0.6706678688058725  0.7423966800250016  0.744170500817483  1.0000
  C   C95       1.0  0.6667990983650423  0.7028107230999553  0.7265778412047218  1.0000
  C   C96       1.0  0.7007018553630572  0.6789940564643863  0.7282552130715307  1.0000
  H   H61       1.0  0.7687806090892785  0.7436918148228782  0.7811304583484336  1.0000
  H   H62       1.0  0.7103408833715289  0.7871220720737275  0.7776432149471092  1.0000
  H   H63       1.0  0.6383412943889926  0.6914091441196688  0.7113520686311116  1.0000
  H   H64       1.0  0.6982250304244205  0.6491105354083586  0.7143926119210544  1.0000
  C   C97       1.0  0.04517961238230561  0.7648122784885589  0.740903541167909  1.0000
  C   C98       1.0  0.019846800167601108  0.794963016379422  0.7488151342399189  1.0000
  C   C99       1.0  0.0391912230029412  0.8300061597598928  0.7697540748933968  1.0000
  C   C100      1.0  0.08388802393169398  0.8349998484727401  0.7830363327545771  1.0000
  C   C101      1.0  0.10929968511591671  0.8048111720207827  0.7752314446341587  1.0000
  C   C102      1.0  0.09001663174127368  0.7698703563500437  0.7541654894312573  1.0000
  H   H65       1.0  0.9858266144045397  0.7920149973751799  0.7386561534644412  1.0000
  H   H66       1.0  0.019795738845767026  0.8537850750927566  0.7755069635746001  1.0000
  H   H67       1.0  0.14403049646665647  0.8086391033978274  0.7852937017404583  1.0000
  H   H68       1.0  0.10996211620299455  0.746771081969745  0.748179254538924  1.0000
  C   C103      1.0  0.8471642444941657  0.10058141442600901  0.6765099713050826  1.0000
  C   C104      1.0  0.830213379403789  0.04876971032846129  0.6879782488687306  1.0000
  C   C105      1.0  0.7991376624404862  0.034554830521315444  0.7101884873705727  1.0000
  C   C106      1.0  0.7854340021128611  0.07236423619788836  0.7210600680638651  1.0000
  C   C107      1.0  0.8032385384637188  0.12439481954769356  0.7097630489124446  1.0000
  C   C108      1.0  0.8338376241954303  0.13842660160047174  0.687535514007539  1.0000
  H   H69       1.0  0.8405000221753192  0.019410467673353526  0.6795065937067675  1.0000
  H   H70       1.0  0.7855298433924022  0.994495767027493  0.7188979433797171  1.0000
  H   H71       1.0  0.7929860378242924  0.15391624838676118  0.7181748370760599  1.0000
  H   H72       1.0  0.8471801477562618  0.1787093906312032  0.6790262389049073  1.0000
  C   C109      1.0  0.06401910120315579  0.3225964353027618  0.5506612267151161  1.0000
  C   C110      1.0  0.11584286379816859  0.35859456445175497  0.5408021485240989  1.0000
  C   C111      1.0  0.1338491301812282  0.34471341043820247  0.5188177437933658  1.0000
  C   C112      1.0  0.10016997043900491  0.29454449845426883  0.5065775183502969  1.0000
  C   C113      1.0  0.04845719666617034  0.25800675219052593  0.516585209312793  1.0000
  C   C114      1.0  0.030244108277717684  0.2720956224971684  0.5385730599384058  1.0000
  H   H73       1.0  0.14222033392346986  0.39763429095461217  0.5501262466569823  1.0000
  H   H74       1.0  0.1740141256537271  0.3728602378684355  0.511407898502822  1.0000
  H   H75       1.0  0.022302146686423715  0.2191154313229851  0.507134021425215  1.0000
  H   H76       1.0  0.9901276153101207  0.24416267009396697  0.5460238283639993  1.0000
  C   C115      1.0  0.8654771987720071  0.4080343961047649  0.6583837730260531  1.0000
  C   C116      1.0  0.865624025611443  0.4426547772759119  0.6777416722257125  1.0000
  C   C117      1.0  0.8511137349865759  0.48384122222286735  0.6731426614339419  1.0000
  C   C118      1.0  0.8360150597937884  0.49030399455695034  0.6491494345043879  1.0000
  C   C119      1.0  0.8348764350055631  0.45499526570277055  0.6298923273696104  1.0000
  C   C120      1.0  0.849820668382731  0.41410963327028494  0.6344484089729274  1.0000
  H   H77       1.0  0.8770267028723637  0.43753073096797873  0.6963581496041107  1.0000
  H   H78       1.0  0.8512018610032303  0.5102355462936293  0.6881598802525262  1.0000
  H   H79       1.0  0.8229259799463352  0.45967716103097056  0.6113222863604457  1.0000
  H   H80       1.0  0.8492067654077811  0.3873539716162568  0.6194666760917599  1.0000
  C   C121      1.0  0.7488299660732753  0.02932521049233361  0.40809112126984415  1.0000
  C   C122      1.0  0.7089692921860805  0.9986596108845506  0.42600609108410875  1.0000
  C   C123      1.0  0.7225663254182855  0.9801199969188819  0.4476319487357215  1.0000
  C   C124      1.0  0.7760556156448908  0.9918449731332354  0.451530150895837  1.0000
  C   C125      1.0  0.8163154646894679  0.0234366058961053  0.4337681750945598  1.0000
  C   C126      1.0  0.8027631275043178  0.0423243681122234  0.4120783104621029  1.0000
  H   H81       1.0  0.667326080856884  0.989067030483854  0.4230745195824019  1.0000
  H   H82       1.0  0.6913765192589854  0.9566073032220297  0.46112628605061273  1.0000
  H   H83       1.0  0.8578672199406764  0.03270563491370182  0.43663178311681194  1.0000
  H   H84       1.0  0.8336374796966338  0.0653408828645956  0.3981125633850893  1.0000
  C   C127      1.0  0.6589894889243583  0.007288892731881491  0.5644364916659435  1.0000
  C   C128      1.0  0.6369966647777614  0.04230648238479673  0.5603871751853162  1.0000
  C   C129      1.0  0.6711268063261026  0.10028570948580406  0.5591490638468846  1.0000
  C   C130      1.0  0.7271069558917056  0.12365049936777522  0.5630173756038757  1.0000
  C   C131      1.0  0.7492007151701173  0.08871707832099988  0.5672939933916955  1.0000
  C   C132      1.0  0.7152723748863518  0.030466872035636694  0.5674474029508809  1.0000
  H   H85       1.0  0.593493689980979  0.024516377760962937  0.5580694587917359  1.0000
  H   H86       1.0  0.6539008992211645  0.12712431462090912  0.55577433703595  1.0000
  H   H87       1.0  0.7924881427668317  0.10643484174644681  0.5700559089308075  1.0000
  H   H88       1.0  0.7324224580742482  0.0035332691725100673  0.5706694550975601  1.0000
  C   C133      1.0  0.7514579274490196  0.7623018714223656  0.5818816892357724  1.0000
  C   C134      1.0  0.7902514318385809  0.8182202531325471  0.5859514330650442  1.0000
  C   C135      1.0  0.8312411501666794  0.8320030836120157  0.6037788647338399  1.0000
  C   C136      1.0  0.8331110946311595  0.7900520364240218  0.6178179324314826  1.0000
  C   C137      1.0  0.7943506922548561  0.7342592643326858  0.6136674690215163  1.0000
  C   C138      1.0  0.7537835835087001  0.7204483063267304  0.5957123102342281  1.0000
  H   H89       1.0  0.7890103215513743  0.85070415669452  0.5752082226688343  1.0000
  H   H90       1.0  0.8614407265760007  0.8752372423853915  0.6067407535241259  1.0000
  H   H91       1.0  0.7959129083630261  0.7015540247772853  0.6240341439939677  1.0000
  H   H92       1.0  0.7241565611733254  0.6770938498744895  0.5925341689904144  1.0000
  C   C139      1.0  0.4919474087795518  0.6910311384182204  0.4766320768267531  1.0000
  C   C140      1.0  0.467715536765978  0.6856889132391013  0.500095366996362  1.0000
  C   C141      1.0  0.41704777764931694  0.6386017256919891  0.5054821053957288  1.0000
  C   C142      1.0  0.3907357415989327  0.5965788537575295  0.48752489815702554  1.0000
  C   C143      1.0  0.4152640160330036  0.6019113830664511  0.4641493024523141  1.0000
  C   C144      1.0  0.4655908819380113  0.6491743170102042  0.4586824741367683  1.0000
  H   H93       1.0  0.4875065386830647  0.7181797764607463  0.5139192515452741  1.0000
  H   H94       1.0  0.3980270915972965  0.6347443791526237  0.5235584648541608  1.0000
  H   H95       1.0  0.3954728116930844  0.5696326549257902  0.4502775986653597  1.0000
  H   H96       1.0  0.4841948329126046  0.6530799557455488  0.4405112883720064  1.0000
  N   N1        1.0  0.26162716060491154  0.943949627686546  0.9875222886166575  1.0000
  C   C145      1.0  0.22035625111014664  0.9590926155976692  0.9956539859386142  1.0000
  C   C146      1.0  0.26060024524243003  0.9016408920787224  0.0047453654848057525  1.0000
  C   C147      1.0  0.31616958664789996  0.9942882937554675  0.9878661891528002  1.0000
  C   C148      1.0  0.249332707186486  0.9208361843911501  0.9619134381327233  1.0000
  H   H97       1.0  0.22042231741728022  0.9914369528453574  0.983261280998818  1.0000
  H   H98       1.0  0.2284563609133467  0.9765887338860764  0.014919269175413863  1.0000
  H   H99       1.0  0.17859753195325623  0.9222339989633123  0.9955080646533686  1.0000
  H   H100      1.0  0.22038279241081  0.8626592863669317  0.004616051250343034  1.0000
  H   H101      1.0  0.29231377259560093  0.8903077534715275  0.9997200392074934  1.0000
  H   H102      1.0  0.2685182062724762  0.9172469523197859  0.024307249087782923  1.0000
  H   H103      1.0  0.3266299024469674  0.013033949269077416  0.00686890385643224  1.0000
  H   H104      1.0  0.31840004215281714  0.02711691293600027  0.9750589715424227  1.0000
  H   H105      1.0  0.34849854986179707  0.9845165736032101  0.9820090947886789  1.0000
  H   H106      1.0  0.27939198350164596  0.9085126974714313  0.9552240480305297  1.0000
  H   H107      1.0  0.25013676893593023  0.9517446525931167  0.948364982910417  1.0000
  H   H108      1.0  0.20826120866565856  0.8829904101571896  0.9608230225571108  1.0000
  N   N2        1.0  0.3773584734926947  0.596443325165109  0.19078559112850285  1.0000
  C   C149      1.0  0.37147752827112235  0.5529625326238837  0.20863581843626602  1.0000
  C   C150      1.0  0.3789588172011954  0.5777324903214714  0.16501631385674478  1.0000
  C   C151      1.0  0.42831355533343457  0.6488782232161179  0.19582493869482423  1.0000
  C   C152      1.0  0.33055383024827284  0.6062072916217407  0.19362448606037203  1.0000
  H   H109      1.0  0.4054468550451544  0.5435197852925568  0.20679869750149169  1.0000
  H   H110      1.0  0.3329697415792494  0.5131722431549604  0.2055626848472648  1.0000
  H   H111      1.0  0.37033976938716556  0.565528754066721  0.22831763294068844  1.0000
  H   H112      1.0  0.3807035938562609  0.6082505851554275  0.15094484003601769  1.0000
  H   H113      1.0  0.41460918720774664  0.5714598376937751  0.1618657171934716  1.0000
  H   H114      1.0  0.34183114140171283  0.5374108974751435  0.16082887745440852  1.0000
  H   H115      1.0  0.4338811860995415  0.6823731594469097  0.18256120778555454  1.0000
  H   H116      1.0  0.46450468448386867  0.6429938383328535  0.193963086884645  1.0000
  H   H117      1.0  0.4282507971625408  0.6643734444836275  0.2150616501284609  1.0000
  H   H118      1.0  0.3331872204502278  0.6383992053998435  0.1802853753272504  1.0000
  H   H119      1.0  0.32767886462721113  0.6202067212919044  0.21282363138917573  1.0000
  H   H120      1.0  0.29155616330034423  0.5675123025388324  0.1898352483916413  1.0000
  N   N3        1.0  0.20121965524630916  0.22585734467326443  0.0104595678843864  1.0000
  C   C153      1.0  0.2414744833376235  0.26243887077977796  0.9915966611783584  1.0000
  C   C154      1.0  0.18737227394816655  0.2598519433472427  0.027310820434156113  1.0000
  C   C155      1.0  0.22479928021837312  0.1978808077249107  0.025157684388807278  1.0000
  C   C156      1.0  0.151687240436936  0.1832391950939677  0.9978257882105346  1.0000
  H   H121      1.0  0.27900851426081297  0.29567484022945734  0.0006404984451742202  1.0000
  H   H122      1.0  0.22491534637784782  0.28358161034195495  0.9797677869221392  1.0000
  H   H123      1.0  0.2540874615193491  0.23831677922788744  0.9790236345116635  1.0000
  H   H124      1.0  0.1581476974708113  0.2339003048489289  0.04221364741798794  1.0000
  H   H125      1.0  0.22431646765721486  0.29273897271124993  0.036856716299536796  1.0000
  H   H126      1.0  0.16901389639980338  0.2813163784580481  0.01694352365275953  1.0000
  H   H127      1.0  0.19642550646927345  0.1709670503684914  0.04008314797552637  1.0000
  H   H128      1.0  0.2629108437693443  0.229046098970466  0.03431471285490462  1.0000
  H   H129      1.0  0.23513248001422618  0.1711935197674484  0.013158531237457138  1.0000
  H   H130      1.0  0.12064022401721931  0.1547729050449005  0.011564557736092773  1.0000
  H   H131      1.0  0.1612521651082174  0.15696095375515184  0.9850878082504747  1.0000
  H   H132      1.0  0.1327896493977559  0.20275782118641056  0.9864293017740087  1.0000
  N   N4        1.0  0.5982452005333575  0.571024370627463  0.9435663795842937  1.0000
  C   C157      1.0  0.5749186856056964  0.6051029710802879  0.9342137575259679  1.0000
  C   C158      1.0  0.6251215366404105  0.5583717271710095  0.9226888404458812  1.0000
  C   C159      1.0  0.5543472156663604  0.5183902914372918  0.9542572476298695  1.0000
  C   C160      1.0  0.6387316981379837  0.6024383041109748  0.9630662823073307  1.0000
  H   H133      1.0  0.6071248541036253  0.6449662438148916  0.9258866779978824  1.0000
  H   H134      1.0  0.5547728123696252  0.6159800694310248  0.9494889302474524  1.0000
  H   H135      1.0  0.5440978814275419  0.5825677331865688  0.9195069200887787  1.0000
  H   H136      1.0  0.6435246749942486  0.5329946591714277  0.9290420789989865  1.0000
  H   H137      1.0  0.595785646020769  0.5343897202043515  0.9076679212118476  1.0000
  H   H138      1.0  0.6583389505628606  0.5973311526636594  0.9141623804640103  1.0000
  H   H139      1.0  0.524031570969795  0.49237170633398814  0.9399118409634075  1.0000
  H   H140      1.0  0.5322176468865757  0.5262857853416676  0.9696443537897719  1.0000
  H   H141      1.0  0.5708128330813591  0.49259766164592894  0.9622331839899912  1.0000
  H   H142      1.0  0.6720482490365812  0.6427325782054139  0.9557496347847251  1.0000
  H   H143      1.0  0.6580062480820292  0.5784805342623749  0.9701771358395629  1.0000
  H   H144      1.0  0.6198422399729371  0.6119124937540444  0.979333072804771  1.0000
  N   N5        1.0  0.9901960347640171  0.8472603488511867  0.8652876637217883  1.0000
  C   C161      1.0  0.04222565451929805  0.8476162296395687  0.868901752499511  1.0000
  C   C162      1.0  0.9444679153388333  0.7907835556523447  0.8703861303028395  1.0000
  C   C163      1.0  0.9871294848366792  0.8631394674373963  0.8392806866541501  1.0000
  C   C164      1.0  0.9870267787627617  0.8874564787240133  0.8826719481800285  1.0000
  H   H145      1.0  0.0775135924589121  0.8895299542782333  0.8648487356182556  1.0000
  H   H146      1.0  0.04607111289974375  0.8175598010797588  0.8561950094537031  1.0000
  H   H147      1.0  0.046368705487742634  0.8361539289344249  0.8883569809126788  1.0000
  H   H148      1.0  0.9043130932154843  0.7887561191207423  0.8682390925888217  1.0000
  H   H149      1.0  0.9456249786647474  0.759213183722883  0.8577872723077569  1.0000
  H   H150      1.0  0.946456859206747  0.7775968500134133  0.8897304267596341  1.0000
  H   H151      1.0  0.9485294652987305  0.863684542897735  0.8358603372595614  1.0000
  H   H152      1.0  0.9897492725875743  0.8337640068207701  0.8257230848122048  1.0000
  H   H153      1.0  0.02167220293922867  0.9053742836917845  0.8347281195344993  1.0000
  H   H154      1.0  0.948184242523052  0.8882198721894807  0.8804592372061161  1.0000
  H   H155      1.0  0.021186680609647457  0.9305729431299178  0.8794020283726123  1.0000
  H   H156      1.0  0.9891441261373127  0.8764674004063904  0.9024724588595239  1.0000
  N   N6        1.0  0.8273746114632188  0.2366400627851528  0.25080576395069404  1.0000
  C   C165      1.0  0.8505133592429187  0.286669859891495  0.2669455769764306  1.0000
  C   C166      1.0  0.770437623021578  0.19826771215805566  0.25852534313704906  1.0000
  C   C167      1.0  0.859898827032173  0.20812332107367146  0.25315880923289036  1.0000
  C   C168      1.0  0.8287014519432939  0.2537022202829709  0.2245795525507803  1.0000
  H   H157      1.0  0.8253395246758026  0.30761561021733363  0.266680337703197  1.0000
  H   H158      1.0  0.8923949194711973  0.31784356067008257  0.260941361738803  1.0000
  H   H159      1.0  0.8523989413456844  0.2757388670319908  0.28675303818080505  1.0000
  H   H160      1.0  0.7511876141122306  0.16024159034309485  0.24665067890919617  1.0000
  H   H161      1.0  0.7680916982507763  0.18447532673387118  0.2782020849359955  1.0000
  H   H162      1.0  0.7449842611254247  0.21887785084181594  0.25759433664119236  1.0000
  H   H163      1.0  0.8424282024747566  0.1689939487499537  0.24201166660135714  1.0000
  H   H164      1.0  0.8618988595052519  0.1968793736002782  0.27293298872884386  1.0000
  H   H165      1.0  0.9025625221438937  0.23514503477336363  0.24653616734239203  1.0000
  H   H166      1.0  0.8115254613935534  0.21702526373530603  0.21183424530412678  1.0000
  H   H167      1.0  0.8712281270145479  0.2827268366045909  0.21821656658786295  1.0000
  H   H168      1.0  0.8047236162885062  0.2755804336676519  0.22223298058033253  1.0000
  N   N7        1.0  0.7972295025600427  0.8482417861848446  0.690668077126802  1.0000
  C   C169      1.0  0.7654753139708245  0.859054046025488  0.7097713484338135  1.0000
  C   C170      1.0  0.7911942363217184  0.8691894643070435  0.6662435083843272  1.0000
  C   C171      1.0  0.7768020855305408  0.78756348547016  0.6890150308077767  1.0000
  C   C172      1.0  0.8552866997976329  0.8770187190328756  0.6977448422765944  1.0000
  H   H169      1.0  0.7686432233535363  0.8431438863456863  0.7283822597488556  1.0000
  H   H170      1.0  0.7214071129972726  0.8380599757224102  0.7050488053554272  1.0000
  H   H171      1.0  0.7798848411969181  0.9043905388561672  0.7117644410649265  1.0000
  H   H172      1.0  0.8160611042711668  0.863131197586923  0.6516274832339607  1.0000
  H   H173      1.0  0.7481041091146958  0.8467275146000057  0.659948561529928  1.0000
  H   H174      1.0  0.8047105021671686  0.9145417267478384  0.6669879607274858  1.0000
  H   H175      1.0  0.7323947542066995  0.764143287681705  0.685079482426134  1.0000
  H   H176      1.0  0.7838841932395948  0.7711701867830709  0.7066695768410153  1.0000
  H   H177      1.0  0.7974319881831848  0.777222237541097  0.6738637242027794  1.0000
  H   H178      1.0  0.8803861052916373  0.8692917982964226  0.6838056547060526  1.0000
  H   H179      1.0  0.8610936453849399  0.8620879954066745  0.7161383097056888  1.0000
  H   H180      1.0  0.872104070850322  0.9229477243886303  0.6990821746452528  1.0000
  N   N8        1.0  0.9020616336519917  0.659428194458995  0.7927974986429929  1.0000
  C   C173      1.0  0.9084638910652385  0.6578274631125075  0.820104392472864  1.0000
  C   C174      1.0  0.9011952189894519  0.7109842841386261  0.7860540559626201  1.0000
  C   C175      1.0  0.8504026722857072  0.6103798962800246  0.785087889595114  1.0000
  C   C176      1.0  0.9482226830765871  0.658617405862611  0.7798663051469574  1.0000
  H   H181      1.0  0.9082631858476115  0.6189414283370883  0.8259262330511945  1.0000
  H   H182      1.0  0.8748669738781083  0.6593674248192267  0.8305351262213927  1.0000
  H   H183      1.0  0.9476766841616018  0.6935182358367444  0.8264499337554335  1.0000
  H   H184      1.0  0.8979584088185706  0.7141049055956525  0.765466751647543  1.0000
  H   H185      1.0  0.8655587578431485  0.7120661047708623  0.794596241524823  1.0000
  H   H186      1.0  0.9388687663598013  0.7488728641443516  0.7921281986759073  1.0000
  H   H187      1.0  0.814587179045059  0.6103199905627532  0.7940855066886923  1.0000
  H   H188      1.0  0.8491818534719484  0.5705593652955454  0.7899812363791917  1.0000
  H   H189      1.0  0.8444347352234681  0.610254531780992  0.7645695858153837  1.0000
  H   H190      1.0  0.9502247713256633  0.6202881693305009  0.7844045493473514  1.0000
  H   H191      1.0  0.9878871191874092  0.6952313854930252  0.7851847833633351  1.0000
  H   H192      1.0  0.9448418222216587  0.6600556863026223  0.7592037935819352  1.0000
  N   N9        1.0  0.4091684015949539  0.08845428207084616  0.1409164949345685  1.0000
  C   C177      1.0  0.40847599616788344  0.08845606944517133  0.16850203619151335  1.0000
  C   C178      1.0  0.46617721188895106  0.1172536902291137  0.13185516223671043  1.0000
  C   C179      1.0  0.3806999740552513  0.11758849134390865  0.13156206065429685  1.0000
  C   C180      1.0  0.38104515565422464  0.030282976348621902  0.13176949819755707  1.0000
  H   H193      1.0  0.42802657788530823  0.13156802193463474  0.17622171497324407  1.0000
  H   H194      1.0  0.4299518157740255  0.06718974438486533  0.17624110823172276  1.0000
  H   H195      1.0  0.36618891671488923  0.06579434188572403  0.17586200982962993  1.0000
  H   H196      1.0  0.46825795020191263  0.1177119155192684  0.11112788324642747  1.0000
  H   H197      1.0  0.4882642400416879  0.16153356633048926  0.13811410120725964  1.0000
  H   H198      1.0  0.4887789859384761  0.09631670805693975  0.13856164539116664  1.0000
  H   H199      1.0  0.3811362268867374  0.11877359494390922  0.11077060293637295  1.0000
  H   H200      1.0  0.4003480260379705  0.1615537248181991  0.13818984805082402  1.0000
  H   H201      1.0  0.33720692782629763  0.09616072118833757  0.13772002641824077  1.0000
  H   H202      1.0  0.38156841206723724  0.028565474180731198  0.11102972912771705  1.0000
  H   H203      1.0  0.33754684876505464  0.008053395673152552  0.13785655056967294  1.0000
  H   H204      1.0  0.40028535682641897  0.006217652687507735  0.13881814976286674  1.0000
  N   N10       1.0  0.2574385859201961  0.21008567447038562  0.19367923001688397  1.0000
  C   C181      1.0  0.252217165364546  0.2601075584545837  0.19868935857513362  1.0000
  C   C182      1.0  0.3147263027337263  0.22416002370191368  0.19683919499099306  1.0000
  C   C183      1.0  0.24054991804128475  0.1910099529629936  0.16782793283296202  1.0000
  C   C184      1.0  0.22235747532834715  0.1652824676310303  0.21133523260545226  1.0000
  H   H205      1.0  0.27743670634024065  0.29453427735825705  0.18542956039602038  1.0000
  H   H206      1.0  0.2654006468653818  0.2762559346596608  0.21794571529495976  1.0000
  H   H207      1.0  0.2093536742624872  0.2507899726347837  0.19655959117682964  1.0000
  H   H208      1.0  0.32849023341393624  0.2383796325134536  0.2161621182520481  1.0000
  H   H209      1.0  0.32055848165388706  0.18765579318428757  0.19313464498010155  1.0000
  H   H210      1.0  0.34257889748473525  0.25861960267082795  0.18415737622910494  1.0000
  H   H211      1.0  0.2446849946094719  0.15392283671383802  0.163138978714476  1.0000
  H   H212      1.0  0.26571447363456113  0.22445768659464818  0.15418655117787336  1.0000
  H   H213      1.0  0.19726091682763816  0.1794595431305476  0.16478501389975575  1.0000
  H   H214      1.0  0.2251747468178215  0.12681286406477463  0.20812453685086485  1.0000
  H   H215      1.0  0.17881077105072152  0.15377538784769965  0.2093942035371017  1.0000
  H   H216      1.0  0.2341570076006315  0.17840939724413896  0.23104639761122522  1.0000
  N   N11       1.0  0.4506435862379489  0.038125878164386465  0.8228612448632416  1.0000
  C   C185      1.0  0.4208826313973208  0.9978434432361206  0.8430202449425459  1.0000
  C   C186      1.0  0.4139116952111993  0.05489112339599715  0.8108999666162808  1.0000
  C   C187      1.0  0.4695718394466894  0.011670792713434743  0.8041258105958039  1.0000
  C   C188      1.0  0.4978608362970545  0.08778066750025922  0.8335253401561484  1.0000
  H   H217      1.0  0.4471164250297987  0.9839762741100194  0.8524408048410659  1.0000
  H   H218      1.0  0.38476605143001863  0.9601260568504247  0.8355817573499633  1.0000
  H   H219      1.0  0.40607279900832055  0.01618497590031409  0.8575960388326701  1.0000
  H   H220      1.0  0.4353284616535137  0.08667734849902393  0.7960935450664635  1.0000
  H   H221      1.0  0.37871378856408683  0.018490772958081214  0.8020445960961009  1.0000
  H   H222      1.0  0.3969473109339549  0.07275079501867922  0.824788904261413  1.0000
  H   H223      1.0  0.4931282627558345  0.041020804025395534  0.7887872867176002  1.0000
  H   H224      1.0  0.4345778107185247  0.9745183858420309  0.7955069395968598  1.0000
  H   H225      1.0  0.4960414913982672  0.9968567543993311  0.8126770399229559  1.0000
  H   H226      1.0  0.5213553994322251  0.11925208632343985  0.8188554286445839  1.0000
  H   H227      1.0  0.5262186023328669  0.07638225384944049  0.8427609528541645  1.0000
  H   H228      1.0  0.4845543864334096  0.10831606512431308  0.8478002280783112  1.0000
  N   N12       1.0  0.8566567201342999  0.6472870158452222  0.05223759352115053  1.0000
  C   C189      1.0  0.8083205248734578  0.6058017869611604  0.0662991017664714  1.0000
  C   C190      1.0  0.8743137921458373  0.6180123040160398  0.03442171804791205  1.0000
  C   C191      1.0  0.9013630130379358  0.6807075680820059  0.06970922814261178  1.0000
  C   C192      1.0  0.8425806526675778  0.6847124667249062  0.03843538390826695  1.0000
  H   H229      1.0  0.7933215911531587  0.6263747595279928  0.07966203339114848  1.0000
  H   H230      1.0  0.8174526585939111  0.5769686589474705  0.07704769690029145  1.0000
  H   H231      1.0  0.7740929080102398  0.5797181201479539  0.05347554021491228  1.0000
  H   H232      1.0  0.8416153994054099  0.5925414552662888  0.020887756301005256  1.0000
  H   H233      1.0  0.9104039507037152  0.6479417776661894  0.023337802351852677  1.0000
  H   H234      1.0  0.8853509900582249  0.5894495142870764  0.04414269789337011  1.0000
  H   H235      1.0  0.937634202206723  0.7134949752508953  0.059631400102603135  1.0000
  H   H236      1.0  0.9146495099362998  0.6544198595199096  0.07988421386648964  1.0000
  H   H237      1.0  0.889139842005525  0.7024692274382202  0.08376218175855779  1.0000
  H   H238      1.0  0.8773463335783177  0.7150189725451073  0.026782443947461543  1.0000
  H   H239      1.0  0.8311040225761884  0.7092048793977109  0.05125060007748905  1.0000
  H   H240      1.0  0.807811483821819  0.6608488566194318  0.025705064808863032  1.0000
  N   N13       1.0  0.25846614031600335  0.41322155336424926  0.3270664646550812  1.0000
  C   C193      1.0  0.24921365059971878  0.4146270622264494  0.3542278141716812  1.0000
  C   C194      1.0  0.23140153190716273  0.43947480218634666  0.3135876547212504  1.0000
  C   C195      1.0  0.23573533003907798  0.3547141718185602  0.3187279238327682  1.0000
  C   C196      1.0  0.31758961822930726  0.4440976865400272  0.32164295323020115  1.0000
  H   H241      1.0  0.2696842228850607  0.39589055021129155  0.36505244689782923  1.0000
  H   H242      1.0  0.20507035135011714  0.3916077818815592  0.3590764405896901  1.0000
  H   H243      1.0  0.2653004433157414  0.4581650203444763  0.36112530815749694  1.0000
  H   H244      1.0  0.23757543244389748  0.4390924152716051  0.29299296120499224  1.0000
  H   H245      1.0  0.18669541280393184  0.41729791904105423  0.3172899727903481  1.0000
  H   H246      1.0  0.2475436006033323  0.4836987683383465  0.31941255211071007  1.0000
  H   H247      1.0  0.2415478608854539  0.35235956092813814  0.2982252264311264  1.0000
  H   H248      1.0  0.1912782191422069  0.3300294933383384  0.3226464844984246  1.0000
  H   H249      1.0  0.2557843268586256  0.33377773388361576  0.32823260230051027  1.0000
  H   H250      1.0  0.3391603146719487  0.4249563846312008  0.33131046946455667  1.0000
  H   H251      1.0  0.33625554254692236  0.48825997603565274  0.32795271038951873  1.0000
  H   H252      1.0  0.3259911014157765  0.44442331133602  0.30124165071439774  1.0000
  N   N14       1.0  0.4247580948896087  0.23643093613511912  0.38278917331718615  1.0000
  C   C197      1.0  0.45980138595955355  0.28528673632723256  0.36700580615022027  1.0000
  C   C198      1.0  0.3939895824454599  0.2514866466542439  0.400760865440459  1.0000
  C   C199      1.0  0.4591268279842067  0.2189147346889049  0.39642955374883304  1.0000
  C   C200      1.0  0.38612387895788924  0.18995613714211035  0.3668918447685778  1.0000
  H   H253      1.0  0.4835611908771614  0.27536926170698817  0.3531899812123388  1.0000
  H   H254      1.0  0.489464050936341  0.3211788956057267  0.3783655013965899  1.0000
  H   H255      1.0  0.4353264975043776  0.29942132978085473  0.3562802548781378  1.0000
  H   H256      1.0  0.36653239953939315  0.2632303293267594  0.3909618140401619  1.0000
  H   H257      1.0  0.3680305891442635  0.21601006205956316  0.41336111386115676  1.0000
  H   H258      1.0  0.42164775406304306  0.2876653123618997  0.41256878742736597  1.0000
  H   H259      1.0  0.4340599787523456  0.18157649531855397  0.40823012575537354  1.0000
  H   H260      1.0  0.4886677423225591  0.2528267393914405  0.4087100620169326  1.0000
  H   H261      1.0  0.4831476006473749  0.20773964370578252  0.38325439053246435  1.0000
  H   H262      1.0  0.35779699662970565  0.15290455431259897  0.37815416933071183  1.0000
  H   H263      1.0  0.40790442638208274  0.17625170362687234  0.3537181709749942  1.0000
  H   H264      1.0  0.36096075352372664  0.20220680968320676  0.3555089568538756  1.0000
  N   N15       1.0  0.5537354539871577  0.6146153974502736  0.5338607710273497  1.0000
  C   C201      1.0  0.5026626310350548  0.569233469676603  0.5233943517832604  1.0000
  C   C202      1.0  0.5849903394338993  0.5907895931653168  0.545563822302817  1.0000
  C   C203      1.0  0.5406936791302036  0.6454704292571409  0.552871185323896  1.0000
  C   C204      1.0  0.5867080901427841  0.6531479688488706  0.5136241793128585  1.0000
  H   H265      1.0  0.4786233112277529  0.585985554489172  0.5140759959521326  1.0000
  H   H266      1.0  0.4761195470001379  0.5398764158166782  0.5381713235674361  1.0000
  H   H267      1.0  0.5108522452409984  0.5446519451272293  0.5091611653158271  1.0000
  H   H268      1.0  0.6236938438881985  0.6241572012784448  0.5537221158278581  1.0000
  H   H269      1.0  0.5614226986947208  0.5615382548381465  0.5609523110588691  1.0000
  H   H270      1.0  0.5960885998150685  0.5676613549178291  0.531754917472732  1.0000
  H   H271      1.0  0.5784385166284609  0.6798510328403219  0.5612346564503298  1.0000
  H   H272      1.0  0.5156590517463095  0.6177104914866876  0.5683973441206911  1.0000
  H   H273      1.0  0.5174908960781196  0.664449657594533  0.5446761271614512  1.0000
  H   H274      1.0  0.6258914805027417  0.6874727245772789  0.5207490878130974  1.0000
  H   H275      1.0  0.5649857344783826  0.6729469739006883  0.5048073467894354  1.0000
  H   H276      1.0  0.5965497008840266  0.631230410980255  0.498701698076515  1.0000
  N   N16       1.0  0.7725711941390844  0.13176564059307982  0.48701482950759045  1.0000
  C   C205      1.0  0.7366911548479395  0.07303519719979558  0.49453158220087273  1.0000
  C   C206      1.0  0.7883922829010741  0.1341758699649247  0.46044814366740466  1.0000
  C   C207      1.0  0.8220153837479468  0.15643313075699994  0.5025590603508859  1.0000
  C   C208      1.0  0.743262424201089  0.16342705927852597  0.4905593642519177  1.0000
  H   H277      1.0  0.6999629286788888  0.05218376188321537  0.4825652992786105  1.0000
  H   H278      1.0  0.7222906076191845  0.06990752493843688  0.5141771059987043  1.0000
  H   H279      1.0  0.7582661161844015  0.048440804281207034  0.49325532882353856  1.0000
  H   H280      1.0  0.8146326811181627  0.17799153064450143  0.45398214150941657  1.0000
  H   H281      1.0  0.8116386809440508  0.11176500608096739  0.4572539681586988  1.0000
  H   H282      1.0  0.7521277104917095  0.11464179078739153  0.44810904144957736  1.0000
  H   H283      1.0  0.8498586953970055  0.20087925868376902  0.4975995502549716  1.0000
  H   H284      1.0  0.8450150348120385  0.13339575200149356  0.5002763365628813  1.0000
  H   H285      1.0  0.8115863455308951  0.15502471097666332  0.5227229146786755  1.0000
  H   H286      1.0  0.769220575067365  0.20805777935630068  0.48529371575927477  1.0000
  H   H287      1.0  0.7306353413122405  0.1624297046776227  0.5104051075667045  1.0000
  H   H288      1.0  0.7057833831674739  0.14584495217166785  0.47904577648369334  1.0000
  N   N17       1.0  0.6814910336840909  0.0358920605091175  0.6462113841130844  1.0000
  C   C209      1.0  0.6820650826143753  0.0465074179946959  0.6733310171798741  1.0000
  C   C210      1.0  0.7357845838359577  0.045949951039596454  0.6381181739947318  1.0000
  C   C211      1.0  0.6679162508345389  0.07388989282995846  0.6325424285681074  1.0000
  C   C212      1.0  0.6404318650309697  0.9773716112014269  0.6407768434472906  1.0000
  H   H289      1.0  0.7122204008773521  0.09054785824532764  0.6779656358496174  1.0000
  H   H290      1.0  0.6933068778065657  0.019421236838443212  0.684278277539661  1.0000
  H   H291      1.0  0.6415853150046102  0.038632005612791544  0.6802641257291765  1.0000
  H   H292      1.0  0.7367033094583575  0.03715767078893034  0.6179185153641978  1.0000
  H   H293      1.0  0.7674703926486767  0.09009438581225712  0.6412641509030196  1.0000
  H   H294      1.0  0.7482327361324339  0.01921639808681541  0.648501102437773  1.0000
  H   H295      1.0  0.6674379393113542  0.06711958225046114  0.6120425449862289  1.0000
  H   H296      1.0  0.6982373602788895  0.11846370053541826  0.6361023144472651  1.0000
  H   H297      1.0  0.6271000996493812  0.06743698822117086  0.638072020164229  1.0000
  H   H298      1.0  0.6391207432279712  0.9680610130240092  0.6204258583924588  1.0000
  H   H299      1.0  0.5988179657467083  0.9682366076421777  0.6464990250897154  1.0000
  H   H300      1.0  0.6494995108666188  0.9475700598064564  0.6507628998484173  1.0000
  N   N18       1.0  0.652017399105683  0.876405617302766  0.8907002592479468  1.0000
  C   C213      1.0  0.6183870934556784  0.8967786953433539  0.9034038148457013  1.0000
  C   C214      1.0  0.6896378562087633  0.9191741274840242  0.8728909666818133  1.0000
  C   C215      1.0  0.6161359294239473  0.8243005283141176  0.8771017062616175  1.0000
  C   C216      1.0  0.6839505853912857  0.8654998574810125  0.9093220309872717  1.0000
  H   H301      1.0  0.6440927235583067  0.9365977989245524  0.913483111632576  1.0000
  H   H302      1.0  0.5897044203797819  0.8657610651533686  0.9171167285480673  1.0000
  H   H303      1.0  0.5934936818872089  0.9048353099286923  0.8897244261331526  1.0000
  H   H304      1.0  0.7137929163981583  0.9042831248234469  0.8620266556723415  1.0000
  H   H305      1.0  0.6671069446433948  0.9301765269592935  0.8592327876563705  1.0000
  H   H306      1.0  0.7189476679397682  0.9583609001455135  0.8824939585833455  1.0000
  H   H307      1.0  0.6399870262163219  0.8079751454700836  0.8670586077890728  1.0000
  H   H308      1.0  0.5915966936740932  0.8310655931472104  0.8628206215113081  1.0000
  H   H309      1.0  0.5871914469829829  0.7910354035079513  0.8899186865411918  1.0000
  H   H310      1.0  0.7112284346038248  0.8521957427014327  0.9001289154930984  1.0000
  H   H311      1.0  0.6571357675571696  0.8318615306580809  0.9225461350356752  1.0000
  H   H312      1.0  0.7103724727934092  0.9035531293039629  0.9203869537324608  1.0000
  N   N19       1.0  0.015865763980722924  0.40711366362812157  0.49403936707020357  1.0000
  C   C217      1.0  0.9713188574751936  0.38146437655659116  0.4756998528791469  1.0000
  C   C218      1.0  0.061686396268011645  0.3991247743873821  0.485758719295785  1.0000
  C   C219      1.0  0.9959415807399923  0.380576872432081  0.5187046342612053  1.0000
  C   C220      1.0  0.034770345797871194  0.4674989815770387  0.49599113510694726  1.0000
  H   H313      1.0  0.9358513276677679  0.38635418219477946  0.4813668956027  1.0000
  H   H314      1.0  0.9564808286275396  0.3359877627061891  0.4734772838228638  1.0000
  H   H315      1.0  0.9848779576345918  0.40074820109723075  0.4568793018097719  1.0000
  H   H316      1.0  0.07803874101170494  0.4190503956943386  0.46729864794856596  1.0000
  H   H317      1.0  0.09597937609606655  0.4177776839550631  0.49921382552006077  1.0000
  H   H318      1.0  0.04916445634221156  0.35407609029692727  0.48394780829425843  1.0000
  H   H319      1.0  0.028503090741986092  0.39934034713282834  0.533027685986844  1.0000
  H   H320      1.0  0.9821759163146692  0.33513669339239033  0.5180267796322325  1.0000
  H   H321      1.0  0.9610937667746053  0.3853431023055737  0.5255737785973758  1.0000
  H   H322      1.0  0.06858557048913072  0.48810947803987  0.5096214420476334  1.0000
  H   H323      1.0  0.0013253244977164957  0.4752272993390886  0.5022636315790389  1.0000
  H   H324      1.0  0.0502043680211377  0.4888151992437081  0.47767815718498596  1.0000
  N   N20       1.0  0.054748255074904995  0.22955181916201067  0.37383606155956  1.0000
  C   C221      1.0  0.04805300518195588  0.27372646197006606  0.3615109255155891  1.0000
  C   C222      1.0  0.04495077270074388  0.2302519510552589  0.4009793331501436  1.0000
  C   C223      1.0  0.11067354847412125  0.2395989617719869  0.36937754947396034  1.0000
  C   C224      1.0  0.015303507275557848  0.17456213798528816  0.3634343362062029  1.0000
  H   H325      1.0  0.006368537537480012  0.2676959900398286  0.3646502047972231  1.0000
  H   H326      1.0  0.054148088079314816  0.27387741297487606  0.3409351755752352  1.0000
  H   H327      1.0  0.07748033669280963  0.3158561044307215  0.3687227151130627  1.0000
  H   H328      1.0  0.04816561417992693  0.19657806543205497  0.4109047928748169  1.0000
  H   H329      1.0  0.07513105244328933  0.2704894574662041  0.4095852398056023  1.0000
  H   H330      1.0  0.003671939153973236  0.22459905859615467  0.40495409628156825  1.0000
  H   H331      1.0  0.1415755805757648  0.28138249889586964  0.3763160881772458  1.0000
  H   H332      1.0  0.11871635044310969  0.23752384033350865  0.34911949606202713  1.0000
  H   H333      1.0  0.1176344297027907  0.2079996751150957  0.3790850532573619  1.0000
  H   H334      1.0  0.9726960463050199  0.16580649220961224  0.3661303819259438  1.0000
  H   H335      1.0  0.018845968298788485  0.14011999105014675  0.3723769072711244  1.0000
  H   H336      1.0  0.021459552757567613  0.1726037433738602  0.34295000033093276  1.0000
  N   N21       1.0  0.664061353143395  0.8284351095630548  0.41236775030323897  1.0000
  C   C225      1.0  0.7219613013809437  0.8695791267140635  0.4166131009934926  1.0000
  C   C226      1.0  0.6518931609397314  0.773988115345102  0.42296468572544965  1.0000
  C   C227      1.0  0.653203622889697  0.8225155613342242  0.385274562635609  1.0000
  C   C228      1.0  0.6291084231170903  0.847703923220348  0.42463921667532933  1.0000
  H   H337      1.0  0.732812912930441  0.9110035147447387  0.4085392967050373  1.0000
  H   H338      1.0  0.7495711288952874  0.8560555173123143  0.40796626497101335  1.0000
  H   H339      1.0  0.7313569121473573  0.8758195539961857  0.43693395893964365  1.0000
  H   H340      1.0  0.6599207100011012  0.7773533213766477  0.44339097333942246  1.0000
  H   H341      1.0  0.6082069513352509  0.7421390813252455  0.4205759107157166  1.0000
  H   H342      1.0  0.6770946352423904  0.757764860499396  0.4140595285690786  1.0000
  H   H343      1.0  0.6787630702806059  0.807935159580443  0.3753622428798626  1.0000
  H   H344      1.0  0.6621726278841849  0.8631088593919268  0.376781357352277  1.0000
  H   H345      1.0  0.6097233184464467  0.7919864973876527  0.38148085861476644  1.0000
  H   H346      1.0  0.6375364530128074  0.8545912384483653  0.4449932008782527  1.0000
  H   H347      1.0  0.5850914995119234  0.8164760342271696  0.42278999962373204  1.0000
  H   H348      1.0  0.635424402536626  0.8874526479275978  0.4164212444402551  1.0000
  N   N22       1.0  0.015127337999925931  0.6004722309994476  0.6638891012913392  1.0000
  C   C229      1.0  0.975959641913037  0.5769298294714322  0.6431590007323772  1.0000
  C   C230      1.0  0.9851688940655903  0.5874057267275595  0.687913397589147  1.0000
  C   C231      1.0  0.048046306565352  0.6617059342784031  0.6609842057384128  1.0000
  C   C232      1.0  0.051246526667453336  0.5757489195644018  0.6635811336641466  1.0000
  H   H349      1.0  0.9968738195140326  0.5876265994108042  0.624669324133652  1.0000
  H   H350      1.0  0.9463891065520899  0.5927539326846774  0.6434162903077763  1.0000
  H   H351      1.0  0.9518369304128635  0.5305822481336683  0.6443107143837822  1.0000
  H   H352      1.0  0.013304890681547596  0.6066036879976416  0.7039153116482418  1.0000
  H   H353      1.0  0.9561024723918478  0.6037146599542462  0.688394243356716  1.0000
  H   H354      1.0  0.9614511819714293  0.5416323000629204  0.6912120082411862  1.0000
  H   H355      1.0  0.021887582945862693  0.6815274706189786  0.6612285033866037  1.0000
  H   H356      1.0  0.07146953106338132  0.6734041516730914  0.6431243922377998  1.0000
  H   H357      1.0  0.07750232686103356  0.6809810596610845  0.6765433851855708  1.0000
  H   H358      1.0  0.08115823897110584  0.5924482602774558  0.6790688119399837  1.0000
  H   H359      1.0  0.07451267313209713  0.584714633342372  0.6457087001700755  1.0000
  H   H360      1.0  0.027438938358032544  0.5294667041906183  0.6657465313705461  1.0000
  N   N23       1.0  0.0920317460424443  0.6114795159992413  0.10267443422624152  1.0000
  C   C233      1.0  0.03767775844117557  0.5850917054027002  0.09107845843137201  1.0000
  C   C234      1.0  0.13441564352904592  0.6345232655554435  0.08292298669623406  1.0000
  C   C235      1.0  0.09822301916791566  0.5695724450696521  0.11730814142623314  1.0000
  C   C236      1.0  0.09789966832339939  0.6569886290822359  0.11936679965936244  1.0000
  H   H361      1.0  0.03177717728850405  0.5504945096285544  0.07835820580032458  1.0000
  H   H362      1.0  0.03224060584631704  0.6159803859602784  0.07983311275620619  1.0000
  H   H363      1.0  0.004727067039313816  0.567691784115995  0.10546303367499563  1.0000
  H   H364      1.0  0.17602780479909283  0.6549748562606418  0.09101917201158055  1.0000
  H   H365      1.0  0.13133729082191978  0.601400741822615  0.06996942150815627  1.0000
  H   H366      1.0  0.13094713181574916  0.6664343291932718  0.07155248039561136  1.0000
  H   H367      1.0  0.13869216688497488  0.5885655219427167  0.12644408584762803  1.0000
  H   H368      1.0  0.0948415724720448  0.5348712445307237  0.10533037296392707  1.0000
  H   H369      1.0  0.06695370022398983  0.5512015333380662  0.13240860727117543  1.0000
  H   H370      1.0  0.13912721921940852  0.6792385857176012  0.12762079881567914  1.0000
  H   H371      1.0  0.06809653888532845  0.6411745723413446  0.13511337691742312  1.0000
  H   H372      1.0  0.09203342542343597  0.6886893365493494  0.10917669218357576  1.0000
  N   N24       1.0  0.04005945380692743  0.18117486766285976  0.6165327898205786  1.0000
  C   C237      1.0  0.028566434402252337  0.19192156506411664  0.6423528962657591  1.0000
  C   C238      1.0  0.9915237050012939  0.13187346980487077  0.6064325120250812  1.0000
  C   C239      1.0  0.08659036523113534  0.1706226694179006  0.6165215322967024  1.0000
  C   C240      1.0  0.053483792543642716  0.230312029681949  0.6008007682118922  1.0000
  H   H373      1.0  0.016758566255610008  0.1551774892073873  0.6546707286648827  1.0000
  H   H374      1.0  0.9941631068381059  0.2008081926964417  0.642970511529121  1.0000
  H   H375      1.0  0.06438423142919031  0.22850532124145184  0.6507160526651673  1.0000
  H   H376      1.0  0.9988113578135478  0.12206866231184504  0.5870668014818884  1.0000
  H   H377      1.0  0.9792373279377873  0.09420526943632507  0.618187491302746  1.0000
  H   H378      1.0  0.9558646279561476  0.1387681250804626  0.6058950273435342  1.0000
  H   H379      1.0  0.09635185760538222  0.16240798259783146  0.5972956236686272  1.0000
  H   H380      1.0  0.07775448661987559  0.1337576004156568  0.6282406591928671  1.0000
  H   H381      1.0  0.12391401458799804  0.2071147104939349  0.6239843307465041  1.0000
  H   H382      1.0  0.06273385220298007  0.22410177198960898  0.581168754470224  1.0000
  H   H383      1.0  0.08937135408437841  0.2687595825346947  0.6079479432880214  1.0000
  H   H384      1.0  0.019036090520360597  0.23908804224840383  0.600285806393482  1.0000
