data_image0
_chemical_formula_structural       FeS2FeS2FeSFeS3FeS2FeS2FeSFeS3FeS2FeS2FeSFeS3FeS2FeS2FeSFeS3FeS2FeS2FeSFeS3FeS2FeS2FeSFeS3C6H4C6H4C6H4C6H4C6H4C6H4C6H4C6H4C6H4C6H4C6H4C6H4FeS2FeS2FeSFeS3FeS2FeS2FeSFeS3FeS2FeS2FeSFeS3FeS2FeS2FeSFeS3FeS2FeS2FeSFeS3FeS2FeS2FeSFeS3C6H4C6H4C6H4C6H4C6H4C6H4C6H4C6H4C6H4C6H4C6H4C6H4FeS2FeS2FeSFeS3FeS2FeS2FeSFeS3FeS2FeS2FeSFeS3FeS2FeS2FeSFeS3FeS2FeS2FeSFeS3FeS2FeS2FeSFeS3C6H4C6H4C6H4C6H4C6H4C6H4C6H4C6H4C6H4C6H4C6H4C6H4FeS2FeS2FeSFeS3FeS2FeS2FeSFeS3FeS2FeS2FeSFeS3FeS2FeS2FeSFeS3FeS2FeS2FeSFeS3FeS2FeS2FeSFeS3C6H4C6H4C6H4C6H4C6H4C6H4C6H4C6H4C6H4C6H4C6H4C6H4NC4H12NC4H12NC4H12NC4H12NC4H12NC4H12NC4H12NC4H12NC4H12NC4H12NC4H12NC4H12NC4H12NC4H12NC4H12NC4H12NC4H12NC4H12NC4H12NC4H12NC4H12NC4H12NC4H12NC4H12NC4H12NC4H12NC4H12NC4H12NC4H12NC4H12NC4H12NC4H12NC4H12NC4H12NC4H12NC4H12NC4H12NC4H12NC4H12NC4H12NC4H12NC4H12NC4H12NC4H12NC4H12NC4H12NC4H12NC4H12
_chemical_formula_sum              "Fe96 S192 C480 H768 N48"
_cell_length_a       41.56734076487754
_cell_length_b       41.82180257094142
_cell_length_c       34.22181783099208
_cell_angle_alpha    90.03238173574223
_cell_angle_beta     89.89601354664555
_cell_angle_gamma    119.96652431730217

_space_group_name_H-M_alt    "P 1"
_space_group_IT_number       1

loop_
  _space_group_symop_operation_xyz
  'x, y, z'

loop_
  _atom_site_type_symbol
  _atom_site_label
  _atom_site_symmetry_multiplicity
  _atom_site_fract_x
  _atom_site_fract_y
  _atom_site_fract_z
  _atom_site_occupancy
  Fe  Fe1       1.0  0.43393895956961853  0.1087401449058989  0.2968216140680401  1.0000
  S   S1        1.0  0.4134737844384723  0.14909559103554426  0.2931528867437459  1.0000
  S   S2        1.0  0.47915204072492484  0.1105638285119534  0.2581378132428844  1.0000
  Fe  Fe2       1.0  0.39128763385158594  0.07383341130956657  0.37272682778364113  1.0000
  S   S3        1.0  0.3682046258914125  0.11208538039111185  0.3757276608375722  1.0000
  S   S4        1.0  0.371505169165392  0.024083797388040437  0.41246716241756604  1.0000
  Fe  Fe3       1.0  0.3583435852411132  0.10121247957590576  0.3115743861927758  1.0000
  S   S5        1.0  0.30401240651611194  0.09225727233499795  0.2880507638215351  1.0000
  Fe  Fe4       1.0  0.4250497164688777  0.1567616897372466  0.3574229738518463  1.0000
  S   S6        1.0  0.4547825434021015  0.212247543454596  0.38743190161858154  1.0000
  S   S7        1.0  0.3776241088420628  0.05986568151394995  0.30913981898753107  1.0000
  S   S8        1.0  0.44933006660419633  0.11936689338359124  0.3604486151940213  1.0000
  Fe  Fe5       1.0  0.11707852643713358  0.49801214383817966  0.318833777232775  1.0000
  S   S9        1.0  0.10322241700452024  0.011371362958146941  0.3343572934452796  1.0000
  S   S10       1.0  0.15802295853187687  0.9594893468941204  0.3599638938488734  1.0000
  Fe  Fe6       1.0  0.07687917248427675  0.4259042026510145  0.36382518036153555  1.0000
  S   S11       1.0  0.49773890735544224  0.4206012056882924  0.34633386850827963  1.0000
  S   S12       1.0  0.5246716204411462  0.35801014103961326  0.2853038738149082  1.0000
  Fe  Fe7       1.0  0.0321200078862331  0.45514252136804123  0.32326758363222974  1.0000
  S   S13       1.0  0.9780163521521168  0.43632160981846907  0.29130547255625394  1.0000
  Fe  Fe8       1.0  0.07848365055537893  0.4946023368794664  0.39570829645902617  1.0000
  S   S14       1.0  0.08583391068045312  0.5376725719253728  0.44072633461771626  1.0000
  S   S15       1.0  0.0738862080871439  0.4406735742596774  0.30157795309159374  1.0000
  S   S16       1.0  0.12395356174352452  0.48255513707196324  0.3795746723705803  1.0000
  Fe  Fe9       1.0  0.4172345820800804  0.3498359126404394  0.017421683384489572  1.0000
  S   S17       1.0  0.4668898020452859  0.4036124141373649  0.0010297902387708113  1.0000
  S   S18       1.0  0.4204219850453395  0.2986639477398723  0.03115360455510574  1.0000
  Fe  Fe10      1.0  0.36578837922932506  0.3819385793058183  0.015359872672551456  1.0000
  S   S19       1.0  0.41221889539807927  0.4387742487030559  0.00025626457347094345  1.0000
  S   S20       1.0  0.30943015855861805  0.37736905888900796  0.01769100828090675  1.0000
  Fe  Fe11      1.0  0.4295391581150224  0.409392234139289  0.9579461900384909  1.0000
  S   S21       1.0  0.4480124205696125  0.42760745569378944  0.8956842499213609  1.0000
  Fe  Fe12      1.0  0.44488165251959993  0.4276267290651722  0.045002228005425055  1.0000
  S   S22       1.0  0.4890531570582014  0.46959324426897114  0.08456029329113984  1.0000
  S   S23       1.0  0.3812228260264857  0.35300975609713475  0.970232952826316  1.0000
  S   S24       1.0  0.39704688102132174  0.37350472407650825  0.06412891709643687  1.0000
  Fe  Fe13      1.0  0.031042628883156145  0.17793647598980264  0.03958985904770728  1.0000
  S   S25       1.0  0.08165630627228779  0.23108517913683446  0.05624725358132416  1.0000
  S   S26       1.0  0.982799743670384  0.14206627597977767  0.08013561847307457  1.0000
  Fe  Fe14      1.0  0.0524694824677139  0.18798230609607838  0.9521910811434989  1.0000
  S   S27       1.0  0.10419824635817929  0.24247682681444596  0.9620989393799699  1.0000
  S   S28       1.0  0.03256778571443653  0.1639945152428239  0.8916467932692506  1.0000
  Fe  Fe15      1.0  0.11203994482558904  0.2143060660911175  0.013986250924629795  1.0000
  S   S29       1.0  0.16697456672811778  0.2175836208309589  0.025476595343717073  1.0000
  Fe  Fe16      1.0  0.06918922190020889  0.2544821797440787  0.0030408847924638938  1.0000
  S   S30       1.0  0.5727969988237374  0.2990741886557476  0.018664880097316594  1.0000
  S   S31       1.0  0.06223339898853128  0.15853436745085317  0.0015569239885990793  1.0000
  S   S32       1.0  0.5146078896684951  0.19398177176095113  0.9918000211604455  1.0000
  Fe  Fe17      1.0  0.35626499799067207  0.49999864357290025  0.6565886059367032  1.0000
  S   S33       1.0  0.3003100144201901  0.44969929469676034  0.6465337116854588  1.0000
  S   S34       1.0  0.39518463270709414  0.5437739229566946  0.6135664937424631  1.0000
  Fe  Fe18      1.0  0.3518596637348336  0.48849668807444946  0.745602674462739  1.0000
  S   S35       1.0  0.29529539585961734  0.43836894932995063  0.7426059281056375  1.0000
  S   S36       1.0  0.37998624152871024  0.5115138931090902  0.8036650984951492  1.0000
  Fe  Fe19      1.0  0.3182962222603146  0.4224685167298963  0.6915948985056376  1.0000
  S   S37       1.0  0.31387883377123843  0.366365634752695  0.6937010975134944  1.0000
  Fe  Fe20      1.0  0.28221486028147214  0.4701440989009593  0.6985402001069896  1.0000
  S   S38       1.0  0.23993917643896662  0.9622241085639414  0.7012070738969405  1.0000
  S   S39       1.0  0.37612606172026886  0.4712111017535856  0.6972564250024823  1.0000
  S   S40       1.0  0.34966975393982014  0.00901191189956862  0.6967133456286049  1.0000
  Fe  Fe21      1.0  0.12914222459464855  0.1098361811303367  0.7255878894977206  1.0000
  S   S41       1.0  0.18611420412752802  0.15420878993838444  0.7075829685656436  1.0000
  S   S42       1.0  0.11587645754052268  0.1014498127824353  0.7901068903603907  1.0000
  Fe  Fe22      1.0  0.10611342437237475  0.0837713283415874  0.6415684324678185  1.0000
  S   S43       1.0  0.16070678656349188  0.12675165762784302  0.6170806864022371  1.0000
  S   S44       1.0  0.06137977221927367  0.03820320042827024  0.6051263193010981  1.0000
  Fe  Fe23      1.0  0.18564791891585833  0.1116231209022548  0.6670201640424482  1.0000
  S   S45       1.0  0.23743559001479836  0.10824543583629802  0.6545144830772814  1.0000
  Fe  Fe24      1.0  0.15619600663170977  0.16516350986861833  0.6597709407444976  1.0000
  S   S46       1.0  0.16657184555869975  0.2217260460825478  0.6428699880125202  1.0000
  S   S47       1.0  0.13115897659386483  0.06612982485430845  0.6891024057024294  1.0000
  S   S48       1.0  0.09886023398828427  0.12331643570140159  0.6803140283393498  1.0000
  C   C1        1.0  0.27210009663836726  0.32674161369448923  0.6805528569131682  1.0000
  C   C2        1.0  0.26593943775998113  0.2920694128854823  0.6925887670784199  1.0000
  C   C3        1.0  0.23343623735449207  0.2597475089691346  0.681674522576319  1.0000
  C   C4        1.0  0.20739836662283534  0.2618095723337481  0.6576265499629247  1.0000
  C   C5        1.0  0.21336922097527092  0.2965006386372364  0.645868372753345  1.0000
  C   C6        1.0  0.24549694895249738  0.32895986724240917  0.6576054248043575  1.0000
  H   H1        1.0  0.28638631051865493  0.2903027386267053  0.7105779305546684  1.0000
  H   H2        1.0  0.2287518917142162  0.23332769139840065  0.6917560629536064  1.0000
  H   H3        1.0  0.19313969037535658  0.29834057750580495  0.6275656664206583  1.0000
  H   H4        1.0  0.25007614525149013  0.35563001718844983  0.6482033876764977  1.0000
  C   C7        1.0  0.23963602847711007  0.0029276637834898538  0.687973420001395  1.0000
  C   C8        1.0  0.26968656595390367  0.0317736800154263  0.6683345614431024  1.0000
  C   C9        1.0  0.2687162514149794  0.06391490744908218  0.6582250556893314  1.0000
  C   C10       1.0  0.2377093408818539  0.06742304245276509  0.667575620157417  1.0000
  C   C11       1.0  0.20766699169634656  0.03849980322582947  0.6870824763187303  1.0000
  C   C12       1.0  0.20861821060572971  0.00638326156421598  0.6971870465818601  1.0000
  H   H5        1.0  0.2936949634053753  0.029380362905114546  0.6609646140179044  1.0000
  H   H6        1.0  0.2921182610419226  0.08613418268789762  0.6432154634015446  1.0000
  H   H7        1.0  0.2798744951391098  0.6002527941654185  0.7296271709724816  1.0000
  H   H8        1.0  0.28385899962886557  0.5441768667386986  0.7160851239812549  1.0000
  C   C13       1.0  0.09631470974199621  0.12423141234945387  0.8155543669981318  1.0000
  C   C14       1.0  0.10834932547252668  0.13674426039424706  0.8537245161667224  1.0000
  C   C15       1.0  0.09022146806811568  0.1508672127627317  0.876696165745778  1.0000
  C   C16       1.0  0.059159800016063545  0.15144482402622292  0.861991573514136  1.0000
  C   C17       1.0  0.04763015026462001  0.1397253709868568  0.8234679769243892  1.0000
  C   C18       1.0  0.06637402038885168  0.12647631497982945  0.8001356129818884  1.0000
  H   H9        1.0  0.13136079327380082  0.13482398539241378  0.8658906110737865  1.0000
  H   H10       1.0  0.0994631103369414  0.16003637824563013  0.9062763405393442  1.0000
  H   H11       1.0  0.023545655813650354  0.14007941285294004  0.8120241122402394  1.0000
  H   H12       1.0  0.05657205551492577  0.11637284391187892  0.7709673118007895  1.0000
  C   C19       1.0  0.4278067979472849  0.44999470873930636  0.8707112552714171  1.0000
  C   C20       1.0  0.42009699610213846  0.47490204204575354  0.8899706439868531  1.0000
  C   C21       1.0  0.4062073041650219  0.4942396436945176  0.8689104967802085  1.0000
  C   C22       1.0  0.3986976783701119  0.4878123300782659  0.8288106747201559  1.0000
  C   C23       1.0  0.4056523339974316  0.4622922993149328  0.809733210312099  1.0000
  C   C24       1.0  0.42069509315737863  0.4438588861075607  0.8305398159022299  1.0000
  H   H13       1.0  0.4255004073235448  0.4798158381190203  0.9209004204954602  1.0000
  H   H14       1.0  0.4008141465176173  0.5139374962938931  0.8837918990077521  1.0000
  H   H15       1.0  0.39692977024214804  0.9189781024511529  0.8199447910951105  1.0000
  H   H16       1.0  0.42622068272620006  0.4243152323836009  0.8155567616568575  1.0000
  C   C25       1.0  0.2701881098143447  0.33274638902842996  0.0199801104273587  1.0000
  C   C26       1.0  0.2738820216889392  0.3013501536575765  0.02224149531051001  1.0000
  C   C27       1.0  0.24204233583316745  0.26609637831292127  0.023971012138383884  1.0000
  C   C28       1.0  0.20643336808325083  0.26205352225647643  0.02296541721952284  1.0000
  C   C29       1.0  0.20279601752901666  0.2934731727725008  0.020260560675992245  1.0000
  C   C30       1.0  0.23459910454471103  0.3287196160839537  0.019022455587935694  1.0000
  H   H17       1.0  0.30120161209799573  0.3041744878663131  0.02303989984627995  1.0000
  H   H18       1.0  0.2449823449925984  0.24186819551529506  0.026106969521297745  1.0000
  H   H19       1.0  0.1754562492157465  0.2906260011548695  0.019704989230334924  1.0000
  H   H20       1.0  0.23153863263767904  0.35290114752135565  0.017502972665608185  1.0000
  C   C31       1.0  0.46336375441697825  0.2998284651141625  0.029438682577891617  1.0000
  C   C32       1.0  0.46411398012103816  0.2670689169555449  0.0356033183847965  1.0000
  C   C33       1.0  0.4976888516147458  0.2667452907192391  0.03321953587702194  1.0000
  C   C34       1.0  0.5307689675968366  0.2992187855923488  0.02462135231296947  1.0000
  C   C35       1.0  0.5301968224033262  0.3321678495912871  0.019378445895859242  1.0000
  C   C36       1.0  0.49659313106959924  0.3324741861768761  0.02172152154278817  1.0000
  H   H21       1.0  0.9513684599320685  0.26227345734283974  0.9457901206671021  1.0000
  H   H22       1.0  0.010986127928495007  0.2640255648032371  0.9581049889040376  1.0000
  H   H23       1.0  0.5557410120982867  0.357417327538605  0.012869484840489998  1.0000
  H   H24       1.0  0.496513400017081  0.3579152014509452  0.017259135305980777  1.0000
  C   C37       1.0  0.47311880444319365  0.46630060797387113  0.21716951094087916  1.0000
  C   C38       1.0  0.44214764108836385  0.4466841960953878  0.19281806116703143  1.0000
  C   C39       1.0  0.44659362690933263  0.44690353518082554  0.1520042109517175  1.0000
  C   C40       1.0  0.4820152593228671  0.4672395375442177  0.1354413320781107  1.0000
  C   C41       1.0  0.5128716263196287  0.4865637334351427  0.159818566548535  1.0000
  C   C42       1.0  0.014836835798246326  0.4563544277528922  0.22045461211995981  1.0000
  H   H25       1.0  0.4147410150211044  0.43105687755920075  0.2055188658732844  1.0000
  H   H26       1.0  0.4226406802365536  0.4318682864098145  0.13336098547194444  1.0000
  H   H27       1.0  0.0429183759255314  0.47294115617972077  0.164822773744046  1.0000
  H   H28       1.0  0.9770640642993148  0.9476292146717152  0.25410608925993405  1.0000
  C   C43       1.0  0.06986961457351189  0.04440249393095886  0.4714372189076696  1.0000
  C   C44       1.0  0.09425285434802666  0.5657985005499758  0.5144566936348982  1.0000
  C   C45       1.0  0.05901050939496496  0.010088016342467808  0.5320318922126658  1.0000
  C   C46       1.0  0.06766718514347092  0.041748550256904715  0.5539392219488019  1.0000
  C   C47       1.0  0.07824664339000414  0.07497751591416184  0.534486026415349  1.0000
  C   C48       1.0  0.07882143606292882  0.07614487711031094  0.49337252884955113  1.0000
  H   H29       1.0  0.10668834271380491  0.5923680879549008  0.5000170960938983  1.0000
  H   H30       1.0  0.10008049208845914  0.5890830376966384  0.5721722029472159  1.0000
  H   H31       1.0  0.08458798216139783  0.09945102559961408  0.5511067862914217  1.0000
  H   H32       1.0  0.08576726935016848  0.10165404557346983  0.4785797393859321  1.0000
  C   C49       1.0  0.47950770376044577  0.11730603844031595  0.20709678197280026  1.0000
  C   C50       1.0  0.44830607053357746  0.11359674829029853  0.1876017863664722  1.0000
  C   C51       1.0  0.44894893340641623  0.11738805114128635  0.14669444525443784  1.0000
  C   C52       1.0  0.4810132793657714  0.12579967871346762  0.1250733336968443  1.0000
  C   C53       1.0  0.5126099489558041  0.13070031850774444  0.14476725109987434  1.0000
  C   C54       1.0  0.5116835935627582  0.12603120206551724  0.18557327947465227  1.0000
  H   H33       1.0  0.4233766419254249  0.10694234534016707  0.2038759367264201  1.0000
  H   H34       1.0  0.42435404303820934  0.11349004293501909  0.1316742070012049  1.0000
  H   H35       1.0  0.5372819111524613  0.13663337877945406  0.12837358640210403  1.0000
  H   H36       1.0  0.5358874514403552  0.12869494688665925  0.2003760908438483  1.0000
  C   C55       1.0  0.47092762292336343  0.25300435470054256  0.3596170978053485  1.0000
  C   C56       1.0  0.49414253869002034  0.2873211121081084  0.3771564114727091  1.0000
  C   C57       1.0  0.5095252284187475  0.3199859848322568  0.3549464164777365  1.0000
  C   C58       1.0  0.5021657223486454  0.3183701672851139  0.3149226570371771  1.0000
  C   C59       1.0  0.47824370128328986  0.2841867523363693  0.2975611961565551  1.0000
  C   C60       1.0  0.46231976875388286  0.2516780815356594  0.3199522206401916  1.0000
  H   H37       1.0  0.9543544471543371  0.2982413608269104  0.4204366984569048  1.0000
  H   H38       1.0  0.012999466647286352  0.35728329978144346  0.4095874549786167  1.0000
  H   H39       1.0  0.4720554765421167  0.282838217627955  0.26672777543708953  1.0000
  H   H40       1.0  0.4435056188855479  0.2256239713667217  0.30649053111211116  1.0000
  C   C61       1.0  0.2647637734473817  0.0562403081005388  0.3107957722879069  1.0000
  C   C62       1.0  0.23370026480928693  0.06014964996529203  0.3176401360288193  1.0000
  C   C63       1.0  0.20121470747730108  0.03092780374822944  0.3336892832214485  1.0000
  C   C64       1.0  0.19915217409000388  0.9972112121767893  0.3418189149102212  1.0000
  C   C65       1.0  0.23042699206972597  0.9934391348408305  0.33540241357386313  1.0000
  C   C66       1.0  0.2633631253078984  0.02305334018671022  0.3203883268724038  1.0000
  H   H41       1.0  0.27123899776704713  0.5499811405419214  0.20633008232263306  1.0000
  H   H42       1.0  0.20903759877743172  0.5435557668583907  0.21153409575393997  1.0000
  H   H43       1.0  0.22901891718853237  0.9673810163259805  0.34152705845651377  1.0000
  H   H44       1.0  0.2872121600759462  0.019783255054255818  0.3149231119103564  1.0000
  C   C67       1.0  0.3787344141098359  0.028649638748321625  0.4634610457069206  1.0000
  C   C68       1.0  0.35745383447936097  0.9979740673693507  0.4875741089524746  1.0000
  C   C69       1.0  0.3625854806993323  0.0005034374754651073  0.5283353130765165  1.0000
  C   C70       1.0  0.3897447624432349  0.03351837568981606  0.5451367747046364  1.0000
  C   C71       1.0  0.4109222252652244  0.06419273094939132  0.5210133214479084  1.0000
  C   C72       1.0  0.4051432355943069  0.06194294208557803  0.4803509189987272  1.0000
  H   H45       1.0  0.33690381930403257  0.9721418090175797  0.4746708766484529  1.0000
  H   H46       1.0  0.34605625592636474  0.9767478951614292  0.5466491091934358  1.0000
  H   H47       1.0  0.42478848203120384  0.5981657315151062  0.5526887972573735  1.0000
  H   H48       1.0  0.4217070951140103  0.08575640168830127  0.46206521585736837  1.0000
  Fe  Fe25      1.0  0.4499797338847304  0.6201380129115172  0.3170427262190305  1.0000
  S   S49       1.0  0.41154807940088184  0.6396439056596631  0.29649821999649406  1.0000
  S   S50       1.0  0.5045490018863068  0.6396286193065239  0.2848331034332686  1.0000
  Fe  Fe26      1.0  0.3984430169671465  0.5761607427809384  0.38540313902159123  1.0000
  S   S51       1.0  0.35658045477701206  0.5929663512692186  0.3698051091392117  1.0000
  S   S52       1.0  0.3814319450376953  0.529595163168199  0.42913261998756425  1.0000
  Fe  Fe27      1.0  0.36581618073431393  0.5818676803340292  0.30818414851731274  1.0000
  S   S53       1.0  0.3219326461563713  0.5516645372184471  0.26248082117166643  1.0000
  Fe  Fe28      1.0  0.40617762070160957  0.6494671957242563  0.3599238219389147  1.0000
  S   S54       1.0  0.40255942489454555  0.6998531270123968  0.3768448248684077  1.0000
  S   S55       1.0  0.40461663741568643  0.5612893332670107  0.32361597098803374  1.0000
  S   S56       1.0  0.44779366102395407  0.6337314336748683  0.38063176968300166  1.0000
  Fe  Fe29      1.0  0.104604255865477  0.9613787669160773  0.3553502208429106  1.0000
  S   S57       1.0  0.0747103070111397  0.5138500031637853  0.3353295252775814  1.0000
  S   S58       1.0  0.1616625625027613  0.5332097355195291  0.2752865781877412  1.0000
  Fe  Fe30      1.0  0.02058811308937217  0.9174177409859866  0.3647205704839727  1.0000
  S   S59       1.0  0.5022880892956875  0.9212399744527687  0.3517952868724274  1.0000
  S   S60       1.0  0.5489275988654065  0.8549311744444489  0.35291347737123985  1.0000
  Fe  Fe31      1.0  0.05450607149985267  0.9719017101353749  0.2979911164832256  1.0000
  S   S61       1.0  0.05564514672776754  0.985397994072018  0.23367395648043207  1.0000
  Fe  Fe32      1.0  0.062486842851541186  0.998926100566912  0.3831950755004019  1.0000
  S   S62       1.0  0.06671372585548968  0.045907049826948265  0.42000680633130233  1.0000
  S   S63       1.0  0.05856268585905602  0.9223634954316163  0.3155724650188103  1.0000
  S   S64       1.0  0.06677057675815694  0.9512203781979408  0.4067435029089156  1.0000
  Fe  Fe33      1.0  0.4395405462378155  0.8719031370745771  0.9978916577307598  1.0000
  S   S65       1.0  0.450547089228318  0.9259358187608714  0.023773766748639957  1.0000
  S   S66       1.0  0.4867074357535844  0.866335153460035  0.972383698570452  1.0000
  Fe  Fe34      1.0  0.3557092874221075  0.8361843150235998  0.008551380289997024  1.0000
  S   S67       1.0  0.3604226681102192  0.887143126640533  0.03538143992104897  1.0000
  S   S68       1.0  0.30181932069404915  0.7822620934104934  0.0017273357943399237  1.0000
  Fe  Fe35      1.0  0.40162286341950526  0.9171189245840885  0.9872382758404207  1.0000
  S   S69       1.0  0.40096664365770085  0.9638819950585364  0.9543275031544215  1.0000
  Fe  Fe36      1.0  0.4085007043275177  0.8906666573266996  0.06931083149597106  1.0000
  S   S70       1.0  0.40763427452812445  0.8950756555709982  0.1355711286444386  1.0000
  S   S71       1.0  0.39380792105223755  0.8658189504176044  0.958170109606549  1.0000
  S   S72       1.0  0.40073931963292553  0.8371782622960732  0.0455039210640105  1.0000
  Fe  Fe37      1.0  0.04179962143733452  0.6763079955395008  0.08893528511976512  1.0000
  S   S73       1.0  0.051732159399163105  0.7326116730662416  0.07290200711987778  1.0000
  S   S74       1.0  0.033659936366907506  0.6547557210563612  0.1511997921829792  1.0000
  Fe  Fe38      1.0  0.053109584187825916  0.6586836268510128  0.004296268880686904  1.0000
  S   S75       1.0  0.06241451527156029  0.7129821716194393  0.9818638608888682  1.0000
  S   S76       1.0  0.06296461145289484  0.6185587648969959  0.9686895361851098  1.0000
  Fe  Fe39      1.0  0.09818233271212756  0.736816929327268  0.03505386539553079  1.0000
  S   S77       1.0  0.15388762667044012  0.7886733437958492  0.027267948116603245  1.0000
  Fe  Fe40      1.0  0.015309020578749815  0.7035625783593097  0.02138170791902394  1.0000
  S   S78       1.0  0.4787206966613311  0.7132107637928272  0.9984293829188731  1.0000
  S   S79       1.0  0.09150280334922405  0.6831109829329378  0.05544937798451912  1.0000
  S   S80       1.0  0.5150570379832073  0.644805784487134  0.0024626155297615693  1.0000
  Fe  Fe41      1.0  0.361328504258962  0.992368953582457  0.6381675059487696  1.0000
  S   S81       1.0  0.3030444591537535  0.9466896129352647  0.6275115681685512  1.0000
  S   S82       1.0  0.3992540920951911  0.03691915715273142  0.5957510021842511  1.0000
  Fe  Fe42      1.0  0.36303708690342573  0.9675820211802393  0.7228347166168579  1.0000
  S   S83       1.0  0.3045776490113037  0.9202770929387474  0.7190267852061308  1.0000
  S   S84       1.0  0.40549687334565565  0.9789707215094711  0.7706123970439746  1.0000
  Fe  Fe43      1.0  0.3201809960347268  0.9105208479174636  0.659230878246733  1.0000
  S   S85       1.0  0.31280109031186526  0.855878708688464  0.6391705942623941  1.0000
  Fe  Fe44      1.0  0.2924099409506836  0.9607326336846549  0.687948217426089  1.0000
  S   S86       1.0  0.22671628760325224  0.4682634404083166  0.6990687481279784  1.0000
  S   S87       1.0  0.379557990986617  0.9551888271800352  0.6647376319276674  1.0000
  S   S88       1.0  0.33697631891982704  0.5218304272194016  0.7059589428232808  1.0000
  Fe  Fe45      1.0  0.0957498698306949  0.6121162055030955  0.7409844156055043  1.0000
  S   S89       1.0  0.15473575868893946  0.6584573206434802  0.736519308319248  1.0000
  S   S90       1.0  0.0529111198355541  0.6084224430206475  0.7847291457511836  1.0000
  Fe  Fe46      1.0  0.10006466464930915  0.5775771018287041  0.663012025444251  1.0000
  S   S91       1.0  0.15903568897771714  0.6215010057189685  0.6520964375036349  1.0000
  S   S92       1.0  0.06786260142515775  0.526585675048145  0.625462482622956  1.0000
  Fe  Fe47      1.0  0.16693486609496808  0.6143047838428193  0.7157576511326004  1.0000
  S   S93       1.0  0.21861383841515572  0.613301224981209  0.7336202497271389  1.0000
  Fe  Fe48      1.0  0.14170885150827614  0.6615429018247232  0.673517204744624  1.0000
  S   S94       1.0  0.1524704320768943  0.7138734379649154  0.6428439963039108  1.0000
  S   S95       1.0  0.10892315958683435  0.5676154208711126  0.725664113098001  1.0000
  S   S96       1.0  0.08164362435661991  0.6178666807663334  0.6789657246812388  1.0000
  C   C73       1.0  0.2680869894030336  0.8166887100366189  0.6411735523182424  1.0000
  C   C74       1.0  0.23955922674159996  0.8146399247825156  0.6178389302169827  1.0000
  C   C75       1.0  0.20435827045162677  0.7827538044378052  0.6183678120790114  1.0000
  C   C76       1.0  0.19754428471855753  0.7525146805096419  0.6418417432216292  1.0000
  C   C77       1.0  0.22620731694336244  0.7542697482292169  0.6647779067404979  1.0000
  C   C78       1.0  0.26149472735234564  0.7862775355099278  0.6642649818496551  1.0000
  H   H49       1.0  0.2448035957967782  0.8374776886753733  0.5989411788952465  1.0000
  H   H50       1.0  0.18237889647957536  0.7813045874621946  0.6002097939347072  1.0000
  H   H51       1.0  0.22122273072640386  0.7309779910324369  0.6828104169368026  1.0000
  H   H52       1.0  0.2837331781094392  0.7874037935223939  0.6816987637136867  1.0000
  C   C79       1.0  0.2248259370872985  0.5083895959615414  0.7110839259831674  1.0000
  C   C80       1.0  0.19019057206704634  0.5065166995135613  0.7130410670794416  1.0000
  C   C81       1.0  0.18785824813480784  0.5384719342872606  0.7200494149760163  1.0000
  C   C82       1.0  0.2202149370317416  0.5724188357548966  0.7259191344399029  1.0000
  C   C83       1.0  0.25475366923598425  0.5741107689038255  0.7249864177935644  1.0000
  C   C84       1.0  0.2570783187255402  0.5422960334205799  0.7173366307181822  1.0000
  H   H53       1.0  0.1650907565793898  0.48026407614861083  0.7088479476176414  1.0000
  H   H54       1.0  0.16106785819312444  0.5367604420943426  0.7212011161501682  1.0000
  H   H55       1.0  0.18377173122697632  0.040877209304626794  0.6947074614762916  1.0000
  H   H56       1.0  0.18531173411468327  0.9842650545452426  0.7124337913786261  1.0000
  C   C85       1.0  0.062330650024941876  0.6186568826733968  0.8348941355213042  1.0000
  C   C86       1.0  0.08610313427133942  0.6099007070306669  0.8551907807521244  1.0000
  C   C87       1.0  0.08701789796551035  0.6110756322491994  0.8963149160307806  1.0000
  C   C88       1.0  0.06534153797065109  0.6224010379120599  0.9172561458263401  1.0000
  C   C89       1.0  0.043852379622441304  0.6339424859549304  0.8968186785963853  1.0000
  C   C90       1.0  0.041811836728903096  0.6313653872315645  0.8558123141577739  1.0000
  H   H57       1.0  0.10195186426415725  0.5999696681992839  0.8393541006326918  1.0000
  H   H58       1.0  0.10384573512319313  0.6022654740617451  0.9119827798344774  1.0000
  H   H59       1.0  0.026961783211504702  0.6426331108228585  0.912672433118768  1.0000
  H   H60       1.0  0.023225092773626433  0.6380366216668273  0.8403310531924116  1.0000
  C   C91       1.0  0.39371814580600095  0.9625247873266128  0.9030552967694778  1.0000
  C   C92       1.0  0.39141817313458377  0.9916135508456283  0.8854473610692309  1.0000
  C   C93       1.0  0.39128439550280486  0.9946833534950598  0.8444967171097996  1.0000
  C   C94       1.0  0.3932928042669224  0.9685947456550408  0.8205325962598791  1.0000
  C   C95       1.0  0.39436303755753055  0.9387721750625871  0.838114631126767  1.0000
  C   C96       1.0  0.39404534500323535  0.9354505350104422  0.8791801176127401  1.0000
  H   H61       1.0  0.39133517262420614  0.012810596829255338  0.9035309387241711  1.0000
  H   H62       1.0  0.3916046005432941  0.018409506459782676  0.8314663527758567  1.0000
  H   H63       1.0  0.3996360263385563  0.4569086255661466  0.7789059672629978  1.0000
  H   H64       1.0  0.39580514477993745  0.9128773363729407  0.8922290594884722  1.0000
  C   C97       1.0  0.2614314201622111  0.7846869449906104  0.011691175679712673  1.0000
  C   C98       1.0  0.26126408780273497  0.8178624228093014  0.00748304779245923  1.0000
  C   C99       1.0  0.22829989423221914  0.8188517672798894  0.013402405793060845  1.0000
  C   C100      1.0  0.19531238560728215  0.7867841931769274  0.023811643458562105  1.0000
  C   C101      1.0  0.19572597369572628  0.7537830870676315  0.029026087820436253  1.0000
  C   C102      1.0  0.22854596248899467  0.7526295948095459  0.022399653565151834  1.0000
  H   H65       1.0  0.286278913597234  0.8426293776680468  0.9986986650975015  1.0000
  H   H66       1.0  0.22825319919263104  0.8444949534253315  0.009358776205254493  1.0000
  H   H67       1.0  0.1707313019518987  0.7290549045563722  0.03780772275047872  1.0000
  H   H68       1.0  0.22851100614625183  0.7269133028960668  0.025955793670951355  1.0000
  C   C103      1.0  0.48773280115759354  0.8256353695885321  0.9826736993445476  1.0000
  C   C104      1.0  0.46693690202054644  0.8025063216752057  0.013417364720174518  1.0000
  C   C105      1.0  0.46590382772794375  0.7687923547365331  0.019318064245769984  1.0000
  C   C106      1.0  0.48595687424557016  0.7582090619778872  0.994763198074975  1.0000
  C   C107      1.0  0.5079419057599085  0.7819622186972226  0.9649293271881868  1.0000
  C   C108      1.0  0.5089780248042862  0.8157285784490123  0.9590566246496317  1.0000
  H   H69       1.0  0.9339772604197684  0.8054480111451571  0.9743276172835938  1.0000
  H   H70       1.0  0.9241441698735241  0.7416260139951836  0.9737810186143859  1.0000
  H   H71       1.0  0.5229333845369835  0.773627956149417  0.9453921035479721  1.0000
  H   H72       1.0  0.5251664581219315  0.8335601971305384  0.9352192597477458  1.0000
  C   C109      1.0  0.5015765580311425  0.961299429095882  0.22321151863131086  1.0000
  C   C110      1.0  0.5056531908257906  0.9724726116996083  0.18387909268330097  1.0000
  C   C111      1.0  0.47792976627078876  0.9515546718628094  0.15616304204318912  1.0000
  C   C112      1.0  0.4453342094993869  0.91989685526994  0.16791075648982287  1.0000
  C   C113      1.0  0.44118787071837223  0.9089370445508114  0.20728767004276516  1.0000
  C   C114      1.0  0.9796216594968333  0.9471828974463687  0.22267189329291234  1.0000
  H   H73       1.0  0.5304123212149318  0.9974446593940473  0.1748339023072224  1.0000
  H   H74       1.0  0.48143686577678707  0.9603501891220881  0.1260084169622201  1.0000
  H   H75       1.0  0.920687663431806  0.9221921477551893  0.21244824951120547  1.0000
  H   H76       1.0  0.0402311274501701  0.47043031389129075  0.2372079456327873  1.0000
  C   C115      1.0  0.08186880348332908  0.5335644295736909  0.4921220189984903  1.0000
  C   C116      1.0  0.06077398603664836  0.011543420064036303  0.4909583404692003  1.0000
  C   C117      1.0  0.09054639454518809  0.5640160723402765  0.5553625082415946  1.0000
  C   C118      1.0  0.07385299617431239  0.5298394963791568  0.574239715582758  1.0000
  C   C119      1.0  0.06144160125700023  0.4975261873248286  0.5519789011577606  1.0000
  C   C120      1.0  0.06567971030106963  0.4993591862695493  0.5110275629359873  1.0000
  H   H77       1.0  0.05398710267322737  0.9869185515018921  0.4745399556037571  1.0000
  H   H78       1.0  0.0508929660474265  0.9843244267462781  0.5469210500208654  1.0000
  H   H79       1.0  0.048436597038676865  0.4709562713214221  0.5664327898155719  1.0000
  H   H80       1.0  0.05588824770061867  0.4743410136871386  0.4941015174542751  1.0000
  C   C121      1.0  0.503741155307918  0.6325165179802448  0.23384994557594446  1.0000
  C   C122      1.0  0.5258966221397433  0.6621407499317283  0.20886382539531687  1.0000
  C   C123      1.0  0.5295392456124118  0.6559667956016878  0.16899775790930957  1.0000
  C   C124      1.0  0.5119295844432482  0.6199579805053371  0.15417221739536918  1.0000
  C   C125      1.0  0.4901218500877595  0.590374636147721  0.17929962785333983  1.0000
  C   C126      1.0  0.485670427180023  0.5967035878303203  0.2188058211025498  1.0000
  H   H81       1.0  0.5406821897759483  0.6898983427162573  0.220487538794236  1.0000
  H   H82       1.0  0.5468549951168065  0.6789444284576348  0.15006061060592435  1.0000
  H   H83       1.0  0.4772096429438067  0.562425382876619  0.16823091151667507  1.0000
  H   H84       1.0  0.46994409183962393  0.5738385894452674  0.23832949052312638  1.0000
  C   C127      1.0  0.4431405739668734  0.7429019716846953  0.3695979121995305  1.0000
  C   C128      1.0  0.4759395984307181  0.7449335338932718  0.3563243665209631  1.0000
  C   C129      1.0  0.5081126774623989  0.7794848049607177  0.3512095645974243  1.0000
  C   C130      1.0  0.5076508234088013  0.8122100270989566  0.35899097911544575  1.0000
  C   C131      1.0  0.47472127083516297  0.8102222528363372  0.3718256158382129  1.0000
  C   C132      1.0  0.4425658523609215  0.7756120366565735  0.37721189737896155  1.0000
  H   H85       1.0  0.03087883899297294  0.7943214712011696  0.4003059444500806  1.0000
  H   H86       1.0  0.029329364765137547  0.852265092904611  0.38888470019345245  1.0000
  H   H87       1.0  0.4741399505590254  0.8352890846905118  0.3779954426326728  1.0000
  H   H88       1.0  0.4172863230051138  0.7741974107285439  0.38755713493699884  1.0000
  C   C133      1.0  0.27779728734934195  0.5470744756062265  0.2683851960930886  1.0000
  C   C134      1.0  0.2586301653955249  0.5468536874924467  0.2348212295437557  1.0000
  C   C135      1.0  0.22342782100706268  0.5432650106092891  0.23777053945799417  1.0000
  C   C136      1.0  0.20635325943941563  0.5384929899847938  0.27420208310661714  1.0000
  C   C137      1.0  0.22531549879392862  0.5385246807288108  0.3080906007280301  1.0000
  C   C138      1.0  0.2611917504997343  0.5429415907552251  0.3051832594361544  1.0000
  H   H89       1.0  0.23486785727093423  0.08595937241078899  0.3106805790360259  1.0000
  H   H90       1.0  0.17791762917159112  0.03467670097991382  0.3398505603261993  1.0000
  H   H91       1.0  0.2124574670748267  0.5354534342004457  0.3364191631469328  1.0000
  H   H92       1.0  0.2758355154224624  0.5428837155697089  0.33127754446209745  1.0000
  C   C139      1.0  0.3809537072273269  0.5352127864919156  0.4803170382782786  1.0000
  C   C140      1.0  0.3609148820814826  0.5037662159613008  0.5038181082566306  1.0000
  C   C141      1.0  0.3637766181820477  0.5062395781135244  0.5448151432567635  1.0000
  C   C142      1.0  0.387177314407581  0.5401853360369065  0.5626013876238739  1.0000
  C   C143      1.0  0.4066097498598783  0.5717931156799593  0.5391421902454999  1.0000
  C   C144      1.0  0.40320093001954316  0.5694348411841555  0.4981524505415883  1.0000
  H   H93       1.0  0.34363088813540976  0.47719446282544165  0.4902241395037663  1.0000
  H   H94       1.0  0.3487161728497712  0.481726964012842  0.5625831465306423  1.0000
  H   H95       1.0  0.4320689229191837  0.0898084747421728  0.5338003645915135  1.0000
  H   H96       1.0  0.41893882756152184  0.5938110555658973  0.48035615606616433  1.0000
  Fe  Fe49      1.0  0.9466884042046108  0.13754931869543585  0.30559952993023937  1.0000
  S   S97       1.0  0.9095772639241085  0.16221799875839096  0.30428390062830896  1.0000
  S   S98       1.0  0.9953379971369771  0.15173136222310918  0.2650574267397368  1.0000
  Fe  Fe50      1.0  0.9126047192654618  0.09501763709834965  0.381642238395377  1.0000
  S   S99       1.0  0.8732220684290065  0.11687160352815847  0.38706845518790345  1.0000
  S   S100      1.0  0.9120836875133714  0.04911884912024275  0.4179014944192076  1.0000
  Fe  Fe51      1.0  0.8639026187124218  0.10589049245217193  0.3227192923293775  1.0000
  S   S101      1.0  0.8076504068774428  0.07867196299282857  0.29316598117919873  1.0000
  Fe  Fe52      1.0  0.921619136243283  0.1715244851135353  0.36845276153394885  1.0000
  S   S102      1.0  0.929682362961289  0.22426169705712387  0.3957757573327002  1.0000
  S   S103      1.0  0.9000979002928056  0.08032153485970749  0.31803383916430583  1.0000
  S   S104      1.0  0.9620939345967503  0.15076563551943292  0.36906887930555343  1.0000
  Fe  Fe53      1.0  0.5948485876049854  0.4959366604730441  0.31181852290281953  1.0000
  S   S105      1.0  0.5660839501036874  0.008571339961329303  0.36733657290058946  1.0000
  S   S106      1.0  0.6643383775737507  0.022963861742602575  0.39938755534029  1.0000
  Fe  Fe54      1.0  0.5402198896008927  0.4125426956796425  0.3143107305232314  1.0000
  S   S107      1.0  0.03172154348740319  0.43645949089870295  0.38504723458582124  1.0000
  S   S108      1.0  0.08052134570793101  0.37389879792759634  0.36817571406054167  1.0000
  Fe  Fe55      1.0  0.5121137717988159  0.4664475689799369  0.303571429091774  1.0000
  S   S109      1.0  0.4672969881016283  0.4683295982518104  0.2680151572222296  1.0000
  Fe  Fe56      1.0  0.545883424812519  0.46313382855836305  0.3819856034946033  1.0000
  S   S110      1.0  0.5427980539327422  0.4639347746810076  0.44831443185084785  1.0000
  S   S111      1.0  0.5521844503862144  0.45647466083517546  0.27004323135999225  1.0000
  S   S112      1.0  0.5876313318142808  0.45115376827034753  0.35317741537056563  1.0000
  Fe  Fe57      1.0  0.9105686924422125  0.3457546145324971  0.008755900293907493  1.0000
  S   S113      1.0  0.9468553656829364  0.4070589127296128  0.0019122743248314311  1.0000
  S   S114      1.0  0.9203914776577553  0.30446249425204874  0.976708008073322  1.0000
  Fe  Fe58      1.0  0.8554667216547733  0.3525825567640922  0.06114956551307594  1.0000
  S   S115      1.0  0.8877612440554077  0.4144404669991503  0.058956083930407265  1.0000
  S   S116      1.0  0.8019678109014385  0.3274701293732051  0.09533231078443061  1.0000
  Fe  Fe59      1.0  0.8931597435924978  0.4071259971493303  0.9946099752157763  1.0000
  S   S117      1.0  0.8790939207689926  0.4405525101525299  0.9529236511173378  1.0000
  Fe  Fe60      1.0  0.9377883081292794  0.40804183539580585  0.06692640488981018  1.0000
  S   S118      1.0  0.9868813005332264  0.44448398882711165  0.10562796313833811  1.0000
  S   S119      1.0  0.8575112647790359  0.3457466956955055  0.9964792923462975  1.0000
  S   S120      1.0  0.9051501197808943  0.34649472397327236  0.07404718817127116  1.0000
  Fe  Fe61      1.0  0.5284438771827482  0.16302490546546075  0.03598295495730637  1.0000
  S   S121      1.0  0.5802415877391713  0.2130127596450269  0.05759191354723902  1.0000
  S   S122      1.0  0.4788461600278648  0.12468199755178157  0.07342450085587945  1.0000
  Fe  Fe62      1.0  0.5489771335242503  0.18310458073006358  0.9489273691778983  1.0000
  S   S123      1.0  0.6010984361437947  0.23499113577698952  0.9646254915054375  1.0000
  S   S124      1.0  0.53442845740303  0.17390213978549218  0.884321230015902  1.0000
  Fe  Fe63      1.0  0.6085530724444222  0.1999165446703246  0.008971819698755823  1.0000
  S   S125      1.0  0.6634100418001978  0.20151970229988733  0.005849157156073481  1.0000
  Fe  Fe64      1.0  0.5676529656243982  0.24303918986170098  0.011017274690097612  1.0000
  S   S126      1.0  0.07226440110320342  0.309622350076067  0.009599762760465591  1.0000
  S   S127      1.0  0.5576438202621772  0.14697967517219424  0.9909791953439901  1.0000
  S   S128      1.0  0.01658013591769758  0.20241179851695065  0.9889149308140379  1.0000
  Fe  Fe65      1.0  0.8429477204437074  0.47882651864703063  0.6543608717509893  1.0000
  S   S129      1.0  0.7827802469790505  0.46210646653838566  0.6590645179965212  1.0000
  S   S130      1.0  0.8831191698644419  0.5243449272132966  0.6136300123646115  1.0000
  Fe  Fe66      1.0  0.8403083721625894  0.4378952476582907  0.7305160829067787  1.0000
  S   S131      1.0  0.7800898020614013  0.4187388107654052  0.7412612061497434  1.0000
  S   S132      1.0  0.8750697790123475  0.4228263716978597  0.7690709742032573  1.0000
  Fe  Fe67      1.0  0.7739868017734092  0.40640037993659583  0.6768672697685013  1.0000
  S   S133      1.0  0.7244644597586476  0.3547759913279708  0.653713645396199  1.0000
  Fe  Fe68      1.0  0.7942834012855396  0.4758296458053511  0.7225877990603661  1.0000
  S   S134      1.0  0.7865313847356021  0.006074642484490621  0.7284417850940054  1.0000
  S   S135      1.0  0.8335413507673548  0.4218931420557427  0.6668208878255241  1.0000
  S   S136      1.0  0.8711775264141425  0.9991280259536347  0.7010403085086634  1.0000
  Fe  Fe69      1.0  0.6096593373846656  0.09214613925441173  0.7202145199675533  1.0000
  S   S137      1.0  0.6689886701303167  0.10618572760076753  0.7126960831695354  1.0000
  S   S138      1.0  0.5870376826713337  0.08141210075163369  0.7822092321022577  1.0000
  Fe  Fe70      1.0  0.5993783349799788  0.09645063836786526  0.632646091549722  1.0000
  S   S139      1.0  0.6584270525735102  0.11332411657006353  0.6187965184393976  1.0000
  S   S140      1.0  0.5594273264238779  0.08970701270819977  0.5842601285372244  1.0000
  Fe  Fe71      1.0  0.6494673764516949  0.06849685014826144  0.6608352831176674  1.0000
  S   S141      1.0  0.6660343041222689  0.028067779824497735  0.6380397808626208  1.0000
  Fe  Fe72      1.0  0.6729190986431701  0.14978867978472635  0.6715681363692456  1.0000
  S   S142      1.0  0.7249456581299439  0.20489562139822778  0.6794952580341073  1.0000
  S   S143      1.0  0.5892551534590572  0.04963949875274491  0.6720277215703744  1.0000
  S   S144      1.0  0.6146145628572394  0.13779150987966984  0.68186536225101  1.0000
  C   C145      1.0  0.7247543462682193  0.3131992164112202  0.660779086576781  1.0000
  C   C146      1.0  0.7556118918379913  0.31320313238894115  0.6769630831909131  1.0000
  C   C147      1.0  0.755546952852072  0.2798290352745507  0.6818022300624859  1.0000
  C   C148      1.0  0.7244741564559288  0.24622071172371698  0.6710364708165201  1.0000
  C   C149      1.0  0.6934118375132643  0.2460921206350161  0.655209180323697  1.0000
  C   C150      1.0  0.6936467514995943  0.279567254933006  0.6499604788814591  1.0000
  H   H97       1.0  0.779671972069057  0.3389633563338245  0.6854433220623384  1.0000
  H   H98       1.0  0.7796717959922039  0.2801037684473299  0.6940390977121973  1.0000
  H   H99       1.0  0.6693813788506641  0.22032445722922786  0.6466961624252251  1.0000
  H   H100      1.0  0.6697516382608172  0.27948482892156534  0.6373536411318323  1.0000
  C   C151      1.0  0.751687298337976  0.01064259054898534  0.7042638607812507  1.0000
  C   C152      1.0  0.7432264762266576  0.0374973734095887  0.7169871747700824  1.0000
  C   C153      1.0  0.7166833696187161  0.04284188316613683  0.6971672318420371  1.0000
  C   C154      1.0  0.6983889488659364  0.02123106676519726  0.6645668641401191  1.0000
  C   C155      1.0  0.7066716497123934  0.9941957502555739  0.6520184621638607  1.0000
  C   C156      1.0  0.7331694880862321  0.9888178184411087  0.6718745833741305  1.0000
  H   H101      1.0  0.7573690922528913  0.05434094234360545  0.7421554776441046  1.0000
  H   H102      1.0  0.7104964953360579  0.06372634761886645  0.7070697261099702  1.0000
  H   H103      1.0  0.6591335955678268  0.4598434923608337  0.686814050437136  1.0000
  H   H104      1.0  0.7160028526956711  0.46030781002766874  0.7096608163089301  1.0000
  C   C157      1.0  0.5767391156048789  0.11126593854895704  0.8092486461583425  1.0000
  C   C158      1.0  0.5809320138347757  0.11275165356072908  0.850018401411232  1.0000
  C   C159      1.0  0.5690563189969197  0.1327262875935724  0.8731762697695504  1.0000
  C   C160      1.0  0.5524672878893122  0.1511254098782515  0.8557491875815774  1.0000
  C   C161      1.0  0.5494142737452616  0.1506972410030315  0.8148040205765682  1.0000
  C   C162      1.0  0.5618523239165844  0.13115233741596868  0.7915728885602608  1.0000
  H   H105      1.0  0.593307634558799  0.09825397155378086  0.8638506269067457  1.0000
  H   H106      1.0  0.5720596526763818  0.13328482852810827  0.9046070350142967  1.0000
  H   H107      1.0  0.5368352384387105  0.16507641505809448  0.8010856200858835  1.0000
  H   H108      1.0  0.5588041669716259  0.13053485281986432  0.7601786097986286  1.0000
  C   C163      1.0  0.8724583461080252  0.4303435540426272  0.9024859716929875  1.0000
  C   C164      1.0  0.8580140904941549  0.447821512791694  0.8791584375450213  1.0000
  C   C165      1.0  0.8565531052229165  0.4438749555658876  0.8382385697942746  1.0000
  C   C166      1.0  0.8701715869404518  0.4229206893433007  0.8203583907035421  1.0000
  C   C167      1.0  0.8832931674829563  0.40430395055166296  0.8438271270503741  1.0000
  C   C168      1.0  0.8839671375829469  0.40756980835795187  0.884803316413243  1.0000
  H   H109      1.0  0.8491197918570305  0.46556104398441683  0.8925903355379914  1.0000
  H   H110      1.0  0.8464889881516199  0.45842854817174256  0.8204356319816707  1.0000
  H   H111      1.0  0.8680318706007466  0.9691626570366468  0.8015710360885121  1.0000
  H   H112      1.0  0.8948690678410842  0.3937149016668449  0.9025139395605972  1.0000
  C   C169      1.0  0.7634081908971266  0.29211119749760794  0.07086749632977506  1.0000
  C   C170      1.0  0.727454045272769  0.28417611858887787  0.08105201882071497  1.0000
  C   C171      1.0  0.6964500737367147  0.2567270331456769  0.0609222925693266  1.0000
  C   C172      1.0  0.7013871853532629  0.2367057963171813  0.03106774137005359  1.0000
  C   C173      1.0  0.7373351389241173  0.2446632617864209  0.020970653321263688  1.0000
  C   C174      1.0  0.7682980606240397  0.27252521319997747  0.0405590778872047  1.0000
  H   H113      1.0  0.7235943965660915  0.2993527793811798  0.1044539536170939  1.0000
  H   H114      1.0  0.6687695262705634  0.2506231501897895  0.06893338239080027  1.0000
  H   H115      1.0  0.7412311907120822  0.22905468166457563  0.998070914640942  1.0000
  H   H116      1.0  0.7958737351082438  0.27811158247655454  0.03290645774119372  1.0000
  C   C175      1.0  0.9646269873196552  0.30935337654059564  0.9820884542227126  1.0000
  C   C176      1.0  0.9719911229256076  0.28341895813317275  0.9645089198331029  1.0000
  C   C177      1.0  0.00556383725378895  0.2841461285429645  0.9717734751888193  1.0000
  C   C178      1.0  0.03194964579677162  0.31083953145782595  0.9966403264278785  1.0000
  C   C179      1.0  0.025222121891021576  0.33769853909524705  0.01305340487785589  1.0000
  C   C180      1.0  0.9915469795436358  0.3369393372446141  0.005881380776426859  1.0000
  H   H117      1.0  0.43858323094197804  0.2417764622929453  0.04208125185110923  1.0000
  H   H118      1.0  0.4979419771828791  0.2413977104792437  0.03840683164591672  1.0000
  H   H119      1.0  0.04567360470444903  0.3585513855065825  0.03214965636368716  1.0000
  H   H120      1.0  0.9860452741914603  0.3570546164623688  0.019568056002087664  1.0000
  C   C181      1.0  0.9805870773020424  0.43756113511371286  0.23964946040220836  1.0000
  C   C182      1.0  0.9478689731366989  0.4197200024634844  0.21740636359810042  1.0000
  C   C183      1.0  0.9493895200301149  0.42070699486787777  0.17624025449412667  1.0000
  C   C184      1.0  0.9836626203805119  0.44004467829672034  0.15709711281181932  1.0000
  C   C185      1.0  0.016308752504831325  0.4578344357903609  0.17938579149773506  1.0000
  C   C186      1.0  0.5084804818390013  0.4856477006588555  0.20050890918903946  1.0000
  H   H121      1.0  0.9212156984674383  0.405377611173459  0.23196462179424723  1.0000
  H   H122      1.0  0.9240249842759903  0.40715534510981133  0.15934975230622261  1.0000
  H   H123      1.0  0.5403289912957663  0.5022746468157028  0.1471534072396359  1.0000
  H   H124      1.0  0.4657528709457529  0.9203538682135288  0.26488729176412407  1.0000
  C   C187      1.0  0.5189561558226734  0.0008196573044747524  0.48823838542007714  1.0000
  C   C188      1.0  0.5783754928664939  0.5394863558689331  0.4612235369364749  1.0000
  C   C189      1.0  0.5476971796129351  0.023372798174801906  0.5522895451087177  1.0000
  C   C190      1.0  0.5453780679542878  0.055463439599659846  0.5474797065379914  1.0000
  C   C191      1.0  0.5298189281793784  0.05995434091637609  0.5130639752480866  1.0000
  C   C192      1.0  0.5167403369042667  0.03289445495147894  0.4836718696358752  1.0000
  H   H125      1.0  0.57743008422011  0.5426364266114808  0.42995344828640114  1.0000
  H   H126      1.0  0.5987898750392536  0.5971184244112843  0.47349161816347  1.0000
  H   H127      1.0  0.5272624366252092  0.08430596929403873  0.5093512972377093  1.0000
  H   H128      1.0  0.5037969219349328  0.03639814053167314  0.45787022643438285  1.0000
  C   C193      1.0  0.9911127156639706  0.15216892955130937  0.21372134596133588  1.0000
  C   C194      1.0  0.02340948994095382  0.16952485308018247  0.19066740786736214  1.0000
  C   C195      1.0  0.021194965585789483  0.16819685482274208  0.14959602777007505  1.0000
  C   C196      1.0  0.9866253423738607  0.14873477745513108  0.13130795983157445  1.0000
  C   C197      1.0  0.9543017444647574  0.13184466088896835  0.15435698360984082  1.0000
  C   C198      1.0  0.9564727964667422  0.13378030930615165  0.1953998949906313  1.0000
  H   H129      1.0  0.050330357459699604  0.1837731390696148  0.2046393896362201  1.0000
  H   H130      1.0  0.04632133904045577  0.1811328967116451  0.13220629155069624  1.0000
  H   H131      1.0  0.9274135162260146  0.11664382449820486  0.14046675977861048  1.0000
  H   H132      1.0  0.9314176772799002  0.12022774840515282  0.21288694482379053  1.0000
  C   C199      1.0  0.9722947426872146  0.26528160411196494  0.38890007308362085  1.0000
  C   C200      1.0  0.9766754901656952  0.2984558229792932  0.403891866490846  1.0000
  C   C201      1.0  0.009784980931327736  0.33190672534412835  0.3976495589836136  1.0000
  C   C202      1.0  0.03886173495016276  0.3322912424945356  0.37669961647312417  1.0000
  C   C203      1.0  0.03467512475739021  0.2990814405059079  0.36202313530672636  1.0000
  C   C204      1.0  0.0013150881472703269  0.26565990867278283  0.36777445181921004  1.0000
  H   H133      1.0  0.500710346699288  0.2886141739037915  0.40790952352355725  1.0000
  H   H134      1.0  0.527917817762046  0.3462663644156888  0.36857812724343225  1.0000
  H   H135      1.0  0.05715112621397811  0.29918507364276803  0.34593928220032094  1.0000
  H   H136      1.0  0.9981122921627696  0.24019266447701232  0.35606709120205066  1.0000
  C   C205      1.0  0.7678201692502234  0.06359469339095916  0.322729014189341  1.0000
  C   C206      1.0  0.7329384139365586  0.050678499266040435  0.30521485717966557  1.0000
  C   C207      1.0  0.7008251475385928  0.03834054407550039  0.3283372829241367  1.0000
  C   C208      1.0  0.7035665148471189  0.038756154067496065  0.36907461888863663  1.0000
  C   C209      1.0  0.7383212313377941  0.05154321981153708  0.38653080506813137  1.0000
  C   C210      1.0  0.7702686152708978  0.06373192917377565  0.363458549173934  1.0000
  H   H137      1.0  0.7034742797735062  0.5761350421353033  0.41688221722305374  1.0000
  H   H138      1.0  0.6507877703809523  0.5470548996646818  0.3703434271124991  1.0000
  H   H139      1.0  0.7406234427703223  0.05184793206662919  0.41802079821755755  1.0000
  H   H140      1.0  0.796734470197299  0.07305149272810547  0.3772694201916172  1.0000
  C   C211      1.0  0.9069552944562203  0.04764848565922257  0.46927372531124356  1.0000
  C   C212      1.0  0.9335670908521295  0.0760173440907148  0.49250169517777576  1.0000
  C   C213      1.0  0.9340287517019373  0.07112261296232171  0.5331219502012623  1.0000
  C   C214      1.0  0.9076639958682265  0.03805469984219331  0.5509744461419243  1.0000
  C   C215      1.0  0.8800259278937885  0.01023832559590456  0.5280468602871533  1.0000
  C   C216      1.0  0.8799606613967218  0.014912876807345129  0.48726674144189286  1.0000
  H   H141      1.0  0.9549722882824284  0.10105192889964078  0.47895384821126724  1.0000
  H   H142      1.0  0.9555712566122679  0.09275122066143046  0.5506428619183357  1.0000
  H   H143      1.0  0.8408876325465481  0.466534521245909  0.5559051831880145  1.0000
  H   H144      1.0  0.8594526343748242  0.992713228952511  0.4694587138222253  1.0000
  Fe  Fe73      1.0  0.8875759527513729  0.6187780048247881  0.31828936273378305  1.0000
  S   S145      1.0  0.8804468617400195  0.6634501001811316  0.34647900054587416  1.0000
  S   S146      1.0  0.891545384367237  0.6219047951154233  0.2520524383182241  1.0000
  Fe  Fe74      1.0  0.8826880825789146  0.5815314673069127  0.3975868626563601  1.0000
  S   S147      1.0  0.8779534956734835  0.6249233031880165  0.4310102785689377  1.0000
  S   S148      1.0  0.8726680541450094  0.5292056379562633  0.42834855055358634  1.0000
  Fe  Fe75      1.0  0.8373512283887543  0.6186526962863634  0.384290883095012  1.0000
  S   S149      1.0  0.7821957940600629  0.6094051127979928  0.40646622143986494  1.0000
  Fe  Fe76      1.0  0.9215956337032021  0.6652421478816029  0.38999506322452104  1.0000
  S   S150      1.0  0.9731235269949982  0.7184678073123498  0.4062317388170147  1.0000
  S   S151      1.0  0.8402466116877165  0.5735764263530103  0.3521769354654191  1.0000
  S   S152      1.0  0.9306106026748177  0.6222543849782787  0.36031225244140175  1.0000
  Fe  Fe77      1.0  0.6068070856744265  0.9886539135718998  0.3745415794658594  1.0000
  S   S153      1.0  0.5557173726620769  0.5100591855531924  0.34239434856847767  1.0000
  S   S154      1.0  0.6489079305868823  0.5396971833475177  0.28614858977725743  1.0000
  Fe  Fe78      1.0  0.5483749343697936  0.9083596149134183  0.35955450665588384  1.0000
  S   S155      1.0  0.013366050281479858  0.9646788948168001  0.3445420795611247  1.0000
  S   S156      1.0  0.9673961660998377  0.8655499355783585  0.37969485957727284  1.0000
  Fe  Fe79      1.0  0.5441770696987187  0.9693582130926148  0.3160393470661281  1.0000
  S   S157      1.0  0.5355534403674782  0.9899831850020444  0.257710228769517  1.0000
  Fe  Fe80      1.0  0.5280944752789932  0.9593776677626712  0.4036132559862773  1.0000
  S   S158      1.0  0.49574598630998873  0.9641548076571737  0.4545433982269496  1.0000
  S   S159      1.0  0.5887336437544968  0.9540486345277467  0.3204113790023501  1.0000
  S   S160      1.0  0.5700846353316565  0.9418684862428706  0.4142233352658857  1.0000
  Fe  Fe81      1.0  0.9459837009299915  0.8796091454717959  0.0050200096410881745  1.0000
  S   S161      1.0  0.9538373691842444  0.935378911304991  0.02046171122388407  1.0000
  S   S162      1.0  0.997121019180353  0.8749637655030383  0.9975002619506033  1.0000
  Fe  Fe82      1.0  0.861805071360523  0.8418435093662292  0.01006415352283807  1.0000
  S   S163      1.0  0.8633727984053601  0.8943748631133928  0.026380167077524767  1.0000
  S   S164      1.0  0.8084811040761605  0.788094427267464  0.9998709707467716  1.0000
  Fe  Fe83      1.0  0.9062438294498729  0.9199202511285219  0.9790455294381167  1.0000
  S   S165      1.0  0.9002763235177766  0.9584411466892061  0.9370323419021908  1.0000
  Fe  Fe84      1.0  0.9104912413342395  0.9039627657613326  0.06606160490066099  1.0000
  S   S166      1.0  0.9109074981635743  0.9199767083763032  0.12929226385080955  1.0000
  S   S167      1.0  0.9019044998476481  0.8666484754259136  0.9600491822838351  1.0000
  S   S168      1.0  0.9056205393503491  0.849195221839456  0.05319444344250112  1.0000
  Fe  Fe85      1.0  0.5440337777070828  0.6562839969799785  0.06039008426177553  1.0000
  S   S169      1.0  0.5526828855335992  0.7133928999761946  0.0656822814719642  1.0000
  S   S170      1.0  0.5183556923509411  0.6104197064262533  0.10534046715203126  1.0000
  Fe  Fe86      1.0  0.5715042124733574  0.6684872000878604  0.9750390743945939  1.0000
  S   S171      1.0  0.5813412791053377  0.7264962749288468  0.9732625872634995  1.0000
  S   S172      1.0  0.5914027047814638  0.6419327241595094  0.93052101433106  1.0000
  Fe  Fe87      1.0  0.6060627375161625  0.7315498000367098  0.03287014752522676  1.0000
  S   S173      1.0  0.6588589116556703  0.7828588187886444  0.05068176159111931  1.0000
  Fe  Fe88      1.0  0.5271661419571996  0.7034746499812409  0.006019608517758401  1.0000
  S   S174      1.0  0.9678586204159707  0.7112471471662929  0.0015186019888064894  1.0000
  S   S175      1.0  0.5997477111246895  0.675255042802048  0.03301922768872398  1.0000
  S   S176      1.0  0.0025190709680715795  0.6466008636249971  0.03959323058358244  1.0000
  Fe  Fe89      1.0  0.867333753533694  0.9848701896368205  0.6373385370814123  1.0000
  S   S177      1.0  0.8059682854398037  0.9629114233643773  0.634028892166327  1.0000
  S   S178      1.0  0.9114192833079328  0.03223858870479912  0.6016100617060596  1.0000
  Fe  Fe90      1.0  0.8606510132823999  0.9421483381440481  0.7129843383898338  1.0000
  S   S179      1.0  0.7987424939938298  0.9171214227507554  0.7161178209047855  1.0000
  S   S180      1.0  0.8951250097529371  0.9292444104220788  0.7544326807785787  1.0000
  Fe  Fe91      1.0  0.8006320822776531  0.9083623949050981  0.6515170763654946  1.0000
  S   S181      1.0  0.7576250647508898  0.855813065081493  0.622297300286184  1.0000
  Fe  Fe92      1.0  0.8092167750215632  0.9733648337728351  0.6985581360758716  1.0000
  S   S182      1.0  0.7799113920815063  0.5150297156864723  0.7526183235075088  1.0000
  S   S183      1.0  0.8620771687720363  0.9295680798268877  0.6491752379428698  1.0000
  S   S184      1.0  0.8552082738701628  0.4960703917664358  0.7172649160376182  1.0000
  Fe  Fe93      1.0  0.5971241985332699  0.6078387888649716  0.7085355180839645  1.0000
  S   S185      1.0  0.6497170790421706  0.6104684776429045  0.7287022145419142  1.0000
  S   S186      1.0  0.5535660095120776  0.6060875033749354  0.7502916001488197  1.0000
  Fe  Fe94      1.0  0.6148711793781073  0.6035634646173339  0.6214236255544217  1.0000
  S   S187      1.0  0.6686087795258385  0.6061314189090498  0.6361020720481381  1.0000
  S   S188      1.0  0.6024577981617484  0.6050620229441194  0.5570272866623497  1.0000
  Fe  Fe95      1.0  0.6362720227136336  0.5663758717571324  0.684044289542986  1.0000
  S   S189      1.0  0.6342751475507111  0.5122463015415136  0.6938749661826088  1.0000
  Fe  Fe96      1.0  0.6763973660934087  0.6503207100701954  0.6787456144992987  1.0000
  S   S190      1.0  0.7325256829034639  0.702002562671526  0.6847301962383056  1.0000
  S   S191      1.0  0.5816329052087842  0.5608190971757876  0.6666647762732897  1.0000
  S   S192      1.0  0.624551070576752  0.6505162710925518  0.6612801714275625  1.0000
  C   C217      1.0  0.7501237218291601  0.81373013708692  0.6422796158930976  1.0000
  C   C218      1.0  0.7775698740574178  0.8118467878619895  0.6640954669156237  1.0000
  C   C219      1.0  0.7717081941685785  0.7774958987414734  0.677454746576343  1.0000
  C   C220      1.0  0.7380864563325711  0.7449828588777048  0.6699285610797302  1.0000
  C   C221      1.0  0.7102982530992669  0.747100579428201  0.6490989306686983  1.0000
  C   C222      1.0  0.7165114809652308  0.7812426621983478  0.6348141971916276  1.0000
  H   H145      1.0  0.8036163786862989  0.8367421194892161  0.6699401672131493  1.0000
  H   H146      1.0  0.7933636986745689  0.7761263626143152  0.693559172004613  1.0000
  H   H147      1.0  0.6842178233499095  0.7224377785202856  0.6435055128167102  1.0000
  H   H148      1.0  0.6950816472893661  0.7826133162614941  0.61826003058469  1.0000
  C   C223      1.0  0.7393240335925443  0.5139698614185003  0.7363511838494254  1.0000
  C   C224      1.0  0.7343001365079932  0.5441887698777806  0.7437946054872877  1.0000
  C   C225      1.0  0.7025976744027326  0.5444021508714406  0.7299147019544815  1.0000
  C   C226      1.0  0.6753198934918987  0.5138726238651026  0.7095701334153779  1.0000
  C   C227      1.0  0.6802442440341748  0.4835704071081229  0.7024290279360184  1.0000
  C   C228      1.0  0.7124033265552295  0.48379361906657853  0.7153371847255072  1.0000
  H   H149      1.0  0.7550707816724079  0.5675684153097285  0.7601114194810588  1.0000
  H   H150      1.0  0.6988744642436904  0.5677824628832019  0.735732454449178  1.0000
  H   H151      1.0  0.6923999306260088  0.9771991672077166  0.6269871526123915  1.0000
  H   H152      1.0  0.7390726619982171  0.9676491838084306  0.662238449176606  1.0000
  C   C229      1.0  0.5653507010021205  0.6193403406079868  0.7997521151955918  1.0000
  C   C230      1.0  0.5992856282367487  0.625984531450871  0.8150417878720976  1.0000
  C   C231      1.0  0.6069681349511843  0.6335573144814429  0.8549981386255792  1.0000
  C   C232      1.0  0.5814262694817135  0.6358920376495535  0.8799653278502684  1.0000
  C   C233      1.0  0.5477498695506873  0.6302016047298106  0.8646518696307363  1.0000
  C   C234      1.0  0.5395871865344936  0.6215257908277839  0.8247194210220522  1.0000
  H   H153      1.0  0.6195012223355445  0.624694066975222  0.7963540882631182  1.0000
  H   H154      1.0  0.632997218807504  0.6377478685902781  0.8666291282731111  1.0000
  H   H155      1.0  0.5276583989885436  0.6315339280441816  0.8837049025802686  1.0000
  H   H156      1.0  0.5131594015834638  0.6163036170969656  0.8133037731394482  1.0000
  C   C235      1.0  0.8973183508287595  0.9487547572752352  0.8865170732373828  1.0000
  C   C236      1.0  0.911482882732241  0.9273933271683328  0.870931358223648  1.0000
  C   C237      1.0  0.9103596684986571  0.9214457518393725  0.8304063873599863  1.0000
  C   C238      1.0  0.8946429275461262  0.9363598088109607  0.8051935143985903  1.0000
  C   C239      1.0  0.8801205423591156  0.957442393337522  0.8207787481270726  1.0000
  C   C240      1.0  0.8817608352716634  0.9638668226653782  0.8613186638609202  1.0000
  H   H157      1.0  0.9240982175926898  0.9161063620200502  0.8899131085265765  1.0000
  H   H158      1.0  0.921836358019415  0.9052794010847761  0.8184876964632013  1.0000
  H   H159      1.0  0.8936961817541944  0.3878883880584629  0.8301829702420137  1.0000
  H   H160      1.0  0.8708868107594478  0.9805899362101603  0.8731484212147889  1.0000
  C   C241      1.0  0.7670016387213312  0.7864753116039024  0.014857425771588328  1.0000
  C   C242      1.0  0.7677095369150314  0.8140367937229637  0.03861197618260211  1.0000
  C   C243      1.0  0.7344325866485005  0.8127384651303013  0.04935811006152015  1.0000
  C   C244      1.0  0.7001703081477748  0.7837565294258116  0.03663294847134031  1.0000
  C   C245      1.0  0.6994048261300404  0.7560898533743098  0.012930741846801208  1.0000
  C   C246      1.0  0.7327213080326266  0.7573551375585744  0.00226900713410938  1.0000
  H   H161      1.0  0.7937517655496258  0.8360354856913492  0.04943228331842893  1.0000
  H   H162      1.0  0.735250089592268  0.8340759298542809  0.06793485713923143  1.0000
  H   H163      1.0  0.6731727257966116  0.7337486867535673  0.0026735951045520068  1.0000
  H   H164      1.0  0.7318351236768672  0.7358130392239662  0.9839844747791653  1.0000
  C   C247      1.0  0.9892845941209396  0.8295809467831863  0.9976338172993778  1.0000
  C   C248      1.0  0.9553943220102427  0.8002031731234004  0.9849391234765941  1.0000
  C   C249      1.0  0.9497765562493621  0.7641848358855998  0.9847942224941251  1.0000
  C   C250      1.0  0.977336278676639  0.7571621026132218  0.9987200166280659  1.0000
  C   C251      1.0  0.01133511710451307  0.7865668964752728  0.011103652298438682  1.0000
  C   C252      1.0  0.017420433303039218  0.8227777011222246  0.010148381796007522  1.0000
  H   H165      1.0  0.4513704094503281  0.8104136169677921  0.032452640764424064  1.0000
  H   H166      1.0  0.44891134009315126  0.7504780616991494  0.04247946284521994  1.0000
  H   H167      1.0  0.03294151167043724  0.7814768982600513  0.021428413895010046  1.0000
  H   H168      1.0  0.04380062519802452  0.8454944170666279  0.01964557501740849  1.0000
  C   C253      1.0  0.014765938424114333  0.9624247443404726  0.20544636319668955  1.0000
  C   C254      1.0  0.017668320503878343  0.9616852915835492  0.16459771917857116  1.0000
  C   C255      1.0  0.9856899572654733  0.9462131202545944  0.14103762589513136  1.0000
  C   C256      1.0  0.9506619362188086  0.9325298565838933  0.15814292296001964  1.0000
  C   C257      1.0  0.9477172083015653  0.9326977375491593  0.19903307226712502  1.0000
  C   C258      1.0  0.46937219317601614  0.9291794429618516  0.2347165034101973  1.0000
  H   H169      1.0  0.04475669912667546  0.9733533191492697  0.1510576892524854  1.0000
  H   H170      1.0  0.9882660335249764  0.9461210515888291  0.10957436973303561  1.0000
  H   H171      1.0  0.4159558431449244  0.8845973327856419  0.2166361038448886  1.0000
  H   H172      1.0  0.5324425932724194  0.500563690094001  0.21895489246403985  1.0000
  C   C259      1.0  0.5656196385517835  0.504374637659104  0.47719666746992806  1.0000
  C   C260      1.0  0.5343060484808427  0.9960146764923297  0.522829459685834  1.0000
  C   C261      1.0  0.5904673883126282  0.5703277221330828  0.48596873941409213  1.0000
  C   C262      1.0  0.590968595866716  0.5665081785237612  0.5267419543056377  1.0000
  C   C263      1.0  0.5803228465518271  0.5317837455673571  0.5425454861660197  1.0000
  C   C264      1.0  0.5673891145898454  0.5008160222947962  0.5178687268978649  1.0000
  H   H173      1.0  0.5351569644317519  0.9708194003163753  0.527206794820919  1.0000
  H   H174      1.0  0.5588395116569772  0.019160726274442874  0.5791090663083716  1.0000
  H   H175      1.0  0.5806855845469013  0.5284833227183414  0.5738784562197398  1.0000
  H   H176      1.0  0.5576810360110563  0.4737797604865637  0.5304784579900429  1.0000
  C   C265      1.0  0.9315382076923505  0.6312467745756744  0.22478619125419955  1.0000
  C   C266      1.0  0.9612531676410574  0.629440588531137  0.24156143848471112  1.0000
  C   C267      1.0  0.9924811799220276  0.6369331873257312  0.21872113436963758  1.0000
  C   C268      1.0  0.9944206464482002  0.6466055193334684  0.17910569031408918  1.0000
  C   C269      1.0  0.9649061311748518  0.6488224651186569  0.1624582360369502  1.0000
  C   C270      1.0  0.9335334394605672  0.6409753077916666  0.18518903863199343  1.0000
  H   H177      1.0  0.9599411313742843  0.6217119939560952  0.2719218080572747  1.0000
  H   H178      1.0  0.015178180693665277  0.6350372565713802  0.23173964131259883  1.0000
  H   H179      1.0  0.9660574939456625  0.6561604903804347  0.13195612245997798  1.0000
  H   H180      1.0  0.910618986897912  0.6423305029932953  0.1719666987600477  1.0000
  C   C271      1.0  0.971408473486329  0.7591976397169607  0.39825530285784694  1.0000
  C   C272      1.0  0.004532546703882145  0.7932643585881849  0.39644607987519087  1.0000
  C   C273      1.0  0.0037038450221187347  0.8260556402456848  0.3899080801078621  1.0000
  C   C274      1.0  0.9696501148168445  0.8249099453714833  0.3858865645044752  1.0000
  C   C275      1.0  0.9365886411935014  0.7908238252049985  0.3874831079425142  1.0000
  C   C276      1.0  0.9374529016012169  0.7580235800854107  0.39335099833722903  1.0000
  H   H181      1.0  0.47665664303379357  0.7198940878747581  0.3503241339720012  1.0000
  H   H182      1.0  0.5334623455329608  0.7808117982424388  0.34124984401901354  1.0000
  H   H183      1.0  0.9101867067123306  0.7898129413414151  0.38448612954341577  1.0000
  H   H184      1.0  0.9117696420310092  0.7319813538674164  0.39516744164863227  1.0000
  C   C277      1.0  0.7455312805299285  0.590882842333661  0.37257000404126256  1.0000
  C   C278      1.0  0.7088655323338725  0.5756428490038602  0.3860107862261994  1.0000
  C   C279      1.0  0.6790219031272912  0.5590973326961597  0.35972393284483634  1.0000
  C   C280      1.0  0.6858295694832351  0.5588585164865916  0.3197133980037023  1.0000
  C   C281      1.0  0.7225108205398079  0.5746095272026923  0.3062103398097337  1.0000
  C   C282      1.0  0.752317137761269  0.5900901969629158  0.33265253850006304  1.0000
  H   H185      1.0  0.7308409006514942  0.050543422604055976  0.27369106270659915  1.0000
  H   H186      1.0  0.674108148339698  0.028763487535751864  0.31463557383077817  1.0000
  H   H187      1.0  0.7278763151710538  0.5744483769041305  0.2752785619782061  1.0000
  H   H188      1.0  0.7805288454280603  0.6017738549959392  0.32207249050111125  1.0000
  C   C283      1.0  0.8735600947224689  0.5283145460290886  0.48006715307711206  1.0000
  C   C284      1.0  0.8943978472687013  0.5606258251721824  0.5016457656041267  1.0000
  C   C285      1.0  0.8967914688220975  0.5588909635150612  0.5425323455408079  1.0000
  C   C286      1.0  0.877517990592473  0.5250397404664352  0.5623913723668962  1.0000
  C   C287      1.0  0.8556363825514065  0.4928203671500715  0.5409706812942298  1.0000
  C   C288      1.0  0.8541590105344962  0.49441441229486727  0.4998869796773032  1.0000
  H   H189      1.0  0.9097663153170364  0.586863502759064  0.4867536403349898  1.0000
  H   H190      1.0  0.9140397657187679  0.5839379952331173  0.5587875312059982  1.0000
  H   H191      1.0  0.8594919966077672  0.984679973346838  0.5415274459940725  1.0000
  H   H192      1.0  0.8382253642658035  0.46920067994750386  0.483447015413544  1.0000
  N   N1        1.0  0.3775024083140093  0.5000863711246987  0.2155355215303585  1.0000
  C   C289      1.0  0.40818900777457656  0.49953561816471165  0.23665527940573902  1.0000
  C   C290      1.0  0.34384208654853926  0.483090963150464  0.2403093713557105  1.0000
  C   C291      1.0  0.37018213993304  0.4789929692164135  0.17875518869865645  1.0000
  C   C292      1.0  0.38777400018300234  0.538620654895914  0.2065025816978102  1.0000
  H   H193      1.0  0.4336343016117048  0.5103980935342821  0.21827866765461074  1.0000
  H   H194      1.0  0.40059452336089013  0.47105948133817327  0.245678570954331  1.0000
  H   H195      1.0  0.4157400080459124  0.516389706285089  0.2637755944731942  1.0000
  H   H196      1.0  0.34879516898910795  0.4981737372849321  0.2685093401093389  1.0000
  H   H197      1.0  0.32026009309433345  0.483766544154659  0.2257382764797731  1.0000
  H   H198      1.0  0.3349634323663117  0.45386121959706455  0.24733830294469716  1.0000
  H   H199      1.0  0.3624000074219345  0.44978835060911215  0.18446874695076773  1.0000
  H   H200      1.0  0.39522627757100137  0.4910588561210721  0.15954212256018394  1.0000
  H   H201      1.0  0.3472171259330959  0.4788595096787028  0.16192983013091813  1.0000
  H   H202      1.0  0.3644689150677124  0.5401343327745685  0.19235396659014278  1.0000
  H   H203      1.0  0.4120125200754546  0.5518733441422295  0.18640158103257756  1.0000
  H   H204      1.0  0.39506794715352506  0.5558107264550165  0.2334361449545247  1.0000
  N   N2        1.0  0.2995924371302934  0.3920034733768316  0.8961231221717761  1.0000
  C   C293      1.0  0.27956902718805443  0.357913246693467  0.8726810850778156  1.0000
  C   C294      1.0  0.2747310469807947  0.3921297629044032  0.9270049165950318  1.0000
  C   C295      1.0  0.31159694301625557  0.4244809144082399  0.870488294833056  1.0000
  C   C296      1.0  0.3324365764570068  0.3933170239789916  0.9143817782522521  1.0000
  H   H205      1.0  0.27021872934856805  0.33287771011736594  0.8912158495160825  1.0000
  H   H206      1.0  0.29760606883253515  0.3569691288842905  0.8491054928068047  1.0000
  H   H207      1.0  0.2545555202433517  0.35597966136046016  0.8585644939514281  1.0000
  H   H208      1.0  0.28942947885571907  0.41664460334545705  0.946426786014325  1.0000
  H   H209      1.0  0.25011629219834164  0.3922773903139245  0.9145036175135997  1.0000
  H   H210      1.0  0.26431320311389944  0.367336262408065  0.9460857948250206  1.0000
  H   H211      1.0  0.3272673866986758  0.4507612103480748  0.8870607686995245  1.0000
  H   H212      1.0  0.2875493378098827  0.4246546385033655  0.8564386450746235  1.0000
  H   H213      1.0  0.3300002438248088  0.4249279802757254  0.846559344410443  1.0000
  H   H214      1.0  0.348109972655402  0.418529257856602  0.93260266016941  1.0000
  H   H215      1.0  0.3519456878833938  0.3932522657676299  0.8920816136610084  1.0000
  H   H216      1.0  0.32417312132696435  0.3691797454964059  0.9339950206563957  1.0000
  N   N3        1.0  0.7970041441511357  0.8384351911441923  0.8946267981888455  1.0000
  C   C297      1.0  0.7965284040512868  0.8589205294344786  0.8596179740540908  1.0000
  C   C298      1.0  0.8065525612806153  0.8625002980801494  0.9293747700524593  1.0000
  C   C299      1.0  0.8250048059568136  0.8268466829446365  0.8893161237463767  1.0000
  C   C300      1.0  0.7600077391164317  0.8054360654478555  0.9002945181822357  1.0000
  H   H217      1.0  0.7895519119814775  0.8416604753990773  0.8327580005035741  1.0000
  H   H218      1.0  0.8241015866176638  0.8839473292786816  0.8545536696016245  1.0000
  H   H219      1.0  0.7757955789673753  0.8682263182050022  0.8625589156969962  1.0000
  H   H220      1.0  0.8069614294270909  0.8478539209318539  0.9563446783872264  1.0000
  H   H221      1.0  0.8344488915634305  0.8874691890640276  0.926354573374747  1.0000
  H   H222      1.0  0.7862036443338989  0.8720280544448905  0.9342185207187309  1.0000
  H   H223      1.0  0.8262777238818269  0.8115135378517961  0.9153483197599926  1.0000
  H   H224      1.0  0.8532435777376489  0.8510642940218146  0.8848066084422624  1.0000
  H   H225      1.0  0.8185759539213276  0.8084829185538914  0.8634578634366405  1.0000
  H   H226      1.0  0.7382295135055323  0.8130984623931288  0.9051949710326554  1.0000
  H   H227      1.0  0.7597638449319233  0.7891608153431856  0.9261754709231149  1.0000
  H   H228      1.0  0.7516109788964239  0.7867847303642044  0.8744652183492153  1.0000
  N   N4        1.0  0.9415239403113658  0.319876666749326  0.2932944946866709  1.0000
  C   C301      1.0  0.9767282492235723  0.3471912991742747  0.31190593708186  1.0000
  C   C302      1.0  0.9137570353949706  0.3318807822351342  0.29777734154657715  1.0000
  C   C303      1.0  0.9275838697856144  0.28347368123288813  0.31217099252811087  1.0000
  C   C304      1.0  0.948096310042404  0.3171244439935013  0.2512782345679884  1.0000
  H   H229      1.0  0.9888756079214868  0.3745352656993159  0.2972482010762981  1.0000
  H   H230      1.0  0.9978584480522595  0.33827174821712286  0.31071371666090913  1.0000
  H   H231      1.0  0.9724827921920004  0.35145855844642837  0.3431601008271116  1.0000
  H   H232      1.0  0.9233335369688839  0.3591629266250564  0.28363851294081116  1.0000
  H   H233      1.0  0.8867414732311073  0.3118344087963721  0.28426366327864383  1.0000
  H   H234      1.0  0.9085250725135238  0.3348166353521956  0.3291334156066887  1.0000
  H   H235      1.0  0.901217024193197  0.26197212566363204  0.2987199979229567  1.0000
  H   H236      1.0  0.9220317451057138  0.284497771301076  0.34387779939600965  1.0000
  H   H237      1.0  0.948023375670531  0.2737008901495499  0.3099443291901625  1.0000
  H   H238      1.0  0.9221115960813796  0.29675609650106965  0.23624119106266223  1.0000
  H   H239      1.0  0.9690923907315361  0.3083391527680253  0.24686382961090325  1.0000
  H   H240      1.0  0.9584950003169176  0.34422003410639096  0.23624986285670307  1.0000
  N   N5        1.0  0.18236401245737902  0.5404554650385738  0.5977528989719272  1.0000
  C   C305      1.0  0.21438766201078763  0.5663076453970484  0.6218780296072531  1.0000
  C   C306      1.0  0.19144772755147738  0.5147691495713523  0.5773796778211716  1.0000
  C   C307      1.0  0.1739844999949647  0.5614315163226599  0.5687112286659517  1.0000
  C   C308      1.0  0.14958296046649266  0.5191842578469481  0.6230748011791111  1.0000
  H   H241      1.0  0.2223857845210595  0.5512386029688253  0.642946401877815  1.0000
  H   H242      1.0  0.2080748838463903  0.5850563310972913  0.6392698598638482  1.0000
  H   H243      1.0  0.23926902055956367  0.5838450359418494  0.6036484504340806  1.0000
  H   H244      1.0  0.21604343387803057  0.5298530221671471  0.557942731527505  1.0000
  H   H245      1.0  0.19804092216821936  0.4986097332481597  0.5986082086369646  1.0000
  H   H246      1.0  0.16779715870791304  0.4946810529571296  0.5591033593411641  1.0000
  H   H247      1.0  0.15024272567917965  0.5427073011416881  0.5496703911910105  1.0000
  H   H248      1.0  0.19821655436589303  0.5783069715251012  0.5493918449520186  1.0000
  H   H249      1.0  0.16628283294700225  0.5805043932588693  0.5832121282652143  1.0000
  H   H250      1.0  0.154064296822761  0.501411856089316  0.6438886303948509  1.0000
  H   H251      1.0  0.12435798963088916  0.5008732215104762  0.6056832896594175  1.0000
  H   H252      1.0  0.14311805521818133  0.5377180534734597  0.6406114560690572  1.0000
  N   N6        1.0  0.3624299290011033  0.7340721061505784  0.963980822683621  1.0000
  C   C309      1.0  0.3848252018686367  0.7174620881727842  0.9511041669649654  1.0000
  C   C310      1.0  0.3792581829876915  0.7721928714721892  0.9488439902428961  1.0000
  C   C311      1.0  0.3613311916271437  0.7346876784351389  0.007157332872096189  1.0000
  C   C312      1.0  0.3241723211229013  0.7120050051141587  0.9488188998173605  1.0000
  H   H253      1.0  0.37380803215063396  0.6891427320526583  0.9631138105921915  1.0000
  H   H254      1.0  0.41414660429697003  0.7341228299192941  0.960917778927952  1.0000
  H   H255      1.0  0.3853831715932299  0.7156374138956432  0.918688430267027  1.0000
  H   H256      1.0  0.3625781438178363  0.7851655515273062  0.9574657638122366  1.0000
  H   H257      1.0  0.4078686978959469  0.789997401113299  0.960325397579018  1.0000
  H   H258      1.0  0.3810939592661029  0.7729537048942909  0.9163918426916805  1.0000
  H   H259      1.0  0.34458560616756917  0.747030505826756  0.017810624396302766  1.0000
  H   H260      1.0  0.38958211566275797  0.7513748874675515  0.019682569159958252  1.0000
  H   H261      1.0  0.3489162049579279  0.7064226828875034  0.0196691265200033  1.0000
  H   H262      1.0  0.32379379923202445  0.7112690103971918  0.9163017212216239  1.0000
  H   H263      1.0  0.3065441569216182  0.7237763839789179  0.9583183817058105  1.0000
  H   H264      1.0  0.310632884271658  0.6830237871836803  0.9595363817789178  1.0000
  N   N7        1.0  0.2765237706884943  0.20580525384788037  0.5932170550648577  1.0000
  C   C313      1.0  0.25753491996886196  0.2061048738232715  0.6295960895254514  1.0000
  C   C314      1.0  0.3084651612014999  0.20092828564198595  0.602916513999613  1.0000
  C   C315      1.0  0.28966905263585174  0.24119589066692093  0.5724423077984782  1.0000
  C   C316      1.0  0.2502901709574276  0.17498402523096993  0.5681210008187633  1.0000
  H   H265      1.0  0.27638939457450473  0.22928676071132428  0.6490304779678285  1.0000
  H   H266      1.0  0.2477698347382699  0.18013458249681746  0.6464380342832703  1.0000
  H   H267      1.0  0.2328188701212293  0.20901790048761443  0.6233631760242314  1.0000
  H   H268      1.0  0.32355267504636837  0.2005774195049196  0.5761749684650914  1.0000
  H   H269      1.0  0.32864805594213  0.22350211608158776  0.622168948982716  1.0000
  H   H270      1.0  0.299275496301716  0.17438518116856766  0.6186804828809735  1.0000
  H   H271      1.0  0.304105945306348  0.2420712964022118  0.5446987242048984  1.0000
  H   H272      1.0  0.30942947677134963  0.2650330397836189  0.5907022545144892  1.0000
  H   H273      1.0  0.266119814801223  0.24572346086492863  0.565105908007885  1.0000
  H   H274      1.0  0.2636414877942807  0.17384938021370283  0.5403633497801119  1.0000
  H   H275      1.0  0.2256576338021375  0.17759945497985635  0.5605178488966261  1.0000
  H   H276      1.0  0.23980507043935256  0.14788460797074868  0.5831101843903548  1.0000
  N   N8        1.0  0.1692654604084915  0.4223646559815326  0.29006372193307783  1.0000
  C   C317      1.0  0.16899726797622713  0.4471557589735531  0.3206408949960455  1.0000
  C   C318      1.0  0.13343605608532044  0.4049065104932301  0.26902760527254876  1.0000
  C   C319      1.0  0.17474760768976746  0.39348575132530667  0.30850208448398264  1.0000
  C   C320      1.0  0.19977249618124715  0.4440244367966168  0.26221165687510556  1.0000
  H   H277      1.0  0.19636312984960522  0.46267884866401104  0.33550684166058553  1.0000
  H   H278      1.0  0.14803873589879019  0.4315491511059827  0.34359778977582567  1.0000
  H   H279      1.0  0.1620681035042015  0.46752834010570204  0.3082258690838118  1.0000
  H   H280      1.0  0.10975566678407488  0.38874236615795116  0.2893161446849172  1.0000
  H   H281      1.0  0.12848159342547713  0.4259847401546603  0.2546832973993176  1.0000
  H   H282      1.0  0.13248041225621676  0.38572738374685106  0.245922350554612  1.0000
  H   H283      1.0  0.15189930570881668  0.37670726608827293  0.32958752612398534  1.0000
  H   H284      1.0  0.20132465806003982  0.4057645405537792  0.32503935886132007  1.0000
  H   H285      1.0  0.17517658573221462  0.374199885623244  0.28637132437777185  1.0000
  H   H286      1.0  0.20115385580029443  0.4262193274770406  0.23887270497596425  1.0000
  H   H287      1.0  0.22721850918502912  0.45835579480116967  0.27716735162989514  1.0000
  H   H288      1.0  0.19595147901392804  0.4657195004771533  0.24766024274240733  1.0000
  N   N9        1.0  0.4847597601061748  0.062307551952734797  0.6852272931708812  1.0000
  C   C321      1.0  0.5096925957910264  0.10068103254956282  0.6723175484235864  1.0000
  C   C322      1.0  0.4481417352383454  0.057689746618399845  0.6954261294708911  1.0000
  C   C323      1.0  0.5004910491642823  0.053983274578512576  0.7199055149312271  1.0000
  C   C324      1.0  0.48049538881679144  0.0367837745591223  0.6531661182446659  1.0000
  H   H289      1.0  0.5145211988027694  0.12080072531219203  0.6960148119391465  1.0000
  H   H290      1.0  0.497949471843832  0.10779307588257563  0.6466767310456589  1.0000
  H   H291      1.0  0.5370566300687237  0.10473522153606209  0.6628481778816723  1.0000
  H   H292      1.0  0.42872457178366263  0.029060679778306522  0.7053096449803097  1.0000
  H   H293      1.0  0.4502457187436998  0.07643213366840156  0.7196094799639753  1.0000
  H   H294      1.0  0.4352018090262428  0.06353220858903702  0.6699969616874071  1.0000
  H   H295      1.0  0.4826155683149859  0.024823214087592877  0.729579180780602  1.0000
  H   H296      1.0  0.5026980265161202  0.07168034469439023  0.745188568771891  1.0000
  H   H297      1.0  0.5287155830983847  0.05833558659040101  0.7139319715509294  1.0000
  H   H298      1.0  0.46893353584710284  0.04255255405469492  0.6264423750435768  1.0000
  H   H299      1.0  0.46161680999451843  0.007585686367359708  0.661729110862724  1.0000
  H   H300      1.0  0.5076882538088637  0.03955761367492291  0.6448484064324466  1.0000
  N   N10       1.0  0.5839977908311785  0.5942287202541306  0.25022892146031595  1.0000
  C   C325      1.0  0.5975141268712924  0.5749491699511029  0.2245827315556872  1.0000
  C   C326      1.0  0.5443749122596337  0.5692790599689681  0.2595976806982169  1.0000
  C   C327      1.0  0.5881355415917074  0.6273129154623528  0.23001776773016086  1.0000
  C   C328      1.0  0.6059341039354449  0.6054139759940276  0.2867064337063767  1.0000
  H   H301      1.0  0.6274946312371029  0.5927948445337295  0.21746635216492777  1.0000
  H   H302      1.0  0.5818390977835005  0.5663790944526682  0.19657233238386126  1.0000
  H   H303      1.0  0.5946043327277399  0.5497249220774746  0.2389514526128296  1.0000
  H   H304      1.0  0.5331071011197519  0.5831470896199467  0.2784738703407  1.0000
  H   H305      1.0  0.5271394068772003  0.5599068747900128  0.23266006208245532  1.0000
  H   H306      1.0  0.5400132339106837  0.5441113538500068  0.27518349501960787  1.0000
  H   H307      1.0  0.5780812788873256  0.6424475840365242  0.24861678066302617  1.0000
  H   H308      1.0  0.5717778739297956  0.619800160193951  0.20241977557777127  1.0000
  H   H309      1.0  0.617612471157331  0.6468534375851872  0.22233032530823374  1.0000
  H   H310      1.0  0.5958813811917875  0.6192143931860654  0.3072270323686135  1.0000
  H   H311      1.0  0.6358800442188308  0.6247868073849  0.28074244383601854  1.0000
  H   H312      1.0  0.6043493802759045  0.5811913219071317  0.30204813779028883  1.0000
  N   N11       1.0  0.6828262414934618  0.21240811305498009  0.7892318479966396  1.0000
  C   C329      1.0  0.6669808261912539  0.2147942167923936  0.8271105271953979  1.0000
  C   C330      1.0  0.6854019102921284  0.17841379971414775  0.7881562348396488  1.0000
  C   C331      1.0  0.7203286922911344  0.24487932223118186  0.7842794213403913  1.0000
  C   C332      1.0  0.6585868264966971  0.2114730229287927  0.7571877362455064  1.0000
  H   H313      1.0  0.6646310138806408  0.24012638055650293  0.8288725340741558  1.0000
  H   H314      1.0  0.6843845639979982  0.21529268900565326  0.8520609923981494  1.0000
  H   H315      1.0  0.6386352614977606  0.19069754875377715  0.831596219259824  1.0000
  H   H316      1.0  0.6575682486824572  0.1532246301252042  0.7908877063341323  1.0000
  H   H317      1.0  0.6978772496556827  0.17619046801042362  0.7601577968469605  1.0000
  H   H318      1.0  0.7030386355127558  0.17783816121341844  0.812251835980339  1.0000
  H   H319      1.0  0.7194830058292871  0.2710678835826818  0.7834764730262035  1.0000
  H   H320      1.0  0.7333033685238066  0.24326178950292282  0.7563787340885526  1.0000
  H   H321      1.0  0.7392556666117761  0.24695467843546162  0.8083301496334563  1.0000
  H   H322      1.0  0.6299132730680361  0.18773485606096252  0.760325034628285  1.0000
  H   H323      1.0  0.6692130102240846  0.2086340857476809  0.728345118496596  1.0000
  H   H324      1.0  0.6569123280967031  0.2372091152616394  0.7561614410841518  1.0000
  N   N12       1.0  0.16106022896952077  0.9977508236872954  0.2206717727193734  1.0000
  C   C333      1.0  0.14516248429993095  0.9876521890568316  0.18095566783895678  1.0000
  C   C334      1.0  0.19903633215524702  0.003146262066437089  0.22079358317367456  1.0000
  C   C335      1.0  0.13747453178058056  0.967822933064927  0.24815110718273664  1.0000
  C   C336      1.0  0.16242508847081205  0.032341132674104274  0.23282526433119907  1.0000
  H   H325      1.0  0.14338267062526744  0.9614915916214183  0.17090297546760336  1.0000
  H   H326      1.0  0.16223285534539994  0.00954560118831052  0.15933976848539388  1.0000
  H   H327      1.0  0.11648431019224804  0.9835224321280064  0.18009254707951688  1.0000
  H   H328      1.0  0.21793300275481362  0.026102771041661175  0.20107070597855747  1.0000
  H   H329      1.0  0.21141173500335106  0.010083993219351932  0.25056553288715305  1.0000
  H   H330      1.0  0.1991827052320597  0.9777766667244439  0.21124389085988834  1.0000
  H   H331      1.0  0.14769816194273058  0.9749520462051319  0.27867230205274807  1.0000
  H   H332      1.0  0.13673113035098594  0.9415654550015072  0.24070633565762561  1.0000
  H   H333      1.0  0.10837583716494381  0.9622457579069045  0.24787464272430676  1.0000
  H   H334      1.0  0.17379647490361796  0.04057936062161722  0.2628098375262441  1.0000
  H   H335      1.0  0.13426390772645247  0.029313254733550356  0.23295239788673308  1.0000
  H   H336      1.0  0.18023057558105052  0.05559824931998707  0.2129052543658137  1.0000
  N   N13       1.0  0.27374572776648254  0.029780327493297287  0.4494288065712975  1.0000
  C   C337      1.0  0.2647353125390316  0.052393234570736746  0.42336559252240796  1.0000
  C   C338      1.0  0.31001563728077536  0.05352887285455221  0.46836939424980445  1.0000
  C   C339      1.0  0.27555338416625097  0.0008719576313287458  0.42625368470616715  1.0000
  C   C340      1.0  0.24458821622338672  0.012225839478741118  0.47967576382244403  1.0000
  H   H337      1.0  0.23707312755726592  0.03542310969388063  0.4094796450072121  1.0000
  H   H338      1.0  0.28550311007507534  0.06512737928881696  0.3993723113926517  1.0000
  H   H339      1.0  0.2640334461031048  0.0751053934017547  0.43954668802894553  1.0000
  H   H340      1.0  0.31030418133050175  0.07664040632771019  0.48476647914312043  1.0000
  H   H341      1.0  0.31695721262275905  0.03763391434225216  0.4894631910834225  1.0000
  H   H342      1.0  0.3329205894553979  0.06573129354251317  0.44650042703517073  1.0000
  H   H343      1.0  0.2842712952496036  0.9845029005498135  0.44449592296431484  1.0000
  H   H344      1.0  0.2960347195648623  0.013066644909933478  0.40192237699403094  1.0000
  H   H345      1.0  0.24814294217470442  0.9813824852839907  0.41307337763610985  1.0000
  H   H346      1.0  0.2503447936578958  0.9946555185507557  0.4996400305933942  1.0000
  H   H347      1.0  0.21677766349114172  0.994263736705098  0.46630499384125723  1.0000
  H   H348      1.0  0.2425813203575068  0.0332206719505459  0.4979116574221957  1.0000
  N   N14       1.0  0.15836767371846366  0.7355415277489028  0.9118753427753046  1.0000
  C   C341      1.0  0.14864137306225508  0.7152285320227763  0.8743927190623642  1.0000
  C   C342      1.0  0.19902836539336263  0.7546750294821526  0.9175780561330873  1.0000
  C   C343      1.0  0.13982042870272174  0.7092000375690677  0.9441597124058844  1.0000
  C   C344      1.0  0.14576333040953443  0.7629465324192897  0.9116256079972067  1.0000
  H   H349      1.0  0.11810909263505227  0.7007014410696399  0.8691447042908829  1.0000
  H   H350      1.0  0.15710405108279102  0.6938098177267733  0.8740463656550325  1.0000
  H   H351      1.0  0.16236996013010838  0.7340613677947474  0.8492309538653035  1.0000
  H   H352      1.0  0.2071773345926544  0.7709025585239384  0.9451591028175841  1.0000
  H   H353      1.0  0.20941128736516434  0.7348078350087472  0.9193745353759875  1.0000
  H   H354      1.0  0.21404632933810083  0.7743139815640657  0.8933704454662651  1.0000
  H   H355      1.0  0.14953499695877587  0.6888510336234893  0.94673408909714  1.0000
  H   H356      1.0  0.10935874587060194  0.6934196458189  0.9397888861114019  1.0000
  H   H357      1.0  0.14454320728349512  0.7235922848337402  0.9726235333285929  1.0000
  H   H358      1.0  0.11513244673367715  0.7494288401899967  0.9076400649288516  1.0000
  H   H359      1.0  0.15927295754044327  0.7835355264250824  0.8878287273233174  1.0000
  H   H360      1.0  0.15241282169804493  0.7784502217988299  0.9397967831046001  1.0000
  N   N15       1.0  0.6564376366211353  0.0688498174693662  0.5030874087363317  1.0000
  C   C345      1.0  0.6254756265959805  0.04766717206142296  0.47567893281875395  1.0000
  C   C346      1.0  0.6493453069179609  0.04830015696727747  0.5402124263026672  1.0000
  C   C347      1.0  0.6595208900655886  0.1050763452813028  0.5107755742023268  1.0000
  C   C348      1.0  0.6914232671322452  0.07436071516382205  0.4856660985257428  1.0000
  H   H361      1.0  0.6310570772315152  0.061216791394801906  0.44650021643282833  1.0000
  H   H362      1.0  0.5991605183681649  0.045107261742303756  0.486642195564599  1.0000
  H   H363      1.0  0.620790882172069  0.019304223082919084  0.47092205664813536  1.0000
  H   H364      1.0  0.6236809673482631  0.04432024660067638  0.5547785489181906  1.0000
  H   H365      1.0  0.6460491317063233  0.020463685144523194  0.5356132774689795  1.0000
  H   H366      1.0  0.6725474621168497  0.06316123478731403  0.5612881704107646  1.0000
  H   H367      1.0  0.6828321477572928  0.12200777253497615  0.5310786300412083  1.0000
  H   H368      1.0  0.6336440517770597  0.1018248851404172  0.5244273843076445  1.0000
  H   H369      1.0  0.664440586229404  0.12113005513137884  0.48330799147927817  1.0000
  H   H370      1.0  0.68996121666994  0.04745300624579329  0.4798607507187491  1.0000
  H   H371      1.0  0.7155202714530846  0.09068134050810313  0.5052492858195435  1.0000
  H   H372      1.0  0.697326883440399  0.08907837218936354  0.4571199783016109  1.0000
  N   N16       1.0  0.5104622872180297  0.002711243620023396  0.8859901339737863  1.0000
  C   C349      1.0  0.48508961849363846  0.9642547852220984  0.8984867444359448  1.0000
  C   C350      1.0  0.5297036226847557  0.02540710316271188  0.9205864261463327  1.0000
  C   C351      1.0  0.4890034059867348  0.017788308256739604  0.8668359239478429  1.0000
  C   C352      1.0  0.5379954566318632  0.0033702747122101866  0.8581157199731578  1.0000
  H   H373      1.0  0.46433545719125163  0.9627972588661591  0.9200571690876398  1.0000
  H   H374      1.0  0.5003804761959392  0.951798632556189  0.9126136735190011  1.0000
  H   H375      1.0  0.46944744466522975  0.9464419847846035  0.8732746292085413  1.0000
  H   H376      1.0  0.5464714008608085  0.015087172645721396  0.9356314504742003  1.0000
  H   H377      1.0  0.5487240402417266  0.0547285789959473  0.9124153650096266  1.0000
  H   H378      1.0  0.5094803721726255  0.025112943111459163  0.9422298624593493  1.0000
  H   H379      1.0  0.4731208684309959  0.0007781349780102698  0.8412478987720028  1.0000
  H   H380      1.0  0.5074081091492203  0.046443272036151124  0.8561139224929291  1.0000
  H   H381      1.0  0.4686718146226759  0.018658090561545562  0.887376605330627  1.0000
  H   H382      1.0  0.5579244994466527  0.031963595382967176  0.8484199098648003  1.0000
  H   H383      1.0  0.5243170801801481  0.9870881881133882  0.8313487931700911  1.0000
  H   H384      1.0  0.5544416163534158  0.9917817608407967  0.8713109986411033  1.0000
  N   N17       1.0  0.8357713079177804  0.08131925768732923  0.6204193140107942  1.0000
  C   C353      1.0  0.8490569301266581  0.12134829625498623  0.6207242655557802  1.0000
  C   C354      1.0  0.8544385069882879  0.07272407900687725  0.5887015435567434  1.0000
  C   C355      1.0  0.7952031026320122  0.06069203688593875  0.6139997286448687  1.0000
  C   C356      1.0  0.8443550464249511  0.0704080676532922  0.6583402950138847  1.0000
  H   H385      1.0  0.8431422389908831  0.13058685882446877  0.5924875600768184  1.0000
  H   H386      1.0  0.8795803362152513  0.1376883147992891  0.6256837923425771  1.0000
  H   H387      1.0  0.835334363222206  0.12862193443761066  0.644337477018215  1.0000
  H   H388      1.0  0.8450116061539888  0.04267671949615729  0.5878141266025492  1.0000
  H   H389      1.0  0.8487477966666573  0.08055162215900544  0.559530837748657  1.0000
  H   H390      1.0  0.8851205074048721  0.08754836505388061  0.5927682068995385  1.0000
  H   H391      1.0  0.7843625539816648  0.030371225476273522  0.6134696681300996  1.0000
  H   H392      1.0  0.787537333112769  0.0683049138092596  0.5858088202079468  1.0000
  H   H393      1.0  0.7801513111595314  0.06613535917733225  0.6377053929331383  1.0000
  H   H394      1.0  0.834241938401636  0.040292252308842064  0.6593155775046695  1.0000
  H   H395      1.0  0.8307623036666265  0.07645576506966599  0.683107401298195  1.0000
  H   H396      1.0  0.8747600229512732  0.08485012494918727  0.6640077801438016  1.0000
  N   N18       1.0  0.9701887410728759  0.03992414766239795  0.1352717026246679  1.0000
  C   C357      1.0  0.979473825200679  0.021071948108153184  0.10445945973318428  1.0000
  C   C358      1.0  0.9596252333546121  0.01778411644947425  0.17153202581533045  1.0000
  C   C359      1.0  0.9387364221321007  0.044274811450998416  0.1221386177156007  1.0000
  C   C360      1.0  0.0028709261604982217  0.0765374202583329  0.14301291805022104  1.0000
  H   H397      1.0  0.9873004411842707  0.037059815215243874  0.07669221009538918  1.0000
  H   H398      1.0  0.9554991346137851  0.9931787715611473  0.09809398517652179  1.0000
  H   H399      1.0  0.0031075343137279  0.017295021734993993  0.11333505359072228  1.0000
  H   H400      1.0  0.9535169870717359  0.03180666049720088  0.19567513432832162  1.0000
  H   H401      1.0  0.934239642409259  0.9904255818888417  0.16712710685853108  1.0000
  H   H402      1.0  0.982160091711338  0.012722874236728797  0.18158387276018273  1.0000
  H   H403      1.0  0.9300897688848876  0.057160779069147315  0.14522485278627917  1.0000
  H   H404      1.0  0.9140689555878007  0.017101366511555402  0.11483894922871712  1.0000
  H   H405      1.0  0.9461003824268767  0.0620646478336509  0.09565193543577159  1.0000
  H   H406      1.0  0.027218392634243527  0.07416675182675293  0.15240142100408738  1.0000
  H   H407      1.0  0.997013404507531  0.09125382200454119  0.16659697638990312  1.0000
  H   H408      1.0  0.011231703267279958  0.09440230249465639  0.11650780663118504  1.0000
  N   N19       1.0  0.9694199848072893  0.517023344806834  0.6747801081127149  1.0000
  C   C361      1.0  0.9972273546821102  0.5122215722359958  0.6969055579152375  1.0000
  C   C362      1.0  0.9832507839264972  0.5297785961727317  0.634706926746408  1.0000
  C   C363      1.0  0.9628234360172466  0.5446617532182929  0.6945980481615702  1.0000
  C   C364      1.0  0.9342851637948966  0.48138135899382833  0.6728755809959193  1.0000
  H   H409      1.0  0.9874552607542741  0.5021989171411275  0.727109565881756  1.0000
  H   H410      1.0  0.02400163612531303  0.5386537608739719  0.6991889095592739  1.0000
  H   H411      1.0  0.003344426508227416  0.49201046295277023  0.6823346805745417  1.0000
  H   H412      1.0  0.9884224144414975  0.5095143214478588  0.6188288446743605  1.0000
  H   H413      1.0  0.9629527329635655  0.5338617878709956  0.6172722911315539  1.0000
  H   H414      1.0  0.009994667421824532  0.5564187425416275  0.6349848064924156  1.0000
  H   H415      1.0  0.9421591904639545  0.5491318102586242  0.6783888057425881  1.0000
  H   H416      1.0  0.9889051656921649  0.5718273055984505  0.6969509243137222  1.0000
  H   H417      1.0  0.9519101319495258  0.5357105756706748  0.7247505221455885  1.0000
  H   H418      1.0  0.9129230019937415  0.4839600412491476  0.6558401837030505  1.0000
  H   H419      1.0  0.9226015550946408  0.47109092298609845  0.7025507595565836  1.0000
  H   H420      1.0  0.9382846707875127  0.45972525306742446  0.6585264477164726  1.0000
  N   N20       1.0  0.5354714598255343  0.49833518131173016  0.7823476838897025  1.0000
  C   C365      1.0  0.5469194851886314  0.48108639288593713  0.751676596403197  1.0000
  C   C366      1.0  0.5680969177502885  0.5332936291260976  0.7949468873352189  1.0000
  C   C367      1.0  0.5200854434155961  0.4731094447235267  0.8161747307286427  1.0000
  C   C368      1.0  0.5068866112746689  0.5060112235190248  0.7666145537076876  1.0000
  H   H421      1.0  0.5231035931762646  0.4546243646352373  0.7412940365958808  1.0000
  H   H422      1.0  0.5688317892704946  0.47530478585101743  0.762320789652445  1.0000
  H   H423      1.0  0.5588282109535021  0.49947949560501204  0.7257882133388148  1.0000
  H   H424      1.0  0.5606611955884376  0.5469068570900417  0.8184213305843825  1.0000
  H   H425      1.0  0.5906722823098883  0.5288358177427147  0.8061765726524358  1.0000
  H   H426      1.0  0.5798764806374572  0.5531883054530261  0.7702494145815781  1.0000
  H   H427      1.0  0.5106646056861803  0.4850699873370062  0.8396299152893495  1.0000
  H   H428      1.0  0.541025743180666  0.4671052735675836  0.8291717075445522  1.0000
  H   H429      1.0  0.49560077777169587  0.4462587395217381  0.807740625433938  1.0000
  H   H430      1.0  0.49835680577520025  0.5199466232467941  0.7887197401033208  1.0000
  H   H431      1.0  0.48148562072224466  0.4801983191686847  0.7575223045571863  1.0000
  H   H432      1.0  0.5174277371693649  0.5245578794592956  0.7406771470089197  1.0000
  N   N21       1.0  0.48588230370135477  0.2473650984623562  0.9086773449939299  1.0000
  C   C369      1.0  0.47705437124280137  0.27669154114999694  0.9179158086467895  1.0000
  C   C370      1.0  0.5245797172168831  0.2596514656004406  0.9202327415951814  1.0000
  C   C371      1.0  0.4817001822978104  0.23958041015406553  0.8662872217097058  1.0000
  C   C372      1.0  0.4602671185280154  0.21343855982868587  0.9303433685582413  1.0000
  H   H433      1.0  0.4479110772310686  0.2682984034542741  0.9100554005512533  1.0000
  H   H434      1.0  0.49577073190087323  0.30276261980762426  0.902121326314753  1.0000
  H   H435      1.0  0.4802697874057666  0.28321526116908835  0.9497354950325887  1.0000
  H   H436      1.0  0.532428744383798  0.23841431410966682  0.9133521114556838  1.0000
  H   H437      1.0  0.5447047022517274  0.28557192405124787  0.9050842252123082  1.0000
  H   H438      1.0  0.5285919333742248  0.2650765000069894  0.9521120544496311  1.0000
  H   H439      1.0  0.48835647410290006  0.21755269118960982  0.8586893156532637  1.0000
  H   H440      1.0  0.5006965069474816  0.2645419665439044  0.849002694075304  1.0000
  H   H441      1.0  0.45279703592497283  0.23006356284505966  0.8564418124459001  1.0000
  H   H442      1.0  0.4624756212297518  0.2183755194497879  0.962480764700389  1.0000
  H   H443      1.0  0.46640454018002203  0.19079923532606594  0.9243840945365484  1.0000
  H   H444      1.0  0.43082069178362764  0.20323402294395648  0.922145797555055  1.0000
  N   N22       1.0  0.4611355849307353  0.6076396451671652  0.7109398023810749  1.0000
  C   C373      1.0  0.4488308501815434  0.5793744635139679  0.7420317697379534  1.0000
  C   C374      1.0  0.47754048701417934  0.5972280117842811  0.6784077239684764  1.0000
  C   C375      1.0  0.4891288850223087  0.6438753410078081  0.7268112850303425  1.0000
  C   C376      1.0  0.4289379940429975  0.6100391654934239  0.6964446447409206  1.0000
  H   H445      1.0  0.4723756556335533  0.5766471354202491  0.7535191834540064  1.0000
  H   H446      1.0  0.42746766523308566  0.551746550497385  0.7310917977690397  1.0000
  H   H447      1.0  0.43624455405223  0.5861494366578814  0.7671656802131758  1.0000
  H   H448      1.0  0.4859803440067217  0.617190670079365  0.6537677924583316  1.0000
  H   H449      1.0  0.5025522068959486  0.5961560343203341  0.6879910182427379  1.0000
  H   H450      1.0  0.4573891972389822  0.5695290851785685  0.6665155571752093  1.0000
  H   H451      1.0  0.4991703873684438  0.6657529638104578  0.7040083338014872  1.0000
  H   H452      1.0  0.5138305385182211  0.6431454689103334  0.7381116995263542  1.0000
  H   H453      1.0  0.47763244707711283  0.6524781948892361  0.7514421651547323  1.0000
  H   H454      1.0  0.43712334867447455  0.6311070721131347  0.6729536333630078  1.0000
  H   H455      1.0  0.41530556953384523  0.6170785214888628  0.7202916600819868  1.0000
  H   H456      1.0  0.40761244882777886  0.5833744349154146  0.6837119147836961  1.0000
  N   N23       1.0  0.980338420877579  0.7396860444218462  0.27257832245134556  1.0000
  C   C377      1.0  0.9439924959666883  0.729287409349028  0.25485457061044203  1.0000
  C   C378      1.0  0.9751432126942127  0.7127213710377138  0.3032699589819513  1.0000
  C   C379      1.0  0.9962916327505043  0.7768356360430052  0.2902006884993092  1.0000
  C   C380      1.0  0.005704170881281501  0.7396917730535344  0.2422272879885106  1.0000
  H   H457      1.0  0.9466556614340147  0.7493247520474703  0.2319496907891985  1.0000
  H   H458      1.0  0.9239022933951229  0.7280976602605849  0.2772214459201009  1.0000
  H   H459      1.0  0.9313216033963216  0.7015137249319875  0.24099294964758533  1.0000
  H   H460      1.0  0.001839010280266562  0.719454024335465  0.31756529219831825  1.0000
  H   H461      1.0  0.9564381382585949  0.7123795160763792  0.3266053193175774  1.0000
  H   H462      1.0  0.9624979878260879  0.6842357609227567  0.2913918261887836  1.0000
  H   H463      1.0  0.02310545054023061  0.7850505853999121  0.3051247756240801  1.0000
  H   H464      1.0  0.9773027524026255  0.7777657902183179  0.31265489962056714  1.0000
  H   H465      1.0  0.0013784612587852685  0.7981952134273224  0.26788149981648124  1.0000
  H   H466      1.0  0.03330591942579164  0.74716395999  0.2546872918353105  1.0000
  H   H467      1.0  0.01022962119406623  0.759631756868716  0.21841959260615806  1.0000
  H   H468      1.0  0.994343946530164  0.7119367702218897  0.22852360310734016  1.0000
  N   N24       1.0  0.948887088161084  0.9681897197016696  0.4715141182662518  1.0000
  C   C381      1.0  0.9089457505229056  0.9531992938417659  0.46365471820869186  1.0000
  C   C382      1.0  0.9534902761795728  0.9455969745268291  0.5017967078561333  1.0000
  C   C383      1.0  0.9653489988641936  0.006696404862575459  0.4854235468257547  1.0000
  C   C384      1.0  0.9676498862976947  0.9672090243035849  0.435160656698289  1.0000
  H   H469      1.0  0.8937862138877937  0.9529393432886871  0.49062182667905885  1.0000
  H   H470      1.0  0.8957160672591501  0.9243847042718426  0.4524683370788891  1.0000
  H   H471      1.0  0.9045449754886296  0.9701512562021712  0.4414538126277298  1.0000
  H   H472      1.0  0.9833494737132854  0.9562222663490992  0.5084014558027034  1.0000
  H   H473      1.0  0.939714365688287  0.9457893470571788  0.5296764554552327  1.0000
  H   H474      1.0  0.9414711290120105  0.9163630927688775  0.4922550023583463  1.0000
  H   H475      1.0  0.9953890811991689  0.018894888800194052  0.4920276783326449  1.0000
  H   H476      1.0  0.9516391242611099  0.00842517415541354  0.5126961808643068  1.0000
  H   H477      1.0  0.9625896370584313  0.024634291675431953  0.4632497763610392  1.0000
  H   H478      1.0  0.9978066430909711  0.9782309484320387  0.43995082549582903  1.0000
  H   H479      1.0  0.964871001517553  0.9840944473721137  0.41172129779315536  1.0000
  H   H480      1.0  0.9559911411843595  0.938500416899708  0.4238827001307713  1.0000
  N   N25       1.0  0.7088194551370337  0.6945030512463721  0.5436005132703323  1.0000
  C   C385      1.0  0.7367635149312142  0.7047553067335891  0.5748967429572125  1.0000
  C   C386      1.0  0.6764947367170703  0.696329539625405  0.5588768916943329  1.0000
  C   C387      1.0  0.6966618924137782  0.6565303612847635  0.5301454135582566  1.0000
  C   C388      1.0  0.7253036787412498  0.7204423968955066  0.5105197633113858  1.0000
  H   H481      1.0  0.761401439267528  0.7032668447040425  0.564723493946509  1.0000
  H   H482      1.0  0.7250341600193086  0.6861363134533005  0.6006580870538355  1.0000
  H   H483      1.0  0.7467879706491934  0.7333819955707337  0.5855555978218265  1.0000
  H   H484      1.0  0.6541869300300107  0.6874990734762184  0.5365461644861255  1.0000
  H   H485      1.0  0.6639643977924021  0.6777263741111772  0.5844638611062605  1.0000
  H   H486      1.0  0.6843823791126039  0.7247644785898045  0.5684244950093926  1.0000
  H   H487      1.0  0.6748384485553004  0.6475168034782232  0.5072085967672427  1.0000
  H   H488      1.0  0.6843316237623693  0.6363138606488772  0.5545027138071699  1.0000
  H   H489      1.0  0.7201523479197549  0.6541000909944017  0.5178721155018434  1.0000
  H   H490      1.0  0.7347932738726917  0.7493622965650433  0.5197908153520677  1.0000
  H   H491      1.0  0.7048405342333209  0.7135175780067173  0.48648480643373376  1.0000
  H   H492      1.0  0.7497736762561701  0.7197601557645417  0.498215327363299  1.0000
  N   N26       1.0  0.9886804745103475  0.503162533042552  0.8760638849722813  1.0000
  C   C389      1.0  0.9597325892119759  0.4949327889817187  0.846449510461517  1.0000
  C   C390      1.0  0.9924170410630038  0.5334529790104303  0.9013975073575208  1.0000
  C   C391      1.0  0.024323788043522088  0.5143426478175104  0.8561159341150857  1.0000
  C   C392      1.0  0.9781587426635382  0.47007731661103097  0.9002509541590761  1.0000
  H   H493      1.0  0.9547639131802076  0.4711501957199863  0.8276556969787674  1.0000
  H   H494      1.0  0.9674504801324175  0.5190520025657437  0.8269773198969089  1.0000
  H   H495      1.0  0.9329474750404446  0.48806545244165667  0.8604837669515948  1.0000
  H   H496      1.0  0.9661842267776306  0.5254901780376742  0.9175961494305653  1.0000
  H   H497      1.0  0.014848802072463974  0.5414840310602269  0.9234399821905483  1.0000
  H   H498      1.0  0.9990231568945079  0.5583638419002173  0.8839064355072069  1.0000
  H   H499      1.0  0.022770490707323177  0.4914440905035799  0.8381036147909705  1.0000
  H   H500      1.0  0.04738023277699588  0.5227828237338065  0.8774366420586318  1.0000
  H   H501      1.0  0.032096031051706  0.5381419589010448  0.8361616486496546  1.0000
  H   H502      1.0  0.9730827694304349  0.4459327025013625  0.8820277931278273  1.0000
  H   H503      1.0  0.9523046802101043  0.4619994201704422  0.9171379395121599  1.0000
  H   H504      1.0  0.0001840982532801405  0.47503771841187664  0.9218345451642583  1.0000
  N   N27       1.0  0.9508050218341193  0.22397147156367708  0.07557750416003127  1.0000
  C   C393      1.0  0.9425889724509691  0.2545023384684087  0.07455973366431005  1.0000
  C   C394      1.0  0.9911255487164686  0.23918142129043526  0.0812871653827752  1.0000
  C   C395      1.0  0.9393181416209977  0.20341207016825846  0.038298983566163736  1.0000
  C   C396      1.0  0.930173522454624  0.19871715591837102  0.10808823601516925  1.0000
  H   H505      1.0  0.9500015294427848  0.2701110960455517  0.10252666801546122  1.0000
  H   H506      1.0  0.9126982976208345  0.2444017556432772  0.06858138694253885  1.0000
  H   H507      1.0  0.958665600963997  0.2745160159897876  0.0511377772169151  1.0000
  H   H508      1.0  0.9983589328844992  0.21695232724667127  0.08257911104891806  1.0000
  H   H509      1.0  0.0074840035623187084  0.2578597074492116  0.05688057488916154  1.0000
  H   H510      1.0  0.0010268367237848963  0.2553747942127498  0.10878887421484658  1.0000
  H   H511      1.0  0.9544935224534964  0.22153875390027888  0.0131280463853094  1.0000
  H   H512      1.0  0.9091376783614938  0.19184051824558299  0.03276277812738175  1.0000
  H   H513      1.0  0.94508371516782  0.1800906983572789  0.03814328173915529  1.0000
  H   H514      1.0  0.9347787233235104  0.1747224636453682  0.10855937159520462  1.0000
  H   H515      1.0  0.8997376783251363  0.18764918383763407  0.10530590583346196  1.0000
  H   H516      1.0  0.9391653990438951  0.21278041887605517  0.13689051780050815  1.0000
  N   N28       1.0  0.9910719592784403  0.01658544413162681  0.7050733379740323  1.0000
  C   C397      1.0  0.970339270901632  0.9796741759376684  0.6868802171555846  1.0000
  C   C398      1.0  0.9723819937228583  0.01709107803484995  0.7416686674821952  1.0000
  C   C399      1.0  0.9922072605288254  0.04449735968133319  0.6777122609963921  1.0000
  C   C400      1.0  0.029300530858882512  0.024957496424294283  0.7139769700742643  1.0000
  H   H517      1.0  0.9683158902814432  0.9577112913272943  0.7068463660663158  1.0000
  H   H518      1.0  0.9839190927214032  0.9783302548656201  0.6592941213533744  1.0000
  H   H519      1.0  0.9414032695756572  0.9725285036510909  0.6796769126742812  1.0000
  H   H520      1.0  0.9872503310239913  0.04453190161244254  0.7561702196599894  1.0000
  H   H521      1.0  0.9433350833968763  0.010531262183482134  0.736107475009515  1.0000
  H   H522      1.0  0.9707436899343562  0.9960539375677121  0.7627766238432908  1.0000
  H   H523      1.0  0.9637325868992803  0.038878501627132175  0.6703371459651425  1.0000
  H   H524      1.0  0.00584994017866336  0.04460098703866067  0.6496233029477936  1.0000
  H   H525      1.0  0.007885815195351586  0.07278753498347267  0.6901479452915681  1.0000
  H   H526      1.0  0.04583163843263782  0.05249619725207959  0.7280125553735137  1.0000
  H   H527      1.0  0.04425283476078756  0.02491095202584112  0.6869784591558995  1.0000
  H   H528      1.0  0.029363413955528772  0.004147047976035044  0.7341920022751608  1.0000
  N   N29       1.0  0.024699702071434276  0.09486184691416735  0.34766510309848786  1.0000
  C   C401      1.0  0.04600168036285809  0.13454049538502746  0.3376939713493366  1.0000
  C   C402      1.0  0.017988537584200194  0.09058351691224384  0.3903056675616048  1.0000
  C   C403      1.0  0.046009976566469345  0.07688600648276442  0.33557155558077967  1.0000
  C   C404      1.0  0.9887201636620626  0.07743626293637183  0.32701234800073703  1.0000
  H   H529      1.0  0.07321011755191668  0.148646232260791  0.35302947221254216  1.0000
  H   H530      1.0  0.030539335081105828  0.1489335643215676  0.3458476167138767  1.0000
  H   H531      1.0  0.0514830900780411  0.13878379853103054  0.30569976062925786  1.0000
  H   H532      1.0  0.0015484483551666537  0.10347935513845068  0.40031728256991034  1.0000
  H   H533      1.0  0.002214935721082556  0.060968635386316486  0.3988513474926924  1.0000
  H   H534      1.0  0.044537332652969004  0.10344096998829498  0.4069509236922511  1.0000
  H   H535      1.0  0.031029913038064662  0.04702503993961112  0.3432045504214438  1.0000
  H   H536      1.0  0.07348592236027446  0.08953413142130663  0.35042927731410234  1.0000
  H   H537      1.0  0.05111852829709947  0.07918207338723558  0.3034891423130908  1.0000
  H   H538      1.0  0.9718904918224679  0.047440337365495834  0.3337172800169693  1.0000
  H   H539      1.0  0.9925457562118721  0.08078342640055605  0.29476485426380933  1.0000
  H   H540      1.0  0.9719828959061493  0.09022161912421088  0.3358201632913614  1.0000
  N   N30       1.0  0.5157149873733154  0.5442117574593912  0.9858629851768539  1.0000
  C   C405      1.0  0.48624405102181717  0.5394846362561556  0.013479456375007581  1.0000
  C   C406      1.0  0.5133898782805045  0.5082399436995004  0.9788309211590749  1.0000
  C   C407      1.0  0.5523338235711603  0.5701910977191553  0.00280808742864469  1.0000
  C   C408      1.0  0.5110231181502508  0.5589843951404508  0.9483935594998766  1.0000
  H   H541      1.0  0.4888774673924451  0.5281984210170994  0.04200324783047282  1.0000
  H   H542      1.0  0.45812905933076575  0.5205080339670933  0.0016904466101739235  1.0000
  H   H543      1.0  0.4877786522717167  0.5662608533901763  0.020099020116304045  1.0000
  H   H544      1.0  0.5359105212401779  0.5111359874772291  0.9589631687991808  1.0000
  H   H545      1.0  0.5159302675450165  0.495807446325833  0.006587611757115308  1.0000
  H   H546      1.0  0.4865408669885377  0.4882074533698814  0.9650428399975534  1.0000
  H   H547      1.0  0.5754197240800175  0.5751870640276994  0.9826031121230826  1.0000
  H   H548      1.0  0.5567640266253233  0.55973450383446  0.031059932017317715  1.0000
  H   H549      1.0  0.5548466108227668  0.5974795859163036  0.008743115177281213  1.0000
  H   H550      1.0  0.4835992720767718  0.5402427227727349  0.9348995675009  1.0000
  H   H551      1.0  0.5329047706246688  0.5629511245100822  0.9269547855445377  1.0000
  H   H552      1.0  0.513134286186205  0.5863564536413233  0.9523655582887167  1.0000
  N   N31       1.0  0.5914961227907173  0.8307309115572697  0.0542966516647132  1.0000
  C   C409      1.0  0.564413533424571  0.8438704814777032  0.05421647634893412  1.0000
  C   C410      1.0  0.5842831155198367  0.8059770486108223  0.020593959083869295  1.0000
  C   C411      1.0  0.5876716892643337  0.8103876875796842  0.09093901754414202  1.0000
  C   C412      1.0  0.6296312104748308  0.8625278824162752  0.05135661365538424  1.0000
  H   H553      1.0  0.5691253646803436  0.8628993759433049  0.07905942526654486  1.0000
  H   H554      1.0  0.5354375232868384  0.8204171938573819  0.05667693793175399  1.0000
  H   H555      1.0  0.5660176266868348  0.8588441826571241  0.026700639897155654  1.0000
  H   H556      1.0  0.6053569995764059  0.7971102338751501  0.01852392554743232  1.0000
  H   H557      1.0  0.5566770119130013  0.7805347372067933  0.02303100221786769  1.0000
  H   H558      1.0  0.5850132922803543  0.8197102410709531  0.9925014133077389  1.0000
  H   H559      1.0  0.5933942791730856  0.8283212405223622  0.11702233858206545  1.0000
  H   H560      1.0  0.6073461026766288  0.7995788876438212  0.09165673733143809  1.0000
  H   H561      1.0  0.5591269100637205  0.786301059534426  0.09422345643765695  1.0000
  H   H562      1.0  0.6506065303908972  0.8532778450696856  0.051543044677150096  1.0000
  H   H563      1.0  0.6361216923985908  0.8819367974185474  0.07624443136856995  1.0000
  H   H564      1.0  0.6335913083142043  0.8782458080011702  0.02381919084921158  1.0000
  N   N32       1.0  0.006938548357087626  0.044302400490539295  0.9162884957705902  1.0000
  C   C413      1.0  0.028310624858616906  0.047779800235372004  0.880422378049327  1.0000
  C   C414      1.0  0.9963571891761227  0.00873607014321468  0.9355044771803259  1.0000
  C   C415      1.0  0.973212815352453  0.0458279714011152  0.9058826742608517  1.0000
  C   C416      1.0  0.029848842515358465  0.07492771622284049  0.9432878564054484  1.0000
  H   H565      1.0  0.03504537212966863  0.07334631126816787  0.8642235754296762  1.0000
  H   H566      1.0  0.012354091842400106  0.024186886150950816  0.8602107302990011  1.0000
  H   H567      1.0  0.05503904983576846  0.0488327322123448  0.8871089618241941  1.0000
  H   H568      1.0  0.9796223276721836  0.004837167761042418  0.9623582460598169  1.0000
  H   H569      1.0  0.9791100056330508  0.9850028444857495  0.9158945539331076  1.0000
  H   H570      1.0  0.021180468810339415  0.006812848221343123  0.9439806418278629  1.0000
  H   H571      1.0  0.955519497786862  0.04173579437194214  0.9319948349273989  1.0000
  H   H572      1.0  0.9558252467784555  0.023940756716285375  0.8844909649703946  1.0000
  H   H573      1.0  0.9803311239210488  0.07296450097352555  0.892672582382558  1.0000
  H   H574      1.0  0.014683885689173781  0.07263544776235853  0.970924146541598  1.0000
  H   H575      1.0  0.037352413973902765  0.10210042212931637  0.9301492214524744  1.0000
  H   H576      1.0  0.05620163340840767  0.07560087352703852  0.9509182666329006  1.0000
  N   N33       1.0  0.488217407836592  0.36482630224354445  0.15498895747837907  1.0000
  C   C417      1.0  0.4675251400022317  0.3344837681174947  0.18314850246005818  1.0000
  C   C418      1.0  0.5130329558533763  0.35673743738057956  0.13118068012693793  1.0000
  C   C419      1.0  0.5105003884343067  0.39970405168472634  0.17666298346966888  1.0000
  C   C420      1.0  0.4617891513651966  0.36836660654220793  0.12898832823338863  1.0000
  H   H577      1.0  0.4485974716904348  0.33978961972151134  0.2016369273721588  1.0000
  H   H578      1.0  0.4867191366162633  0.3313279865690875  0.20345091142472857  1.0000
  H   H579      1.0  0.4503598436817018  0.30765464840067436  0.16793195514725093  1.0000
  H   H580      1.0  0.5289069674503254  0.37901454247919636  0.10946316742685594  1.0000
  H   H581      1.0  0.5334813512697419  0.3539829674369993  0.14975200266078004  1.0000
  H   H582      1.0  0.49702769298694277  0.33053547067702793  0.11443774038719606  1.0000
  H   H583      1.0  0.5266523394104885  0.42331258274949124  0.1564801081438952  1.0000
  H   H584      1.0  0.5304666631958838  0.39786086276783833  0.19696722058485294  1.0000
  H   H585      1.0  0.49252486388056066  0.4066445305650668  0.19477332291332008  1.0000
  H   H586      1.0  0.4765049181612835  0.391494809346781  0.10782610207946916  1.0000
  H   H587      1.0  0.4422232649125457  0.37395269333432374  0.14589436930721977  1.0000
  H   H588      1.0  0.4449199690071626  0.3427205818975936  0.11161929905717295  1.0000
  N   N34       1.0  0.9856154999467114  0.5260232695010567  0.4011343763707438  1.0000
  C   C421      1.0  0.9721507750938861  0.5105031644915321  0.36175971648589245  1.0000
  C   C422      1.0  0.021831266090362435  0.5604358868199236  0.39770149666102766  1.0000
  C   C423      1.0  0.9900161107445146  0.499014830817574  0.42500408104832677  1.0000
  C   C424      1.0  0.9584987347012172  0.5341095474331633  0.42014390820113456  1.0000
  H   H589      1.0  0.9685522583945235  0.5301699755418073  0.34289285164103683  1.0000
  H   H590      1.0  0.9448782082367103  0.48447540315529297  0.3632105809828685  1.0000
  H   H591      1.0  0.9918946792056149  0.5039177866016821  0.3465810415565708  1.0000
  H   H592      1.0  0.01950910583839969  0.581767129628415  0.3805062911589767  1.0000
  H   H593      1.0  0.03333413219256771  0.5723373837523297  0.4269593059442365  1.0000
  H   H594      1.0  0.04284906883295482  0.5554079959688921  0.3830482771778003  1.0000
  H   H595      1.0  0.01002926884649058  0.4920836077290956  0.41126490730579024  1.0000
  H   H596      1.0  0.9631921365759091  0.4728462938823429  0.4287032956722433  1.0000
  H   H597      1.0  0.0009940065268860918  0.5101442804062096  0.45464059025219544  1.0000
  H   H598      1.0  0.9308868368748716  0.508712898999398  0.42349831143317024  1.0000
  H   H599      1.0  0.9540670757098149  0.5541329261106654  0.4028349346642809  1.0000
  H   H600      1.0  0.9678214378518785  0.5460776762730692  0.4498316282773224  1.0000
  N   N35       1.0  0.46562762213478187  0.015247256555432909  0.320636639900589  1.0000
  C   C425      1.0  0.5041837919664662  0.04651950818740169  0.3216782621725671  1.0000
  C   C426      1.0  0.4414260529357034  0.02453606360890781  0.3438936814096724  1.0000
  C   C427      1.0  0.46446494124900617  0.9820648107400863  0.3371748700602222  1.0000
  C   C428      1.0  0.45252045833878923  0.007938758510961152  0.2797103509680567  1.0000
  H   H601      1.0  0.5060710335149224  0.07199682851439348  0.3092247139514195  1.0000
  H   H602      1.0  0.5231853173371682  0.04047960585077681  0.30423865551657125  1.0000
  H   H603      1.0  0.51509276148045  0.05277095716814939  0.35206172211833164  1.0000
  H   H604      1.0  0.4120097750096724  0.001716444957726937  0.3436829019752963  1.0000
  H   H605      1.0  0.45037875131173427  0.0301854377993791  0.37500344350019016  1.0000
  H   H606      1.0  0.44189442336302137  0.049500519079731076  0.3320876592255962  1.0000
  H   H607      1.0  0.43574625432139713  0.9579968393965496  0.337252404482256  1.0000
  H   H608      1.0  0.4748411994505561  0.9867308347311916  0.3678401828470815  1.0000
  H   H609      1.0  0.4819640520883398  0.9741191366495585  0.31970744724097727  1.0000
  H   H610      1.0  0.4238089763506204  0.9840341894552616  0.27760027311545954  1.0000
  H   H611      1.0  0.47073196374905935  0.001670346238712872  0.2611827355004929  1.0000
  H   H612      1.0  0.45258624943843667  0.032271180232839924  0.26645825476087903  1.0000
  N   N36       1.0  0.8527858190703526  0.7280337164088954  0.053002814899395734  1.0000
  C   C429      1.0  0.8339389292561882  0.7445675867818334  0.07481116043036518  1.0000
  C   C430      1.0  0.8339256039755072  0.6879474438451929  0.060924843930212136  1.0000
  C   C431      1.0  0.8920169295537413  0.7453260408233043  0.0655012015412717  1.0000
  C   C432      1.0  0.8511608894135452  0.7341896107539442  0.010692543670211885  1.0000
  H   H613      1.0  0.8472500526696345  0.7747177157205107  0.06921985415843168  1.0000
  H   H614      1.0  0.8345684641794999  0.7406239618364053  0.10688623787418439  1.0000
  H   H615      1.0  0.8043572418369903  0.732379229067428  0.06578838565448386  1.0000
  H   H616      1.0  0.8475832762760029  0.6746546731897188  0.04496862443021743  1.0000
  H   H617      1.0  0.8345412421756846  0.6822804849852595  0.092621561994219  1.0000
  H   H618      1.0  0.8043220627670794  0.6739865849202984  0.05161158438517899  1.0000
  H   H619      1.0  0.9066501620065458  0.7324300358557991  0.05072452282717066  1.0000
  H   H620      1.0  0.8943687881434758  0.742467103363382  0.09752294421859187  1.0000
  H   H621      1.0  0.9076640123131545  0.7753485275997855  0.05843508722960422  1.0000
  H   H622      1.0  0.8634707076538661  0.7206003797581931  0.9931297831377375  1.0000
  H   H623      1.0  0.8664686999886296  0.7641717897529339  0.0034260503127760966  1.0000
  H   H624      1.0  0.822020273848232  0.7230887055289894  0.0006321412917567049  1.0000
  N   N37       1.0  0.7655202411929262  0.3623577079114277  0.9732021106800551  1.0000
  C   C433      1.0  0.7665836302263345  0.39319677586250845  0.9510386861394329  1.0000
  C   C434      1.0  0.7267204120285875  0.3351442213406922  0.9835944593657133  1.0000
  C   C435      1.0  0.7876457579076553  0.37685618697523376  0.009275328276048267  1.0000
  C   C436      1.0  0.7812925753775645  0.3442193193990517  0.9489992722908552  1.0000
  H   H625      1.0  0.7550010446113444  0.40757858042957873  0.9685041518540207  1.0000
  H   H626      1.0  0.7503670011188749  0.3834115100190937  0.9234681903087102  1.0000
  H   H627      1.0  0.7956402821752432  0.4141313802696925  0.9429514675034596  1.0000
  H   H628      1.0  0.7252125511339336  0.3115382862705276  0.00021199028744645076  1.0000
  H   H629      1.0  0.7139357876742932  0.3476205930696661  0.002291712642672472  1.0000
  H   H630      1.0  0.7090685384069825  0.32352507351081344  0.9571732470528154  1.0000
  H   H631      1.0  0.7886612219392957  0.3546169903441157  0.025874537677012255  1.0000
  H   H632      1.0  0.7758544700651145  0.3894972026201141  0.029098084037932036  1.0000
  H   H633      1.0  0.8168506320653586  0.3981860305059921  0.0027667702022966534  1.0000
  H   H634      1.0  0.7805099462293542  0.32051140281160656  0.9647502328868905  1.0000
  H   H635      1.0  0.8107907772694732  0.3638165541470023  0.941200865323143  1.0000
  H   H636      1.0  0.7656682751599249  0.333433794288618  0.9212475839664752  1.0000
  N   N38       1.0  0.3170942183652302  0.6653794397144834  0.2955743657505614  1.0000
  C   C437      1.0  0.3143026054923116  0.6361215883022686  0.3218699917457436  1.0000
  C   C438      1.0  0.3125858050885074  0.6927983345732365  0.31862267627903845  1.0000
  C   C439      1.0  0.28764802588515415  0.6487005978616439  0.26560477916106523  1.0000
  C   C440      1.0  0.3539229787216747  0.6837632186753563  0.27636447401141595  1.0000
  H   H637      1.0  0.33427512331150283  0.6478757415826844  0.34647838114436735  1.0000
  H   H638      1.0  0.3205536861356111  0.6166212139749497  0.3060774538275549  1.0000
  H   H639      1.0  0.28607559023306434  0.6199282723321207  0.3349007859385565  1.0000
  H   H640      1.0  0.3143476546927758  0.7152853782811186  0.29975511804628363  1.0000
  H   H641      1.0  0.2853234029059536  0.679776317394767  0.33400518672782376  1.0000
  H   H642      1.0  0.3347230470876187  0.7059142074141856  0.34130170266404275  1.0000
  H   H643      1.0  0.28877175561937424  0.6699029334847422  0.24513559808944024  1.0000
  H   H644      1.0  0.25945033620074237  0.6343277390496391  0.2791087972990539  1.0000
  H   H645      1.0  0.2903552369367344  0.6277582152490077  0.24796951637477774  1.0000
  H   H646      1.0  0.3767833872728529  0.6962061452109302  0.298256027117791  1.0000
  H   H647      1.0  0.3572561405050685  0.7063639782435497  0.25664026301326365  1.0000
  H   H648      1.0  0.3583114015010999  0.6639150226098615  0.25865085793745307  1.0000
  N   N39       1.0  0.4261090160279669  0.010327988900735097  0.0877678115123163  1.0000
  C   C441      1.0  0.4075064263737085  0.9708086207850637  0.0981971957594559  1.0000
  C   C442      1.0  0.4639372906415301  0.029385723658068963  0.10452305129773194  1.0000
  C   C443      1.0  0.40445168648952495  0.02668022496251571  0.10356912254955251  1.0000
  C   C444      1.0  0.42846915417723  0.014339609372498629  0.04476133127777101  1.0000
  H   H649      1.0  0.3788513144673476  0.9553545262206457  0.08615755667880666  1.0000
  H   H650      1.0  0.4054977768843205  0.9666618442378214  0.13045509520083592  1.0000
  H   H651      1.0  0.42302769789553646  0.9575793590730316  0.08663721200521403  1.0000
  H   H652      1.0  0.47908618847485185  0.05916945786456515  0.0966513107459009  1.0000
  H   H653      1.0  0.4632572765785324  0.027545921474532043  0.1370046654868739  1.0000
  H   H654      1.0  0.48074901533384307  0.017247696679663624  0.0936313203681974  1.0000
  H   H655      1.0  0.41660558740363557  0.05596319425487025  0.09441235472619784  1.0000
  H   H656      1.0  0.4037667517649968  0.02602753504749554  0.13608570109985257  1.0000
  H   H657      1.0  0.375301832001729  0.011794936808681534  0.09283500317212323  1.0000
  H   H658      1.0  0.4425011430075971  0.0439504172214434  0.035905758378831205  1.0000
  H   H659      1.0  0.4004190491271945  0.000304811425492213  0.031067516996053673  1.0000
  H   H660      1.0  0.44433519928216825  0.0020395127623935583  0.03165633022744944  1.0000
  N   N40       1.0  0.537177640500684  0.22536369301107786  0.27085031534238774  1.0000
  C   C445      1.0  0.5236892853878286  0.2069234699301958  0.3090664885024787  1.0000
  C   C446      1.0  0.5576640870791071  0.2658270625277323  0.27651787258118576  1.0000
  C   C447      1.0  0.505230907672943  0.21499968883961373  0.244610623799562  1.0000
  C   C448      1.0  0.5620898717603683  0.21358929346230757  0.2532048701942013  1.0000
  H   H661      1.0  0.546908971445996  0.2145932499547788  0.32993028771631366  1.0000
  H   H662      1.0  0.5086205357803377  0.17637824219409376  0.3059819001397805  1.0000
  H   H663      1.0  0.504189247322789  0.21449401300923127  0.3229227878276747  1.0000
  H   H664      1.0  0.5399474684966818  0.2754713581193614  0.2908158555081504  1.0000
  H   H665      1.0  0.5823710179211071  0.2746905709214896  0.2955535543435201  1.0000
  H   H666      1.0  0.5674075994848077  0.2807553744295538  0.2482117954156409  1.0000
  H   H667      1.0  0.5143744329921085  0.22762621391296967  0.21514946724593131  1.0000
  H   H668      1.0  0.4861548722656423  0.2240022839791419  0.2565724881791411  1.0000
  H   H669      1.0  0.4886680113445146  0.184562208766271  0.24051291223798124  1.0000
  H   H670      1.0  0.5725139610934867  0.2266302130021737  0.22410242677709727  1.0000
  H   H671      1.0  0.5474220360768374  0.1831329842518152  0.2488109543086387  1.0000
  H   H672      1.0  0.5865671840705783  0.22094673045818755  0.272114210434311  1.0000
  N   N41       1.0  0.4127727254244876  0.9322407502931436  0.545873572470212  1.0000
  C   C449      1.0  0.37872973162224166  0.9104201989883429  0.569333753663584  1.0000
  C   C450      1.0  0.4025398738245488  0.936019066282292  0.5054966577001182  1.0000
  C   C451      1.0  0.43470903518701964  0.9132552371612739  0.545252423603677  1.0000
  C   C452      1.0  0.4351354173862441  0.969277689926264  0.563402242154238  1.0000
  H   H673      1.0  0.36076593465573514  0.8824275121987181  0.5567633084228435  1.0000
  H   H674      1.0  0.36173759340584694  0.9241755436358131  0.5711933574330966  1.0000
  H   H675      1.0  0.38537847557041605  0.9063406501308081  0.5997958493737506  1.0000
  H   H676      1.0  0.3853166605345003  0.9494934592817665  0.5049218556872768  1.0000
  H   H677      1.0  0.4276084998437804  0.9532342409776341  0.487319247761281  1.0000
  H   H678      1.0  0.3865393719047532  0.908705270255717  0.4909080202352722  1.0000
  H   H679      1.0  0.4604361574737703  0.9288026125671535  0.527515645317422  1.0000
  H   H680      1.0  0.4186280000121068  0.8851758669461512  0.5322705327761817  1.0000
  H   H681      1.0  0.443167736175547  0.9101449461038514  0.5752096680720487  1.0000
  H   H682      1.0  0.46084969319934893  0.9866418688305478  0.5462096632827906  1.0000
  H   H683      1.0  0.4435560345894178  0.9675470323423666  0.5937865194878796  1.0000
  H   H684      1.0  0.4193681325686658  0.9843071001153562  0.5643970465963382  1.0000
  N   N42       1.0  0.14069864697983409  0.23693647710164636  0.7626927454553176  1.0000
  C   C453      1.0  0.1612574747792544  0.21671464211490032  0.7587795850771142  1.0000
  C   C454      1.0  0.13211796407830192  0.23849660782160717  0.8043615821163752  1.0000
  C   C455      1.0  0.10580344137695358  0.21760639849141153  0.7401165089117212  1.0000
  C   C456      1.0  0.16359556794088714  0.2748504773318184  0.747345092221111  1.0000
  H   H685      1.0  0.1674791480653231  0.21446663310115208  0.7276459956691683  1.0000
  H   H686      1.0  0.14499383268500599  0.18809717459568673  0.7704501988207378  1.0000
  H   H687      1.0  0.18814169953863197  0.23074512696983462  0.7747349625275569  1.0000
  H   H688      1.0  0.11544359841066638  0.21036441507271395  0.8169864394349363  1.0000
  H   H689      1.0  0.15785800141977008  0.2532928122413183  0.822139643707808  1.0000
  H   H690      1.0  0.11582836909351259  0.2528000156158133  0.8084819263643065  1.0000
  H   H691      1.0  0.08958241862527169  0.2321491076270536  0.7421804513694908  1.0000
  H   H692      1.0  0.08780098842736053  0.18894161586641486  0.7509000886189143  1.0000
  H   H693      1.0  0.11144078651645158  0.215798331372554  0.7085268185100514  1.0000
  H   H694      1.0  0.19106062272808125  0.2897858613068796  0.7621380643169097  1.0000
  H   H695      1.0  0.1495423747387897  0.29137857085714014  0.7511986579765767  1.0000
  H   H696      1.0  0.16904607766165977  0.2746318672824281  0.7155394132792281  1.0000
  N   N43       1.0  0.18599012116206276  0.8478863124829746  0.7006746541057819  1.0000
  C   C457      1.0  0.1562697063758  0.8570721737821853  0.6950912323718047  1.0000
  C   C458      1.0  0.21377679916083273  0.8650910910708426  0.6691584307837434  1.0000
  C   C459      1.0  0.17003126614558906  0.8073790683197386  0.6994714221161543  1.0000
  C   C460      1.0  0.2040824041536989  0.8621765525887142  0.738881709647475  1.0000
  H   H697      1.0  0.1346693757469391  0.8445017569090087  0.7182637415373764  1.0000
  H   H698      1.0  0.14232162933061168  0.8470472499188377  0.6663293146106588  1.0000
  H   H699      1.0  0.1676381927154548  0.887546604044722  0.6960241631151434  1.0000
  H   H700      1.0  0.23757092427305343  0.8603384797858084  0.6735222390942295  1.0000
  H   H701      1.0  0.201481177791902  0.8538986276808334  0.640009406399011  1.0000
  H   H702      1.0  0.22528253174858345  0.8954289698882681  0.6680515590576077  1.0000
  H   H703      1.0  0.1919331183627617  0.7996451386891457  0.703020892574382  1.0000
  H   H704      1.0  0.15603696346930776  0.7955325399373263  0.671066866761831  1.0000
  H   H705      1.0  0.14909264439889117  0.7933109989278863  0.7229678882774699  1.0000
  H   H706      1.0  0.2265883875881521  0.8556026000534495  0.7440982867552497  1.0000
  H   H707      1.0  0.1838616883764878  0.850232829864265  0.7633656153169143  1.0000
  H   H708      1.0  0.21689547788981997  0.8927723651982683  0.7405007316874554  1.0000
  N   N44       1.0  0.000510674345702844  0.5491836002815484  0.09566102322972898  1.0000
  C   C461      1.0  0.9865298847691172  0.519914967449353  0.06559200571320238  1.0000
  C   C462      1.0  0.034879497356989475  0.5816801700307369  0.0813647457437779  1.0000
  C   C463      1.0  0.008582947404748076  0.5354446949940986  0.13202552023982717  1.0000
  C   C464      1.0  0.9720376605231752  0.5596667186007807  0.10368887557117744  1.0000
  H   H709      1.0  0.960811588089455  0.4947889496195315  0.07557866496042348  1.0000
  H   H710      1.0  0.007316174643943851  0.5112649265731949  0.0589102965446706  1.0000
  H   H711      1.0  0.9800523285284707  0.529320202042499  0.03780585856918681  1.0000
  H   H712      1.0  0.04592541753165591  0.6045771516215157  0.10306974535915005  1.0000
  H   H713      1.0  0.05708909705549581  0.5748025814253804  0.07559598038658494  1.0000
  H   H714      1.0  0.030046800169681198  0.5924459925728051  0.053580683765454225  1.0000
  H   H715      1.0  0.019387824019069244  0.5569862378666862  0.15525192060830495  1.0000
  H   H716      1.0  0.02962363139820212  0.5267938825989277  0.12700726079407834  1.0000
  H   H717      1.0  0.9832568567092985  0.5108726198148505  0.14365907947751935  1.0000
  H   H718      1.0  0.9815733786361165  0.5815758424923454  0.12641987868049304  1.0000
  H   H719      1.0  0.9457537163616624  0.5356983095814096  0.11445034112659494  1.0000
  H   H720      1.0  0.9654122332162065  0.5704480749556363  0.07702862361367825  1.0000
  N   N45       1.0  0.6714966725095514  0.9217496556737784  0.35425115183122835  1.0000
  C   C465      1.0  0.6542036429750607  0.9327474161778107  0.3853082960046337  1.0000
  C   C466      1.0  0.6952827398481155  0.9088515364296714  0.37225066147689934  1.0000
  C   C467      1.0  0.6942957603901967  0.9537554384021314  0.3287056509057228  1.0000
  C   C468      1.0  0.6421451045055506  0.8916632631307171  0.33077990776993543  1.0000
  H   H721      1.0  0.6368370594897468  0.9434590925678241  0.3727290404146881  1.0000
  H   H722      1.0  0.6754434722498832  0.9551184934781051  0.40400508316025874  1.0000
  H   H723      1.0  0.6357248114411511  0.908996021645463  0.4044178774817096  1.0000
  H   H724      1.0  0.6788691843261859  0.8848338212227701  0.3918989260511372  1.0000
  H   H725      1.0  0.7086548140106803  0.900155409472089  0.34965646784136567  1.0000
  H   H726      1.0  0.7178192625029666  0.9310556694913094  0.39000361991600396  1.0000
  H   H727      1.0  0.6770224482050802  0.9638893331221143  0.3143966037087343  1.0000
  H   H728      1.0  0.708159769913215  0.946723729894096  0.30511648722769064  1.0000
  H   H729      1.0  0.7164380934361828  0.9772602031510647  0.34551182436856803  1.0000
  H   H730      1.0  0.6539904551091945  0.8827622560468659  0.3067921639992698  1.0000
  H   H731      1.0  0.6233262912125104  0.9003376148427218  0.3172557061423618  1.0000
  H   H732      1.0  0.6243200012791158  0.866982458535279  0.34909804521046583  1.0000
  N   N46       1.0  0.8096978632680564  0.574053006409273  0.6378834146858644  1.0000
  C   C469      1.0  0.8192207297128314  0.6127958681226658  0.6317930586099058  1.0000
  C   C470      1.0  0.8228807702024706  0.5615004284200191  0.6042488970728791  1.0000
  C   C471      1.0  0.7689672696246701  0.5504999410639252  0.6416436186179055  1.0000
  C   C472      1.0  0.8277827696816242  0.5714468689037329  0.6739419124841187  1.0000
  H   H733      1.0  0.8098481106696962  0.6231127271252702  0.6569099359203958  1.0000
  H   H734      1.0  0.8058276848085416  0.6157822381531086  0.6049829044602064  1.0000
  H   H735      1.0  0.8497650436814733  0.6312999639258277  0.6286618842312994  1.0000
  H   H736      1.0  0.8156291905557962  0.5321664586866911  0.6077391748974041  1.0000
  H   H737      1.0  0.8105042210041672  0.5637117822200713  0.5763197696434212  1.0000
  H   H738      1.0  0.8536505284109351  0.5780369096681369  0.6012025154028352  1.0000
  H   H739      1.0  0.7543488262657724  0.5507109445026769  0.6145477755117486  1.0000
  H   H740      1.0  0.7579481588892508  0.5599644439460908  0.6659512339668665  1.0000
  H   H741      1.0  0.7608433017570692  0.5213044234128278  0.6479917040966441  1.0000
  H   H742      1.0  0.8585333586997909  0.5889691637347704  0.6723411521436071  1.0000
  H   H743      1.0  0.8215264288665605  0.5426717674357823  0.6792693436669057  1.0000
  H   H744      1.0  0.8179925181457808  0.5799888009424945  0.7001668148727498  1.0000
  N   N47       1.0  0.4625460143703611  0.5030922255542744  0.4760741873583692  1.0000
  C   C473      1.0  0.4797408753419704  0.5030656898900223  0.43823099769175944  1.0000
  C   C474      1.0  0.48124898804603633  0.49503217417883527  0.5080685900909606  1.0000
  C   C475      1.0  0.4228203250009017  0.4745629391894974  0.4754233514705274  1.0000
  C   C476      1.0  0.4663927522966945  0.5397713354831246  0.4826532237260728  1.0000
  H   H745      1.0  0.4655133909141643  0.50811802254361  0.41344743824018476  1.0000
  H   H746      1.0  0.47856215589988715  0.4762146813213601  0.4328505422771369  1.0000
  H   H747      1.0  0.5094472877000328  0.5248954260258736  0.43728799887917014  1.0000
  H   H748      1.0  0.48164241342016134  0.4689360879408433  0.50271965521174  1.0000
  H   H749      1.0  0.5105122543715014  0.5175077922688762  0.5111715969726075  1.0000
  H   H750      1.0  0.4674166638991313  0.49255062079982675  0.5366870534254501  1.0000
  H   H751      1.0  0.4089070980705174  0.47384429716999427  0.5034993913701646  1.0000
  H   H752      1.0  0.41910488767499965  0.44662211961275006  0.47042432025256703  1.0000
  H   H753      1.0  0.40776348668240103  0.4799605527333986  0.4517798606916836  1.0000
  H   H754      1.0  0.49608971732449225  0.5618162258856536  0.48422677729881103  1.0000
  H   H755      1.0  0.4528863706397025  0.5404861737181217  0.510517927448063  1.0000
  H   H756      1.0  0.45342478410344783  0.5472816328729507  0.4585967040449469  1.0000
  N   N48       1.0  0.756812928844007  0.4975497659015964  0.42988105468979987  1.0000
  C   C477      1.0  0.7843652950086253  0.5313817758652437  0.4503213419971171  1.0000
  C   C478      1.0  0.7758768740155735  0.4796162694961083  0.4113256183476148  1.0000
  C   C479      1.0  0.7378735419542115  0.5073151603682315  0.3995906948383196  1.0000
  C   C480      1.0  0.7291361637396797  0.4719309974167479  0.45833310000358246  1.0000
  H   H757      1.0  0.8058181792227107  0.5511133178477933  0.429765496080622  1.0000
  H   H758      1.0  0.7992254590183969  0.5251611903966165  0.47346542504683037  1.0000
  H   H759      1.0  0.771145524513493  0.5461958183979972  0.46388446362388164  1.0000
  H   H760      1.0  0.7560041608682374  0.45394627481738753  0.395666141640033  1.0000
  H   H761      1.0  0.7969980111825172  0.498256218210221  0.3897113672346269  1.0000
  H   H762      1.0  0.7908666854646651  0.4722911890593957  0.4333019558177892  1.0000
  H   H763      1.0  0.7580173118076381  0.5272919056616614  0.3780689037019463  1.0000
  H   H764      1.0  0.7228721762856208  0.520522849396076  0.4127022913359729  1.0000
  H   H765      1.0  0.7172076792933704  0.4826537829747614  0.38305224050349257  1.0000
  H   H766      1.0  0.7077718087253201  0.44616349461808946  0.4438613385956615  1.0000
  H   H767      1.0  0.714308851408796  0.4847016979053297  0.4729041546222082  1.0000
  H   H768      1.0  0.742496250254344  0.46389968150543465  0.4815561494437054  1.0000
