data_image0
_chemical_formula_structural       FeS2FeS2FeSFeS3FeS2FeS2FeSFeS3FeS2FeS2FeSFeS3FeS2FeS2FeSFeS3FeS2FeS2FeSFeS3FeS2FeS2FeSFeS3FeS2FeS2FeSFeS3FeS2FeS2FeSFeS3FeS2FeS2FeSFeS3FeS2FeS2FeSFeS3FeS2FeS2FeSFeS3FeS2FeS2FeSFeS3C6H4C6H4C6H4C6H4C6H4C6H4C6H4C6H4C6H4C6H4C6H4C6H4C6H4C6H4C6H4C6H4C6H4C6H4C6H4C6H4C6H4C6H4C6H4C6H4FeS2FeS2FeSFeS3FeS2FeS2FeSFeS3FeS2FeS2FeSFeS3FeS2FeS2FeSFeS3FeS2FeS2FeSFeS3FeS2FeS2FeSFeS3FeS2FeS2FeSFeS3FeS2FeS2FeSFeS3FeS2FeS2FeSFeS3FeS2FeS2FeSFeS3FeS2FeS2FeSFeS3FeS2FeS2FeSFeS3C6H4C6H4C6H4C6H4C6H4C6H4C6H4C6H4C6H4C6H4C6H4C6H4C6H4C6H4C6H4C6H4C6H4C6H4C6H4C6H4C6H4C6H4C6H4C6H4NC4H12NC4H12NC4H12NC4H12NC4H12NC4H12NC4H12NC4H12NC4H12NC4H12NC4H12NC4H12NC4H12NC4H12NC4H12NC4H12NC4H12NC4H12NC4H12NC4H12NC4H12NC4H12NC4H12NC4H12NC4H12NC4H12NC4H12NC4H12NC4H12NC4H12NC4H12NC4H12NC4H12NC4H12NC4H12NC4H12NC4H12NC4H12NC4H12NC4H12NC4H12NC4H12NC4H12NC4H12NC4H12NC4H12NC4H12NC4H12
_chemical_formula_sum              "Fe96 S192 C480 H768 N48"
_cell_length_a       50.79112870917083
_cell_length_b       50.30806971567976
_cell_length_c       40.65501099762413
_cell_angle_alpha    90.16724401805006
_cell_angle_beta     90.00823292476564
_cell_angle_gamma    119.76984926719852

_space_group_name_H-M_alt    "P 1"
_space_group_IT_number       1

loop_
  _space_group_symop_operation_xyz
  'x, y, z'

loop_
  _atom_site_type_symbol
  _atom_site_label
  _atom_site_symmetry_multiplicity
  _atom_site_fract_x
  _atom_site_fract_y
  _atom_site_fract_z
  _atom_site_occupancy
  Fe  Fe1       1.0  0.3691643017242377  0.899806331833141  0.03919242334558917  1.0000
  S   S1        1.0  0.3684328152127048  0.8765403740450439  0.08674127722327968  1.0000
  S   S2        1.0  0.4021107038115718  0.9513547603717725  0.0420911998246103  1.0000
  Fe  Fe2       1.0  0.3333979467880351  0.8377100977500783  0.003549904344922528  1.0000
  S   S3        1.0  0.33154278324715136  0.8107499087677332  0.04839042572552984  1.0000
  S   S4        1.0  0.28037919889769664  0.8345856865754078  0.4783000455013774  1.0000
  Fe  Fe3       1.0  0.3198256050653814  0.8424888573265863  0.07539760980911303  1.0000
  S   S5        1.0  0.28008415473915255  0.8258923382386137  0.11129914130690441  1.0000
  Fe  Fe4       1.0  0.3800525870405923  0.8468946346383053  0.055704188403260295  1.0000
  S   S6        1.0  0.41818184201001457  0.8391147688753742  0.07183299030655446  1.0000
  S   S7        1.0  0.3190858308249154  0.8680202104230897  0.029835051136081585  1.0000
  S   S8        1.0  0.365672831911687  0.8780840436327456  0.5058317570711611  1.0000
  Fe  Fe5       1.0  0.4613971342059558  0.10725172152030026  0.4664722756390492  1.0000
  S   S9        1.0  0.5093636244107127  0.13361309903014046  0.44751053925016976  1.0000
  S   S10       1.0  0.43341581345168345  0.057072016485554426  0.45185065300028016  1.0000
  Fe  Fe6       1.0  0.4821227831685969  0.16198494212800432  0.022344269738496927  1.0000
  S   S11       1.0  0.5163675386472208  0.1918893052697076  0.4905392049457606  1.0000
  S   S12       1.0  0.4755917541155811  0.16638260693723  0.07681476233613257  1.0000
  Fe  Fe7       1.0  0.4995538968658123  0.17241320803386057  0.43994985159127287  1.0000
  S   S13       1.0  0.5187468641464803  0.20690619233901447  0.3979682880673327  1.0000
  Fe  Fe8       1.0  0.5216039912610765  0.15077173117124532  0.49938160060878245  1.0000
  S   S14       1.0  0.5566881468344171  0.15078563876201143  0.5338251515051308  1.0000
  S   S15       1.0  0.45064199338642275  0.1447374078818198  0.45493456977336294  1.0000
  S   S16       1.0  0.4912228305545828  0.12390776743256358  0.00865070704306486  1.0000
  Fe  Fe9       1.0  0.5600232909823818  0.8715492606712277  0.46775225640079937  1.0000
  S   S17       1.0  0.5741796328804931  0.893447216720884  0.013031601934937576  1.0000
  S   S18       1.0  0.5215420820926543  0.8763483161266725  0.4465771841576175  1.0000
  Fe  Fe10      1.0  0.596245189038077  0.8393852723392252  0.4537118905284191  1.0000
  S   S19       1.0  0.6285542573480235  0.8630933537920678  0.4960917985220267  1.0000
  S   S20       1.0  0.5902135435459077  0.7981443408786284  0.42392097277862867  1.0000
  Fe  Fe11      1.0  0.6025173022407658  0.8705854480624228  0.01739927168263668  1.0000
  S   S21       1.0  0.61591489875125  0.862633187947526  0.0677459938435377  1.0000
  Fe  Fe12      1.0  0.6279438287839944  0.9057114930375724  0.47992142681607014  1.0000
  S   S22       1.0  0.669925623993789  0.9527023563120534  0.4765666575840064  1.0000
  S   S23       1.0  0.5547634186199304  0.8268358241763295  0.4843406282827175  1.0000
  S   S24       1.0  0.5997151930414414  0.8829237722781641  0.43490347172349586  1.0000
  Fe  Fe13      1.0  0.6981668273575933  0.16713283379326313  0.06215706879761143  1.0000
  S   S25       1.0  0.7299139841646214  0.12524429894020958  0.5095825576299097  1.0000
  S   S26       1.0  0.6524140384623532  0.16049925288920994  0.07694550731329017  1.0000
  Fe  Fe14      1.0  0.765881757529134  0.19717009016595077  0.07975427717364517  1.0000
  S   S27       1.0  0.7752529216246353  0.17489688605200704  0.03628997819602351  1.0000
  S   S28       1.0  0.8045097970440469  0.2360785730371257  0.10889382478476399  1.0000
  Fe  Fe15      1.0  0.7450642367073604  0.18731285726086525  0.007608557678107703  1.0000
  S   S29       1.0  0.8127133160924113  0.1769956508240237  0.4881160754376065  1.0000
  Fe  Fe16      1.0  0.7316156908485725  0.13228500508644678  0.049993103794814225  1.0000
  S   S30       1.0  0.7249466709814116  0.0841944476448681  0.05302459889598925  1.0000
  S   S31       1.0  0.7384313385569209  0.21230106976694607  0.04967872064563181  1.0000
  S   S32       1.0  0.7246836293615199  0.15357183654518225  0.09578549149817532  1.0000
  Fe  Fe17      1.0  0.7460674451558026  0.5601213678009974  0.20054985974402664  1.0000
  S   S33       1.0  0.7443137171878316  0.5243628976455136  0.16609087699973057  1.0000
  S   S34       1.0  0.7627552984402125  0.5671124060762369  0.25304770824004136  1.0000
  Fe  Fe18      1.0  0.7208600519965535  0.5862553203093334  0.14984703374813632  1.0000
  S   S35       1.0  0.7191524911981622  0.5536577828980307  0.11067369658029363  1.0000
  S   S36       1.0  0.7014490127534492  0.6166178396206998  0.1352371075870072  1.0000
  Fe  Fe19      1.0  0.6991359599719987  0.5183263723670497  0.15056952553970954  1.0000
  S   S37       1.0  0.6555383482372162  0.47591731491991823  0.1360462346142333  1.0000
  Fe  Fe20      1.0  0.7645137390712617  0.5627810520211916  0.12923817505069  1.0000
  S   S38       1.0  0.8073700040722119  0.5695582853318204  0.1035417550521756  1.0000
  S   S39       1.0  0.6988430704121914  0.5504385043240616  0.18867555265851232  1.0000
  S   S40       1.0  0.7683139672734732  0.5990034541075021  0.16484997165678855  1.0000
  Fe  Fe21      1.0  0.5536482280892547  0.6803347150262046  0.2188823988365487  1.0000
  S   S41       1.0  0.5832998735109965  0.6757507452167392  0.18119433916685818  1.0000
  S   S42       1.0  0.5046497742486906  0.6447242256703308  0.2277717530863993  1.0000
  Fe  Fe22      1.0  0.6029452551925886  0.7441395839162809  0.24107912551135946  1.0000
  S   S43       1.0  0.6362629036835834  0.7448075980331043  0.20375573552128404  1.0000
  S   S44       1.0  0.6179834791110624  0.7867713835913224  0.27295051600766784  1.0000
  Fe  Fe23      1.0  0.5968884905375661  0.7244653631063667  0.16862241734572608  1.0000
  S   S45       1.0  0.5959197674946908  0.7338481574159884  0.1142990811862987  1.0000
  Fe  Fe24      1.0  0.6199162529599733  0.696168951441554  0.21945193711277228  1.0000
  S   S46       1.0  0.6512455606917843  0.6784047879405661  0.23561903906963555  1.0000
  S   S47       1.0  0.5649357978433532  0.7278291097483026  0.20425084505401103  1.0000
  S   S48       1.0  0.5889760559745931  0.6968219374074084  0.2588509438959292  1.0000
  Fe  Fe25      1.0  0.3872623238179347  0.5055301669915645  0.13200222195257844  1.0000
  S   S49       1.0  0.38455015858087277  0.47564718552226243  0.1741186981603524  1.0000
  S   S50       1.0  0.43003357382199037  0.5478970832936226  0.11598842498369645  1.0000
  Fe  Fe26      1.0  0.32043418520919953  0.4658461347349545  0.11342401833383003  1.0000
  S   S51       1.0  0.3119587884346282  0.4323443775988963  0.15428214842887383  1.0000
  S   S52       1.0  0.2834158262101826  0.4680922556035892  0.08389421644871264  1.0000
  Fe  Fe27      1.0  0.340303987308764  0.4737293128625948  0.18550064500917995  1.0000
  S   S53       1.0  0.331222905709317  0.47865305771764965  0.2388663738811547  1.0000
  Fe  Fe28      1.0  0.3567788505242844  0.4364280384229055  0.14012976009159359  1.0000
  S   S54       1.0  0.3622182448848112  0.39423490991196886  0.13659805435350722  1.0000
  S   S55       1.0  0.34555999546633526  0.5071406492589646  0.14630169698440507  1.0000
  S   S56       1.0  0.36286241287576493  0.46650850748147643  0.0963067452401439  1.0000
  Fe  Fe29      1.0  0.47218590814774614  0.2849802093262006  0.2576216997544178  1.0000
  S   S57       1.0  0.44157420307297846  0.28486502288869814  0.21713049321626673  1.0000
  S   S58       1.0  0.44941408068881966  0.24870758773050977  0.29756508570345613  1.0000
  Fe  Fe30      1.0  0.5257211776718832  0.34493989454569196  0.23299772663906873  1.0000
  S   S59       1.0  0.49890555621395066  0.3499288742808598  0.19219192573525182  1.0000
  S   S60       1.0  0.5748801469307089  0.3788701069757726  0.24401966825952312  1.0000
  Fe  Fe31      1.0  0.4610319965399303  0.3348561695657534  0.2285851622829119  1.0000
  S   S61       1.0  0.4326098792923981  0.35729133907574334  0.24017704660118053  1.0000
  Fe  Fe32      1.0  0.4817995445240669  0.2996434638306116  0.18398930686161016  1.0000
  S   S62       1.0  0.48089894869200467  0.28761118794791896  0.13016475484030948  1.0000
  S   S63       1.0  0.4896060381161713  0.3342881757537979  0.27066749958194875  1.0000
  S   S64       1.0  0.5108372031006271  0.2953806909500064  0.22308226643745036  1.0000
  Fe  Fe33      1.0  0.2124638398507553  0.7060457766446607  0.3396060364469242  1.0000
  S   S65       1.0  0.22399127727991286  0.681646699210788  0.3008266195854287  1.0000
  S   S66       1.0  0.250933975862894  0.7273149780131621  0.37653700505864335  1.0000
  Fe  Fe34      1.0  0.1529716693571376  0.6900017048769365  0.30594628873785046  1.0000
  S   S67       1.0  0.16193927373834802  0.6664724787613078  0.26369604110607087  1.0000
  S   S68       1.0  0.10735859586230985  0.6883648606770063  0.30325295981875616  1.0000
  Fe  Fe35      1.0  0.17574709658948198  0.6449262598763416  0.3033550497778468  1.0000
  S   S69       1.0  0.15755790017894922  0.5939094702934729  0.2997021341659015  1.0000
  Fe  Fe36      1.0  0.2098867635442971  0.7058834806504032  0.26451609654118086  1.0000
  S   S70       1.0  0.24575492794031548  0.7258819360996847  0.2240115010287086  1.0000
  S   S71       1.0  0.16475367973465602  0.6665742888553681  0.3455545591799733  1.0000
  S   S72       1.0  0.20010485366866165  0.7317868926966858  0.3033758260016204  1.0000
  Fe  Fe37      1.0  0.8946915902218564  0.5644666054279949  0.3412537480081142  1.0000
  S   S73       1.0  0.8607145859932698  0.5346971669788477  0.3789852510329453  1.0000
  S   S74       1.0  0.8811705714057491  0.5609364660974446  0.2877437485678729  1.0000
  Fe  Fe38      1.0  0.947886020270992  0.5889469592784194  0.3896087740213538  1.0000
  S   S75       1.0  0.9175648055095081  0.5603460119446665  0.43101049362902083  1.0000
  S   S76       1.0  0.9976458657896157  0.6179538160194601  0.40369745144398467  1.0000
  Fe  Fe39      1.0  0.8962324849922079  0.5226769156024379  0.3934247652970147  1.0000
  S   S77       1.0  0.8819385810497218  0.47327534386222087  0.40474731870199404  1.0000
  Fe  Fe40      1.0  0.8849208338726636  0.5749979100279534  0.4132327690297744  1.0000
  S   S78       1.0  0.8614115410834524  0.5949075951309498  0.444400506627156  1.0000
  S   S79       1.0  0.9289255094613166  0.5500168566542949  0.3535588555006755  1.0000
  S   S80       1.0  0.9165365744951066  0.606100239961636  0.37382452684231643  1.0000
  Fe  Fe41      1.0  0.8696205844199032  0.2848343840539904  0.2913192450606502  1.0000
  S   S81       1.0  0.8947842237635589  0.2779696849429364  0.3332849226354079  1.0000
  S   S82       1.0  0.8384123644910834  0.24232091435038347  0.26118029325782477  1.0000
  Fe  Fe42      1.0  0.8973578359018232  0.3528647010121336  0.3065790581399225  1.0000
  S   S83       1.0  0.9252674277602062  0.3515970521850145  0.34842617546947685  1.0000
  S   S84       1.0  0.9021358962849665  0.39819518044254104  0.2921847664508891  1.0000
  Fe  Fe43      1.0  0.9351222388304792  0.321619225550979  0.3160012374219001  1.0000
  S   S85       1.0  0.9811619340177693  0.326104276375847  0.306522286009479  1.0000
  Fe  Fe44      1.0  0.8827574209913579  0.3083840612431549  0.36239337531089033  1.0000
  S   S86       1.0  0.8671945090863449  0.3046569374010903  0.4152061840502399  1.0000
  S   S87       1.0  0.9107440000301958  0.3265932841150545  0.2722896562559387  1.0000
  S   S88       1.0  0.8540298559910663  0.3116433156628652  0.322303072987875  1.0000
  Fe  Fe45      1.0  0.20189937508927225  0.42842193239237836  0.41620844430096504  1.0000
  S   S89       1.0  0.16669299555206427  0.3932033051667139  0.38208076776648386  1.0000
  S   S90       1.0  0.22387812006672428  0.4098184436406705  0.4513901612281848  1.0000
  Fe  Fe46      1.0  0.19388314286635014  0.47980525690972725  0.38630777378306447  1.0000
  S   S91       1.0  0.1580164019715105  0.4484471880683883  0.35070979952980214  1.0000
  S   S92       1.0  0.21387412799123875  0.5311937117539101  0.3884857639506163  1.0000
  Fe  Fe47      1.0  0.13915512116943374  0.41589454535974774  0.3931192236991365  1.0000
  S   S93       1.0  0.08993774111863559  0.3904620227240425  0.40972647410330176  1.0000
  Fe  Fe48      1.0  0.18875406603548328  0.42872142714430306  0.3428079575157918  1.0000
  S   S94       1.0  0.19622771600134467  0.4177149872898751  0.2908748740515526  1.0000
  S   S95       1.0  0.17296542206719287  0.448952412771469  0.42985606881152294  1.0000
  S   S96       1.0  0.2259823462136353  0.46223511819949625  0.37570114827461965  1.0000
  C   C1        1.0  0.01131494432560154  0.3454317108036142  0.335101701473159  1.0000
  C   C2        1.0  0.04121731241648722  0.3549427691022058  0.32522208674659686  1.0000
  C   C3        1.0  0.06557036880987105  0.36946332386940917  0.34758469201166314  1.0000
  C   C4        1.0  0.06016034581734515  0.37404934864140066  0.38029242353174125  1.0000
  C   C5        1.0  0.03024642288782453  0.36452702865567194  0.3902007214218843  1.0000
  C   C6        1.0  0.005962927401957252  0.35056277668070346  0.3676624862230677  1.0000
  H   H1        1.0  0.04560984119922528  0.35106197095144337  0.3001363890125794  1.0000
  H   H2        1.0  0.08845174966978131  0.3765855472122286  0.3396326469342754  1.0000
  H   H3        1.0  0.025830132558630085  0.36785620296698524  0.415452485318818  1.0000
  H   H4        1.0  0.9830445600819889  0.3431290377383175  0.3756500223234901  1.0000
  C   C7        1.0  0.8973350035082791  0.41862227129026275  0.3244374947361185  1.0000
  C   C8        1.0  0.8776044441001455  0.4034792868898549  0.3505382332850289  1.0000
  C   C9        1.0  0.8729680075590126  0.42045419685930774  0.37510532257480383  1.0000
  C   C10       1.0  0.8885505964196986  0.4525562400408269  0.37405877360733286  1.0000
  C   C11       1.0  0.9086606179559905  0.4675461293688519  0.3482765179224978  1.0000
  C   C12       1.0  0.9127925911553755  0.4506389995217042  0.3233669347910086  1.0000
  H   H5        1.0  0.8652978817972647  0.3787027071536552  0.3512238759617772  1.0000
  H   H6        1.0  0.8567635017436229  0.4086942274140011  0.3945114477177043  1.0000
  H   H7        1.0  0.9212016370870878  0.49214987894669165  0.34747125266073847  1.0000
  H   H8        1.0  0.928199981879798  0.4624025750895723  0.30328787180785755  1.0000
  C   C13       1.0  0.1728564553352725  0.5769907079893611  0.3255893332348096  1.0000
  C   C14       1.0  0.19826514103269502  0.594696065232312  0.3453032727153613  1.0000
  C   C15       1.0  0.21032124852151077  0.580368745288944  0.3650406404099934  1.0000
  C   C16       1.0  0.19690016420597192  0.5483378167360673  0.36535884817713926  1.0000
  C   C17       1.0  0.17114420180607598  0.5307100888042487  0.34609381251814375  1.0000
  C   C18       1.0  0.15932145658770794  0.5449985314259227  0.32609390403475685  1.0000
  H   H9        1.0  0.20880112011540838  0.619407991969609  0.3451246497169945  1.0000
  H   H10       1.0  0.23021047638550585  0.5941745336114205  0.3799532930117563  1.0000
  H   H11       1.0  0.16029542837240637  0.5060705616626957  0.3464788571967425  1.0000
  H   H12       1.0  0.1395883671276267  0.5311777645684129  0.31098235817730857  1.0000
  C   C19       1.0  0.07706200204981549  0.6678312834947596  0.33117338687751907  1.0000
  C   C20       1.0  0.047056867007626395  0.6571781115182954  0.32067906947817404  1.0000
  C   C21       1.0  0.022433768217320127  0.6412304606389769  0.3423319841864289  1.0000
  C   C22       1.0  0.027668854526638365  0.6363841459583522  0.3749787543244409  1.0000
  C   C23       1.0  0.05767100298549919  0.6470255293730487  0.38546716898392214  1.0000
  C   C24       1.0  0.08222507087881323  0.6624220161355198  0.3636299804615307  1.0000
  H   H13       1.0  0.04284885838330389  0.6614155931736962  0.2956726926652765  1.0000
  H   H14       1.0  0.9994969354471959  0.6333330473614527  0.33395169927129015  1.0000
  H   H15       1.0  0.06199383825232982  0.6435766465325907  0.41071475130824103  1.0000
  H   H16       1.0  0.10521586172655802  0.670885891840865  0.37217600175944143  1.0000
  C   C25       1.0  0.2935778117711076  0.46253576960381865  0.25249228256643524  1.0000
  C   C26       1.0  0.2691236128923581  0.4490395620742174  0.23058687377605633  1.0000
  C   C27       1.0  0.23926088268265616  0.4350527169998058  0.24261756489788933  1.0000
  C   C28       1.0  0.23378245085478574  0.43475596393522675  0.27648089884818333  1.0000
  C   C29       1.0  0.25829118468335754  0.44829124471726634  0.29826514075158506  1.0000
  C   C30       1.0  0.28808790891696995  0.4622276435645475  0.2862954117657822  1.0000
  H   H17       1.0  0.2731762448106958  0.449269021056894  0.20442569651883735  1.0000
  H   H18       1.0  0.22035009111926818  0.42459712339175687  0.22563023372972515  1.0000
  H   H19       1.0  0.25434333860962466  0.44749476502745417  0.32439844630544  1.0000
  H   H20       1.0  0.3069566646452123  0.4724015260144679  0.3033464550901818  1.0000
  C   C31       1.0  0.24556905848084465  0.42766213071767106  0.48718160662813365  1.0000
  C   C32       1.0  0.27125625133965847  0.4347839800428706  0.9898823465495712  1.0000
  C   C33       1.0  0.2806675008845803  0.4412577488863891  0.02299530273454448  1.0000
  C   C34       1.0  0.27182481101891226  0.45853201903900204  0.04231045877908679  1.0000
  C   C35       1.0  0.25344142187655144  0.46909856395046756  0.028215214302173584  1.0000
  C   C36       1.0  0.24828509756990913  0.4547768186718253  0.4998515631013286  1.0000
  H   H21       1.0  0.2780129035835717  0.42122639401989515  0.9751950057055181  1.0000
  H   H22       1.0  0.29449447424519615  0.4326532754208621  0.03363272406670842  1.0000
  H   H23       1.0  0.24629870867718354  0.4822951152510394  0.04301116455272617  1.0000
  H   H24       1.0  0.2377546468836643  0.4659652989762189  0.48713097359814345  1.0000
  C   C37       1.0  0.41595894399696753  0.3693400022023547  0.20952710568795788  1.0000
  C   C38       1.0  0.40562122218997054  0.35360342929000743  0.1796749325017548  1.0000
  C   C39       1.0  0.389633983604681  0.3618078223366084  0.15733822677225331  1.0000
  C   C40       1.0  0.38452168839805256  0.386290751376619  0.16417612583128466  1.0000
  C   C41       1.0  0.39574063084681266  0.4026512967973992  0.1935546861365004  1.0000
  C   C42       1.0  0.41083565777379805  0.3938182970100142  0.2163867975841086  1.0000
  H   H25       1.0  0.4092684066085586  0.3346351308402812  0.17410454975589698  1.0000
  H   H26       1.0  0.3811056183694014  0.3490527105409097  0.1346422672628814  1.0000
  H   H27       1.0  0.3924746668376223  0.42187162986946625  0.19881678179645035  1.0000
  H   H28       1.0  0.41889571936856695  0.4062312423105908  0.2393331011230742  1.0000
  C   C43       1.0  0.4847973446840034  0.6166034004768087  0.1973601972206447  1.0000
  C   C44       1.0  0.49841242740881825  0.6167265292327636  0.1674155589330285  1.0000
  C   C45       1.0  0.4814997764982673  0.5954168255940946  0.1426899125761787  1.0000
  C   C46       1.0  0.4510394580710899  0.5734231972566217  0.14798250446948616  1.0000
  C   C47       1.0  0.43756392575303604  0.5727893057469657  0.17819216180384337  1.0000
  C   C48       1.0  0.4543501832200049  0.594488702081209  0.2026924974400608  1.0000
  H   H29       1.0  0.5218941007173699  0.6333199165113703  0.16318942457533803  1.0000
  H   H30       1.0  0.4921293346588219  0.5957336340702868  0.11952426751579508  1.0000
  H   H31       1.0  0.41408640434822597  0.555860255451553  0.18254837431013393  1.0000
  H   H32       1.0  0.44366522658540786  0.5941647214957345  0.22582850481470623  1.0000
  C   C49       1.0  0.8123257561305472  0.5690310585460236  0.06046499693013566  1.0000
  C   C50       1.0  0.8391002769313665  0.5707837914625931  0.048404193713831985  1.0000
  C   C51       1.0  0.8508701655294229  0.564035816134993  0.5038496191078162  1.0000
  C   C52       1.0  0.8461192274558879  0.5842524860824831  0.484582400708282  1.0000
  C   C53       1.0  0.7957970738738976  0.5676464655312596  0.004056162971707079  1.0000
  C   C54       1.0  0.7905827491531716  0.5672670247140136  0.03813452108627656  1.0000
  H   H33       1.0  0.8561079302633106  0.5722889268870782  0.0655058234438585  1.0000
  H   H34       1.0  0.8635045792278749  0.553743750153098  0.4939593440333579  1.0000
  H   H35       1.0  0.7789737352245173  0.5665770443668717  0.9869388167084898  1.0000
  H   H36       1.0  0.7699468089300711  0.5660468916739888  0.047089579817029076  1.0000
  C   C55       1.0  0.794781332125714  0.5638247030667787  0.26282969569182935  1.0000
  C   C56       1.0  0.8079465087516899  0.553411286165046  0.23963844545141566  1.0000
  C   C57       1.0  0.8343753841898262  0.5524443672372845  0.24765380728098274  1.0000
  C   C58       1.0  0.8476299041438358  0.5616747606202753  0.27889397181791464  1.0000
  C   C59       1.0  0.8340091657360813  0.5712467358895195  0.3023868227719846  1.0000
  C   C60       1.0  0.8076950267430187  0.5724108268664013  0.2942992478878263  1.0000
  H   H37       1.0  0.7977804730070461  0.5462249275745417  0.21555129521117203  1.0000
  H   H38       1.0  0.8444574108975931  0.5442937579262264  0.22971084007585374  1.0000
  H   H39       1.0  0.8439744640095095  0.5782346811872474  0.3266218832493139  1.0000
  H   H40       1.0  0.7974694603900772  0.580309781507464  0.31239224418606704  1.0000
  C   C61       1.0  0.6331676874777878  0.45015157001462996  0.16694471974389338  1.0000
  C   C62       1.0  0.603104711883141  0.4281178783847302  0.15963145118224772  1.0000
  C   C63       1.0  0.5847223576017034  0.4069169466036445  0.1835329458331468  1.0000
  C   C64       1.0  0.59651572926547  0.4070887436731352  0.2146484785780286  1.0000
  C   C65       1.0  0.6265429171669075  0.42929835566264163  0.22203981569559367  1.0000
  C   C66       1.0  0.6447667376764439  0.4510191524516921  0.1983563243452741  1.0000
  H   H41       1.0  0.5939584548854638  0.4275602523797171  0.13543904245196828  1.0000
  H   H42       1.0  0.5615976304022885  0.3901844052397347  0.17771004823150585  1.0000
  H   H43       1.0  0.6357867909450633  0.4296171667505013  0.24611858456983557  1.0000
  H   H44       1.0  0.6679237157775373  0.4680211778841256  0.20422401773614904  1.0000
  C   C67       1.0  0.6878950923454304  0.6337770508242979  0.16364325126491427  1.0000
  C   C68       1.0  0.6722122349221517  0.6482428815283938  0.15174364253260866  1.0000
  C   C69       1.0  0.660460886012586  0.6615781043293423  0.17351862773744928  1.0000
  C   C70       1.0  0.6646183180980416  0.660868407564149  0.2074411373180925  1.0000
  C   C71       1.0  0.6802438874123455  0.6463319014440289  0.2193655803728249  1.0000
  C   C72       1.0  0.691685121369713  0.632665543449625  0.19759840926671546  1.0000
  H   H45       1.0  0.6691436483981609  0.6491744740942885  0.12551657713591993  1.0000
  H   H46       1.0  0.6485563168239471  0.672764900021972  0.16401334354391198  1.0000
  H   H47       1.0  0.6835627759022859  0.6456633352929178  0.2455671942451897  1.0000
  H   H48       1.0  0.7036789584039349  0.6215596444259087  0.2070737429878512  1.0000
  C   C73       1.0  0.8295309134577398  0.21317934829293358  0.4690849307900053  1.0000
  C   C74       1.0  0.827728984475321  0.23759658117131993  0.4832047379769473  1.0000
  C   C75       1.0  0.8400318156457561  0.26579669926509264  0.4667718049224294  1.0000
  C   C76       1.0  0.8539980546343355  0.2696760377643746  0.4360244390862362  1.0000
  C   C77       1.0  0.8561109607983307  0.24537793453550524  0.42203680884446737  1.0000
  C   C78       1.0  0.8440471865126195  0.21725671764899712  0.43864562445429417  1.0000
  H   H49       1.0  0.8171026615735896  0.23484090356239945  0.5069411750856179  1.0000
  H   H50       1.0  0.838439390022013  0.28454198194981484  0.4778039859003807  1.0000
  H   H51       1.0  0.866900245330377  0.24815025833339727  0.39840552379022015  1.0000
  H   H52       1.0  0.845610283366342  0.19846277073823138  0.4276714409199545  1.0000
  C   C79       1.0  0.8285113659966633  0.2413635371163186  0.2190863963136781  1.0000
  C   C80       1.0  0.8425419796829025  0.2673576082435502  0.19913562329182963  1.0000
  C   C81       1.0  0.8348349372172272  0.2652848988977904  0.16552356392658027  1.0000
  C   C82       1.0  0.8127712684541936  0.2373739666624234  0.15155649239804106  1.0000
  C   C83       1.0  0.7986288238314198  0.21142889590884031  0.17155639711811732  1.0000
  C   C84       1.0  0.806633827177754  0.21341062201365624  0.2050778932536303  1.0000
  H   H53       1.0  0.8593228486336091  0.2890470164766909  0.20954577115754874  1.0000
  H   H54       1.0  0.8459005020936626  0.28549893980570734  0.15029728644458906  1.0000
  H   H55       1.0  0.7817106827780291  0.18978766763516133  0.16115206759595546  1.0000
  H   H56       1.0  0.7956854518005755  0.1931434496768632  0.22026071565472133  1.0000
  C   C85       1.0  0.6087041799634975  0.8262037172470174  0.0805257604338783  1.0000
  C   C86       1.0  0.5986052199297314  0.8016910589568162  0.05842455490102471  1.0000
  C   C87       1.0  0.5949381688036254  0.7734761184193345  0.06903539079329338  1.0000
  C   C88       1.0  0.6007590830246796  0.7694778883896001  0.10189029327080225  1.0000
  C   C89       1.0  0.61014748966624  0.7937336900688367  0.12413614421716669  1.0000
  C   C90       1.0  0.6143904835622336  0.8221089309665728  0.11336423752637109  1.0000
  H   H57       1.0  0.5940470416034703  0.8046141129740058  0.03314671963474008  1.0000
  H   H58       1.0  0.5875412001872231  0.7546705287208862  0.05179784381348998  1.0000
  H   H59       1.0  0.6146722061324469  0.7908349451907264  0.14950469591965865  1.0000
  H   H60       1.0  0.6222480980426931  0.841028060837024  0.1305478615933074  1.0000
  C   C91       1.0  0.5975534727556262  0.7956401102368369  0.38166162398288833  1.0000
  C   C92       1.0  0.5865976818631067  0.7665125480542734  0.3673432858353366  1.0000
  C   C93       1.0  0.591863617238106  0.7633139126631823  0.3338941651214215  1.0000
  C   C94       1.0  0.6086820258038035  0.7893092528184887  0.3145242807149336  1.0000
  C   C95       1.0  0.6194640796634948  0.8184211149898813  0.3288040018474226  1.0000
  C   C96       1.0  0.6137910798691362  0.8216179215274897  0.362127937319124  1.0000
  H   H61       1.0  0.5739081583896495  0.7462606782551516  0.3822240766037656  1.0000
  H   H62       1.0  0.5831925033858718  0.7407605867910062  0.32321846637036605  1.0000
  H   H63       1.0  0.6325659423545855  0.8386739404820264  0.3140368205278167  1.0000
  H   H64       1.0  0.6225351256298599  0.8441809815534479  0.37281062269139775  1.0000
  C   C97       1.0  0.676734452059841  0.9829812962490556  0.5037772469025212  1.0000
  C   C98       1.0  0.70099230713634  0.012503863978188035  0.49752150476996343  1.0000
  C   C99       1.0  0.7079229844491515  0.03682919813368216  0.519474257000068  1.0000
  C   C100      1.0  0.6972279283810652  0.05366290789825088  0.028917512678067758  1.0000
  C   C101      1.0  0.6883426799531377  0.023282619505211155  0.037385007371711645  1.0000
  C   C102      1.0  0.6655853053998357  0.9985051147486386  0.019380403861399855  1.0000
  H   H65       1.0  0.7147650958070889  0.016502868343740484  0.4757871684986288  1.0000
  H   H66       1.0  0.7269605120212594  0.059360405295963065  0.5146306598284697  1.0000
  H   H67       1.0  0.6989780364428806  0.018872577937749435  0.05811360207102393  1.0000
  H   H68       1.0  0.6587802336911804  0.9752208651797398  0.02631313306764964  1.0000
  C   C103      1.0  0.47729052314398107  0.20022923142880733  0.09148242183337026  1.0000
  C   C104      1.0  0.47547646321220727  0.2042232793793971  0.125464822564447  1.0000
  C   C105      1.0  0.47639713411417983  0.23085257744439466  0.1377743986409792  1.0000
  C   C106      1.0  0.47893786131006805  0.25350517356385016  0.11605557504946604  1.0000
  C   C107      1.0  0.4809164311438744  0.24956122803707634  0.08212519016441044  1.0000
  C   C108      1.0  0.48015193901884107  0.22304216919296022  0.06984423720981178  1.0000
  H   H69       1.0  0.47331390566844234  0.1866530271614358  0.14232350931965876  1.0000
  H   H70       1.0  0.47494417055156446  0.2337436634395115  0.1639700416882938  1.0000
  H   H71       1.0  0.4829075585708694  0.26703804070430504  0.06521455423475775  1.0000
  H   H72       1.0  0.48147799682667053  0.22013200117249684  0.04362494187788433  1.0000
  C   C109      1.0  0.4987405913241387  0.2170944773966776  0.3694290623343564  1.0000
  C   C110      1.0  0.5153483747167927  0.2405149921697307  0.34661711702284437  1.0000
  C   C111      1.0  0.5006181040241626  0.2503532129397716  0.32441229079751954  1.0000
  C   C112      1.0  0.4690136210449049  0.23686027626716727  0.32478416711749886  1.0000
  C   C113      1.0  0.4523723831672388  0.2135124461860601  0.3476992323060769  1.0000
  C   C114      1.0  0.467104552425877  0.20360803729082042  0.3698622195312455  1.0000
  H   H73       1.0  0.5398208001374589  0.25117038391841084  0.3461032879489573  1.0000
  H   H74       1.0  0.5137446958705979  0.2683543178044428  0.3069819217861691  1.0000
  H   H75       1.0  0.4279082732977619  0.20279209355909572  0.3480895241226323  1.0000
  H   H76       1.0  0.4539674198048274  0.18541796253094547  0.38707269363962166  1.0000
  C   C115      1.0  0.594021037557035  0.16470904247003948  0.993453260678014  1.0000
  C   C116      1.0  0.5956964252634415  0.15082423742131465  0.48624888926275833  1.0000
  C   C117      1.0  0.6224271966608176  0.1512844785580299  0.47613916030690673  1.0000
  C   C118      1.0  0.6304081212164949  0.1627755445128792  0.044703458065417354  1.0000
  C   C119      1.0  0.6009768442625155  0.15725139056216636  0.05116459251156265  1.0000
  C   C120      1.0  0.5828214824000083  0.15828039760972068  0.025615496559097214  1.0000
  H   H77       1.0  0.57981878624845  0.15030673591166505  0.46815212109771004  1.0000
  H   H78       1.0  0.6270037645266041  0.15112973876392408  0.4501742170219933  1.0000
  H   H79       1.0  0.5922427271867466  0.15231614767110915  0.07600399285285467  1.0000
  H   H80       1.0  0.5602357291710259  0.1542004924467543  0.030835797480372993  1.0000
  C   C121      1.0  0.25427752884110516  0.7534149466706478  0.19258834266132166  1.0000
  C   C122      1.0  0.23759558747686996  0.7684113387314749  0.18810187533809972  1.0000
  C   C123      1.0  0.24582946361988117  0.7905757546415466  0.16313253006603762  1.0000
  C   C124      1.0  0.27086208461207417  0.7980986095730955  0.1425810019232769  1.0000
  C   C125      1.0  0.28754852679634185  0.7831348891916319  0.14713233559359548  1.0000
  C   C126      1.0  0.27926370645908666  0.7609296965787652  0.17199304216223507  1.0000
  H   H81       1.0  0.21834959638782656  0.7629044312429538  0.2037719721163057  1.0000
  H   H82       1.0  0.23277404193344503  0.8020381160372849  0.1597905967946072  1.0000
  H   H83       1.0  0.3069078426488198  0.7887317398602529  0.13160155611546204  1.0000
  H   H84       1.0  0.29237634371632304  0.749524085062603  0.1753292473491293  1.0000
  C   C127      1.0  0.27179585646902155  0.8043607985862696  0.4504251984518367  1.0000
  C   C128      1.0  0.24786085928199217  0.7954291702973584  0.42785343574147533  1.0000
  C   C129      1.0  0.24075804494632855  0.771473004142742  0.40529571214675364  1.0000
  C   C130      1.0  0.25774487711776517  0.7565062445232162  0.40513592268997656  1.0000
  C   C131      1.0  0.2818119253289816  0.7656717046568081  0.42749212569880213  1.0000
  C   C132      1.0  0.28876069397233445  0.7894139215585029  0.45014424062642194  1.0000
  H   H85       1.0  0.23460534796922178  0.8068728562107219  0.4280061207186841  1.0000
  H   H86       1.0  0.22217416496769204  0.7645679503636145  0.3881489869542053  1.0000
  H   H87       1.0  0.2950756930953645  0.754219685488584  0.4274248573842665  1.0000
  H   H88       1.0  0.30726578774645313  0.796141607109875  0.4673595255297104  1.0000
  C   C133      1.0  0.44001961516558546  0.8354780405925964  0.04039740169265115  1.0000
  C   C134      1.0  0.4422228670854224  0.8618517113256141  0.486591436689654  1.0000
  C   C135      1.0  0.4674329075076002  0.8715093459211066  0.465683227878483  1.0000
  C   C136      1.0  0.4780305584519446  0.8353943106645932  0.9900243239003856  1.0000
  C   C137      1.0  0.4482495102148573  0.8284462232437253  0.9829163112471135  1.0000
  C   C138      1.0  0.4293096498586973  0.8286462770792123  0.00803214133105687  1.0000
  H   H89       1.0  0.42441363817227495  0.8668717674691554  0.48051815081115445  1.0000
  H   H90       1.0  0.46903886274310297  0.8841193651022162  0.44356205651553454  1.0000
  H   H91       1.0  0.4399737850065501  0.8235183073551314  0.9578599860801978  1.0000
  H   H92       1.0  0.40654702021950295  0.8238389156397091  0.0022862162101282557  1.0000
  C   C139      1.0  0.4068757132916316  0.9816509925003706  0.016162863776565707  1.0000
  C   C140      1.0  0.4336088569324378  0.010072113044664155  0.019310245926943158  1.0000
  C   C141      1.0  0.43796462754834237  0.03547651781042805  0.0007045044043065829  1.0000
  C   C142      1.0  0.4186123390273139  0.028017994257155728  0.48200556108705056  1.0000
  C   C143      1.0  0.4104294885416702  0.9978408617723303  0.4731826722089015  1.0000
  C   C144      1.0  0.3845752938520693  0.9787766014574414  0.9939404061097299  1.0000
  H   H93       1.0  0.45104008200741275  0.01247509685363668  0.03632388808202432  1.0000
  H   H94       1.0  0.4588099616077174  0.05702884470259427  0.0030383412408538923  1.0000
  H   H95       1.0  0.41299882650797565  0.9926581073507957  0.4479257313044304  1.0000
  H   H96       1.0  0.3638678014915094  0.9570345698461397  0.991318000664733  1.0000
  Fe  Fe49      1.0  0.3634816046032653  0.9018515130726079  0.5517806839373381  1.0000
  S   S97       1.0  0.3767323210678419  0.8748496296517164  0.5846364987476894  1.0000
  S   S98       1.0  0.383036702384899  0.9528321994443449  0.5605961311454188  1.0000
  Fe  Fe50      1.0  0.31645025006774047  0.8451279569083122  0.516932566451676  1.0000
  S   S99       1.0  0.3254444469189028  0.8127911781077886  0.546698586978463  1.0000
  S   S100      1.0  0.3181141310291635  0.8108256420177767  0.9557581081449533  1.0000
  Fe  Fe51      1.0  0.3271591692281724  0.8408235831857488  0.5906012423548014  1.0000
  S   S101      1.0  0.31756946822172266  0.8217026259634351  0.6428097475241129  1.0000
  Fe  Fe52      1.0  0.3745720942584311  0.8480233053591079  0.5397106856278183  1.0000
  S   S102      1.0  0.4080171369583311  0.8307864166596535  0.5409181529640281  1.0000
  S   S103      1.0  0.31393610269298294  0.8704301021761237  0.5616523425854637  1.0000
  S   S104      1.0  0.38318961013631453  0.8714909160204258  0.009004392513239035  1.0000
  Fe  Fe53      1.0  0.45705046226798984  0.11359065067381496  0.9686746291079256  1.0000
  S   S105      1.0  0.4916217733108846  0.14422970447235678  0.9314265508125952  1.0000
  S   S106      1.0  0.4191540320245751  0.06516766652758865  0.9574103082132704  1.0000
  Fe  Fe54      1.0  0.4681285062458359  0.16202902605681158  0.5060259395310918  1.0000
  S   S107      1.0  0.5190869984107346  0.1965280564593741  0.9903944690028902  1.0000
  S   S108      1.0  0.4435141936798795  0.1773561388057311  0.5409781933240644  1.0000
  Fe  Fe55      1.0  0.4838292175904938  0.18174235440159459  0.9503270426476523  1.0000
  S   S109      1.0  0.48749915359323276  0.22235755511307959  0.921213304509204  1.0000
  Fe  Fe56      1.0  0.5249992057216507  0.15753949404256024  0.973110386811928  1.0000
  S   S110      1.0  0.5719385661892235  0.16618657250208763  0.9608115862624158  1.0000
  S   S111      1.0  0.4459016037387189  0.15003530036453694  0.9841806949355918  1.0000
  S   S112      1.0  0.4742851107987055  0.12214834545690459  0.5186843902201591  1.0000
  Fe  Fe57      1.0  0.5518606819573727  0.8605376797890042  0.9712947868712768  1.0000
  S   S113      1.0  0.5884076336156129  0.8976734306322578  0.5111129211284445  1.0000
  S   S114      1.0  0.5022245417192136  0.8375783650135756  0.9578340589018508  1.0000
  Fe  Fe58      1.0  0.6113293317752974  0.8691165411400393  0.9437687284319851  1.0000
  S   S115      1.0  0.6389394608193028  0.9034026057997183  0.9831748197325173  1.0000
  S   S116      1.0  0.6352053456677157  0.859696182833079  0.9016205211886618  1.0000
  Fe  Fe59      1.0  0.587095855186925  0.8537122464057392  0.5248189938173576  1.0000
  S   S117      1.0  0.5783517237175564  0.8400166552624874  0.578369691223673  1.0000
  Fe  Fe60      1.0  0.6087577736219366  0.923721641743179  0.9759730163779304  1.0000
  S   S118      1.0  0.6216187165282618  0.9737205973816048  0.9704422386974471  1.0000
  S   S119      1.0  0.5771342426326562  0.8348077390129242  0.9787160177296019  1.0000
  S   S120      1.0  0.5841869827301556  0.8922831266549457  0.9335006701688033  1.0000
  Fe  Fe61      1.0  0.7102117357808959  0.15469104288106258  0.5240321708487105  1.0000
  S   S121      1.0  0.7023929858958999  0.14309013690748734  0.01783643705486737  1.0000
  S   S122      1.0  0.6767960576229181  0.15327892612777055  0.4859793150561146  1.0000
  Fe  Fe62      1.0  0.7497718088125622  0.17741813293717804  0.5865163533903712  1.0000
  S   S123      1.0  0.7717838519846335  0.1488094930342434  0.5765178643246194  1.0000
  S   S124      1.0  0.7585899366522378  0.2099822607465737  0.6297377191270297  1.0000
  Fe  Fe63      1.0  0.77470822868463  0.16513406181381204  0.5242710361160187  1.0000
  S   S125      1.0  0.7514308810630592  0.20907762578762257  0.9574578823865324  1.0000
  Fe  Fe64      1.0  0.7247813938888805  0.11135789900964092  0.5623206433533692  1.0000
  S   S126      1.0  0.699837740200266  0.061172103534846964  0.5772785237021861  1.0000
  S   S127      1.0  0.7555324578361134  0.1958645670660366  0.534801287259364  1.0000
  S   S128      1.0  0.7022517447500365  0.13862326436496342  0.5763058551931723  1.0000
  Fe  Fe65      1.0  0.7568634714900055  0.5668471021069411  0.6925683579491769  1.0000
  S   S129      1.0  0.7544562224825679  0.5309835217152514  0.6583034291491175  1.0000
  S   S130      1.0  0.7672701979149837  0.570987133667475  0.7468706706397761  1.0000
  Fe  Fe66      1.0  0.7336816458462969  0.5939070866311306  0.6419317577732514  1.0000
  S   S131      1.0  0.7297964521510537  0.5606462673739939  0.6021735308693734  1.0000
  S   S132      1.0  0.723268382241844  0.6326849681515982  0.6355569500305998  1.0000
  Fe  Fe67      1.0  0.7099529648800513  0.5252999647478721  0.6420676988351328  1.0000
  S   S133      1.0  0.6737495127899024  0.47729890642765627  0.6290927357418472  1.0000
  Fe  Fe68      1.0  0.7748732358392776  0.5680958747645217  0.6199941061691869  1.0000
  S   S134      1.0  0.8087055047187252  0.5604739937434704  0.5901649898480873  1.0000
  S   S135      1.0  0.7100049145151824  0.5576340349780246  0.6800530683817217  1.0000
  S   S136      1.0  0.7810473530564532  0.6049166001083346  0.6563478207294806  1.0000
  Fe  Fe69      1.0  0.5545639502866667  0.6821179320202883  0.7117302964485732  1.0000
  S   S137      1.0  0.5923316139538393  0.6870378643251607  0.6791428367400631  1.0000
  S   S138      1.0  0.5042140397487196  0.655722099498054  0.7002474837562899  1.0000
  Fe  Fe70      1.0  0.5977353787292029  0.7256119923476352  0.7648139702525226  1.0000
  S   S139      1.0  0.6394798312458614  0.7340344025350333  0.7362297107840433  1.0000
  S   S140      1.0  0.5909236759737643  0.7373613993452081  0.817569007604968  1.0000
  Fe  Fe71      1.0  0.6142328610021216  0.7371497206717914  0.6918142997412151  1.0000
  S   S141      1.0  0.6362543360073826  0.7684592364621623  0.6480921314537734  1.0000
  Fe  Fe72      1.0  0.6147086493372264  0.6833880384903586  0.7250883471523497  1.0000
  S   S142      1.0  0.6324164559063346  0.6497952943716184  0.7296165081023421  1.0000
  S   S143      1.0  0.5746944635513734  0.7326318503569333  0.7210676402754964  1.0000
  S   S144      1.0  0.5748946866197936  0.6745394154428479  0.7569695761651274  1.0000
  Fe  Fe73      1.0  0.39440391569622635  0.49251112744147524  0.63947260450621  1.0000
  S   S145      1.0  0.3855609058705709  0.4588816056687547  0.679696459927278  1.0000
  S   S146      1.0  0.442598388870722  0.5277645388810699  0.6261886656828222  1.0000
  Fe  Fe74      1.0  0.32778506338813757  0.45899898443299525  0.6164757188701011  1.0000
  S   S147      1.0  0.31398063590608327  0.42189339075348475  0.654742457010608  1.0000
  S   S148      1.0  0.29808754426065864  0.47000011296076855  0.5832843424368584  1.0000
  Fe  Fe75      1.0  0.34294804447776683  0.4608109100559435  0.6891335523458504  1.0000
  S   S149      1.0  0.3332983340820491  0.4668458671342492  0.7420404014596284  1.0000
  Fe  Fe76      1.0  0.35804890806182704  0.4230081086045483  0.6424153586021812  1.0000
  S   S150      1.0  0.368718576466138  0.38496573545550505  0.6316185935658601  1.0000
  S   S151      1.0  0.3543960271133104  0.49787241191142423  0.6520589642597154  1.0000
  S   S152      1.0  0.36908780214463727  0.45665371354910045  0.6011423686353551  1.0000
  Fe  Fe77      1.0  0.49632817743921126  0.2874442583575854  0.7401142557105803  1.0000
  S   S153      1.0  0.464182087912896  0.28374472695314756  0.6996919118247286  1.0000
  S   S154      1.0  0.4865870343681344  0.24348286728634416  0.7665298695749374  1.0000
  Fe  Fe78      1.0  0.5400322926134643  0.3552999599323645  0.7251125726784404  1.0000
  S   S155      1.0  0.5114751065606271  0.35689605918264616  0.6840234192974908  1.0000
  S   S156      1.0  0.5825363327112956  0.39775143922055217  0.7416090677840101  1.0000
  Fe  Fe79      1.0  0.47211205694071523  0.32962396307448333  0.7176974851597138  1.0000
  S   S157      1.0  0.436060073156729  0.341660817809605  0.7322712701535788  1.0000
  Fe  Fe80      1.0  0.5062238987967079  0.31124678409795886  0.6694689489081599  1.0000
  S   S158      1.0  0.5178573980559875  0.30281902064060223  0.6181785186222446  1.0000
  S   S159      1.0  0.5012528515550546  0.331176344347465  0.7603258594075609  1.0000
  S   S160      1.0  0.5378168672194057  0.31175635227987475  0.7084393732383  1.0000
  Fe  Fe81      1.0  0.18032793909260925  0.718999519362843  0.8415498343544953  1.0000
  S   S161      1.0  0.21343282498372615  0.718402201267452  0.8048740455850717  1.0000
  S   S162      1.0  0.18889356880342145  0.749523657838331  0.8861840124880246  1.0000
  Fe  Fe82      1.0  0.12439817738371478  0.6714760532327555  0.8052420513382123  1.0000
  S   S163      1.0  0.15251939666529746  0.6668849317033128  0.7657975593212198  1.0000
  S   S164      1.0  0.07327160270029515  0.6453156034075516  0.7984314258603059  1.0000
  Fe  Fe83      1.0  0.18247797969221913  0.6671852310968681  0.8063020098402969  1.0000
  S   S165      1.0  0.19878594989081924  0.6337324223135813  0.795026467397978  1.0000
  Fe  Fe84      1.0  0.1815596071181079  0.7179565718580837  0.7661487194113228  1.0000
  S   S166      1.0  0.19105004847985288  0.7390536618433462  0.7148445513405279  1.0000
  S   S167      1.0  0.15190549940102374  0.6675912971302166  0.8462159550628482  1.0000
  S   S168      1.0  0.1508068260015987  0.722720168240082  0.8025223657348274  1.0000
  Fe  Fe85      1.0  0.8801806894301674  0.5527581278782508  0.8535625444164278  1.0000
  S   S169      1.0  0.8446395673122142  0.5219030951749716  0.8892471747721702  1.0000
  S   S170      1.0  0.8731523606854856  0.54980034634891  0.7985414565584693  1.0000
  Fe  Fe86      1.0  0.9294119697229676  0.5805277019362111  0.9057629096057039  1.0000
  S   S171      1.0  0.8978841622736978  0.5521864179475569  0.9464424125556443  1.0000
  S   S172      1.0  0.9797207984073014  0.6102522222167731  0.9159461512137327  1.0000
  Fe  Fe87      1.0  0.8805064888779134  0.5134603401274108  0.9100818669502365  1.0000
  S   S173      1.0  0.8705179173604167  0.46613056742845527  0.9241934145058601  1.0000
  Fe  Fe88      1.0  0.8640381968865355  0.5628169457600061  0.9231226470227604  1.0000
  S   S174      1.0  0.8274916335385551  0.5688176493037604  0.9488961210405513  1.0000
  S   S175      1.0  0.9146252395046066  0.5407139502235779  0.8717012704191657  1.0000
  S   S176      1.0  0.8971113230584622  0.5948608037896501  0.8851981321190782  1.0000
  Fe  Fe89      1.0  0.8816526418567436  0.298679968046879  0.772620768988743  1.0000
  S   S177      1.0  0.9134517474686429  0.29524490671847786  0.8084765488340311  1.0000
  S   S178      1.0  0.8672426704551813  0.2609031671410578  0.7340458254279383  1.0000
  Fe  Fe90      1.0  0.89121008130424  0.35765888830102305  0.8059128653016024  1.0000
  S   S179      1.0  0.9238198708019979  0.35835044582286957  0.8438175383125689  1.0000
  S   S180      1.0  0.8808504373176825  0.3961440486164027  0.7992262154315363  1.0000
  Fe  Fe91      1.0  0.9441116511915791  0.3455663033557874  0.8018510215966546  1.0000
  S   S181      1.0  0.9934557992945865  0.3656738830261547  0.7871025370980664  1.0000
  Fe  Fe92      1.0  0.8903011906702207  0.3077922711972991  0.847214214174098  1.0000
  S   S182      1.0  0.8814463509947478  0.2792992159203341  0.8929913580131179  1.0000
  S   S183      1.0  0.9139322670967774  0.3484935906208169  0.7633850538172472  1.0000
  S   S184      1.0  0.8559930079452029  0.30781288725984424  0.8121445903110968  1.0000
  Fe  Fe93      1.0  0.21194951155571481  0.4517918771082035  0.9068456652915584  1.0000
  S   S185      1.0  0.1796475386877181  0.4194204822566788  0.868573454884448  1.0000
  S   S186      1.0  0.2415404287281004  0.4365538291013125  0.9340768282592224  1.0000
  Fe  Fe94      1.0  0.19626428094265758  0.5012823664358632  0.8889040428189453  1.0000
  S   S187      1.0  0.16408789611843078  0.4734237681412333  0.848694797533188  1.0000
  S   S188      1.0  0.1988925565483592  0.5453593376193175  0.9057103083494222  1.0000
  Fe  Fe95      1.0  0.1470523288770628  0.43486250726868725  0.8846577895677149  1.0000
  S   S189      1.0  0.09676681833429962  0.40629177861964094  0.8959437828829147  1.0000
  Fe  Fe96      1.0  0.19935990187987204  0.4605904186964738  0.8356585219940419  1.0000
  S   S190      1.0  0.2072765881542854  0.4540272691903256  0.7822999759423128  1.0000
  S   S191      1.0  0.1774782461687929  0.463353964599376  0.9261449884788928  1.0000
  S   S192      1.0  0.23354651899569484  0.4922794736654878  0.872638258651886  1.0000
  C   C145      1.0  0.02195164898897195  0.3766962537119496  0.8175982079403968  1.0000
  C   C146      1.0  0.052601091795791366  0.39146695735002174  0.8081422838837976  1.0000
  C   C147      1.0  0.07578604781545961  0.40038601424730497  0.8318035743963343  1.0000
  C   C148      1.0  0.06844433084259247  0.39439672690085237  0.8651393819152017  1.0000
  C   C149      1.0  0.03780217542393401  0.37963996035820397  0.8745676197000228  1.0000
  C   C150      1.0  0.014640952785737182  0.37090290459884445  0.8509444853576904  1.0000
  H   H97       1.0  0.058481128514690055  0.39603805594352587  0.7824099011908806  1.0000
  H   H98       1.0  0.09930306358852399  0.4117673923182347  0.8242370284116125  1.0000
  H   H99       1.0  0.03193742159576951  0.3749627848207538  0.9003064144345555  1.0000
  H   H100      1.0  0.9911375807411222  0.35947846755852  0.8585433630352062  1.0000
  C   C151      1.0  0.8770039386382862  0.41436735588528056  0.8345201637920445  1.0000
  C   C152      1.0  0.8802590744290067  0.40563139670667736  0.8662417254026512  1.0000
  C   C153      1.0  0.8778213935683709  0.421275387631967  0.8938114837677434  1.0000
  C   C154      1.0  0.8726577905294504  0.44599753045453056  0.889708112840043  1.0000
  C   C155      1.0  0.8692986262322923  0.4546123793554198  0.8579975308719814  1.0000
  C   C156      1.0  0.8710959864267898  0.4386042115372448  0.8305544653694183  1.0000
  H   H101      1.0  0.8846546546181163  0.3868625684400052  0.8695346286295527  1.0000
  H   H102      1.0  0.8804117812276864  0.4145129556048681  0.9182916073705815  1.0000
  H   H103      1.0  0.8648011772820774  0.47331297412079554  0.8546169995637518  1.0000
  H   H104      1.0  0.8678470256809384  0.4450008368980133  0.8061448204571129  1.0000
  C   C157      1.0  0.1985430769060502  0.6093566354070584  0.8261688322256653  1.0000
  C   C158      1.0  0.19492067804784874  0.6144731558726796  0.8592613474766971  1.0000
  C   C159      1.0  0.19573180309169796  0.59507599446119  0.8835869930175745  1.0000
  C   C160      1.0  0.19962411920404197  0.5702216592211399  0.8748771430225514  1.0000
  C   C161      1.0  0.20283061604080302  0.5648861935266015  0.8417587929522437  1.0000
  C   C162      1.0  0.20255028794610283  0.5845771840950907  0.817508807604533  1.0000
  H   H105      1.0  0.19201583903972141  0.6336457637812335  0.866137678666491  1.0000
  H   H106      1.0  0.193241850064518  0.5992724215423967  0.9092023905440415  1.0000
  H   H107      1.0  0.2058638762425543  0.5457944760883363  0.8348332549998208  1.0000
  H   H108      1.0  0.20542184128366  0.5805467280934049  0.7919492173765164  1.0000
  C   C163      1.0  0.04731501922188525  0.633388260564608  0.8313724044301196  1.0000
  C   C164      1.0  0.016577924540021445  0.622898928773372  0.8246550234103179  1.0000
  C   C165      1.0  0.9954578695156178  0.6147483594390397  0.8503735577328821  1.0000
  C   C166      1.0  0.0050777451351537994  0.6175289854919829  0.8830643742391697  1.0000
  C   C167      1.0  0.03572883837457198  0.627465719169697  0.8897712745796089  1.0000
  C   C168      1.0  0.05673555792352143  0.634985217604295  0.8639737895702309  1.0000
  H   H109      1.0  0.009196602169003306  0.6217950307492791  0.7994681737301575  1.0000
  H   H110      1.0  0.9719392980716702  0.6073534094115886  0.8449730759831513  1.0000
  H   H111      1.0  0.043171713903190606  0.6292511085106611  0.9150248080748569  1.0000
  H   H112      1.0  0.08023244514428812  0.6422937572769547  0.8692534287764837  1.0000
  C   C169      1.0  0.29922667287739846  0.46656144172151515  0.7508654137346501  1.0000
  C   C170      1.0  0.2742285663963373  0.45240776678464967  0.7297481917093532  1.0000
  C   C171      1.0  0.24633688327715436  0.44966553298958467  0.7391488397652993  1.0000
  C   C172      1.0  0.243332345105359  0.46106034173089633  0.7696280452840579  1.0000
  C   C173      1.0  0.26865848862216757  0.4763008980970887  0.7901260940772691  1.0000
  C   C174      1.0  0.2965203108490048  0.47898834959034703  0.7807497341277561  1.0000
  H   H113      1.0  0.2761576074378536  0.4428670406562696  0.7065883768530384  1.0000
  H   H114      1.0  0.22684743920113337  0.4380311565520202  0.7230941063443485  1.0000
  H   H115      1.0  0.26669568713158337  0.48569857289267265  0.8133286084725209  1.0000
  H   H116      1.0  0.31601171167286046  0.49048782866287355  0.796821514447107  1.0000
  C   C175      1.0  0.25285266037415816  0.44537508757574795  0.9758092587763604  1.0000
  C   C176      1.0  0.25940181344497576  0.4134381250672346  0.504097431301756  1.0000
  C   C177      1.0  0.27578048622005247  0.42611769464172633  0.5334281742344581  1.0000
  C   C178      1.0  0.27809594782779595  0.4529770517482032  0.5463502952077957  1.0000
  C   C179      1.0  0.2643261737403085  0.4672355787509212  0.5293778060897029  1.0000
  C   C180      1.0  0.24407475933314374  0.4626712496470149  0.9951235968633863  1.0000
  H   H117      1.0  0.2573164940084638  0.39237656602740556  0.4945374661595048  1.0000
  H   H118      1.0  0.28617788172879577  0.41485608827414205  0.5462664791880972  1.0000
  H   H119      1.0  0.26595607067493454  0.4880115233642494  0.5392262676202308  1.0000
  H   H120      1.0  0.22983422724864466  0.470867470174546  0.9846636247206301  1.0000
  C   C181      1.0  0.41927445442779837  0.35539920765445104  0.703693196982045  1.0000
  C   C182      1.0  0.4199340027965925  0.35079738754122336  0.6698247186714564  1.0000
  C   C183      1.0  0.40437051694315757  0.3599854518379906  0.6480468208022252  1.0000
  C   C184      1.0  0.3886441475422679  0.3744974254200665  0.6597984676401767  1.0000
  C   C185      1.0  0.38896379074959747  0.3801433697032029  0.6935595914315872  1.0000
  C   C186      1.0  0.4038709247076147  0.3702610884333406  0.7154163065647902  1.0000
  H   H121      1.0  0.4316231048984524  0.339308342261969  0.6604750469287262  1.0000
  H   H122      1.0  0.4042836546698693  0.35557541572051554  0.621969930971204  1.0000
  H   H123      1.0  0.376887560233175  0.39123384532502997  0.7029262956916362  1.0000
  H   H124      1.0  0.4031943311774085  0.37389828526168317  0.7415692252566408  1.0000
  C   C187      1.0  0.4878104608448812  0.6193882497870538  0.6813495593129744  1.0000
  C   C188      1.0  0.45615770068536404  0.6006573280553202  0.6817634413261124  1.0000
  C   C189      1.0  0.4421468048465457  0.5721256136977888  0.6656814239904729  1.0000
  C   C190      1.0  0.4597059454866708  0.5625289446169253  0.6483372274340917  1.0000
  C   C191      1.0  0.49138138491233424  0.5813121588685943  0.6477121543346437  1.0000
  C   C192      1.0  0.5054648802109116  0.609530314970299  0.664531866132772  1.0000
  H   H125      1.0  0.44240763509802783  0.6081661411277721  0.694783964718771  1.0000
  H   H126      1.0  0.41773660230154225  0.5578113487382107  0.6663725184388364  1.0000
  H   H127      1.0  0.5050970583864937  0.5739958524186961  0.6343420252221009  1.0000
  H   H128      1.0  0.5298912369712876  0.6237961965658227  0.6641618831538273  1.0000
  C   C193      1.0  0.8228721161288423  0.5703717751894138  0.5494961115059793  1.0000
  C   C194      1.0  0.8394436414845381  0.5573039206617537  0.5361845974260232  1.0000
  C   C195      1.0  0.8442113559860602  0.5709413013721358  0.014326695797998834  1.0000
  C   C196      1.0  0.8225939170659401  0.5694839475491499  0.991985205930221  1.0000
  C   C197      1.0  0.8295559682353629  0.5973339110669804  0.4978856183281155  1.0000
  C   C198      1.0  0.8177895841943612  0.5902944158462629  0.5300941874113638  1.0000
  H   H129      1.0  0.8434366370166984  0.5418078565667698  0.5509970438746002  1.0000
  H   H130      1.0  0.8650532610937579  0.5726614585809747  0.005357368505816806  1.0000
  H   H131      1.0  0.8258182265950322  0.6130624967564634  0.4831797322696922  1.0000
  H   H132      1.0  0.8051316191587293  0.6005594500328995  0.5400012363704488  1.0000
  C   C199      1.0  0.7976107807209821  0.5663345490519937  0.7606185694457616  1.0000
  C   C200      1.0  0.8155047440710428  0.5608635933714936  0.7385212239726419  1.0000
  C   C201      1.0  0.8386788907699559  0.5558335309564597  0.7503745530641822  1.0000
  C   C202      1.0  0.8441584382678425  0.5564240478546676  0.7842887963154872  1.0000
  C   C203      1.0  0.8262835610400283  0.5619679707512784  0.8063290992319165  1.0000
  C   C204      1.0  0.8030450438292965  0.56686498336913  0.7945018738353283  1.0000
  H   H133      1.0  0.8115337449279016  0.5604986632335065  0.7123336137805166  1.0000
  H   H134      1.0  0.8525202272065606  0.5516466839113002  0.733232832203853  1.0000
  H   H135      1.0  0.8304117710505104  0.562543748579679  0.8325107768579  1.0000
  H   H136      1.0  0.7892599865494139  0.5710567846854632  0.8117252032206317  1.0000
  C   C205      1.0  0.647015689750037  0.4560920080302663  0.6597476234754053  1.0000
  C   C206      1.0  0.6473581743252682  0.46920235912758296  0.6902438332638612  1.0000
  C   C207      1.0  0.627118820210367  0.45123649252508047  0.7150906109560513  1.0000
  C   C208      1.0  0.6061714522003089  0.42025275149500285  0.7093928004242828  1.0000
  C   C209      1.0  0.6051923602104744  0.4073934499794099  0.6785599259031815  1.0000
  C   C210      1.0  0.625703042497778  0.42524638588031677  0.6538708688034762  1.0000
  H   H137      1.0  0.6632885297431136  0.49308502774722335  0.6947612087983882  1.0000
  H   H138      1.0  0.6274763600457546  0.4613524300806863  0.7387215108747253  1.0000
  H   H139      1.0  0.5889999803302404  0.38352808273849825  0.6739257628880893  1.0000
  H   H140      1.0  0.6251626730211195  0.4150073531229414  0.6302615399385585  1.0000
  C   C211      1.0  0.6954522576268407  0.6357504542275519  0.6592049990192129  1.0000
  C   C212      1.0  0.6936583383561252  0.6627320137110563  0.6575300054650834  1.0000
  C   C213      1.0  0.6735065948105055  0.6669272784584167  0.6779119416209028  1.0000
  C   C214      1.0  0.6551523429425216  0.6442259219856098  0.7004100745059777  1.0000
  C   C215      1.0  0.6565034216078609  0.6170064846361862  0.7015641499583076  1.0000
  C   C216      1.0  0.6762604451482692  0.612629658716435  0.6808566745394393  1.0000
  H   H141      1.0  0.7082515919154024  0.6807060479803615  0.6407483048737393  1.0000
  H   H142      1.0  0.6727613533706327  0.688035865983573  0.676860687903825  1.0000
  H   H143      1.0  0.6423171128895176  0.5992893601962151  0.7188082509266036  1.0000
  H   H144      1.0  0.6768511525435711  0.59150444129197  0.6820425679801064  1.0000
  C   C217      1.0  0.7867846641636551  0.226273784276751  0.937639825249375  1.0000
  C   C218      1.0  0.8096419407768287  0.22019258400481567  0.9473577732160898  1.0000
  C   C219      1.0  0.8386210980055576  0.23661079901899076  0.9333556891919935  1.0000
  C   C220      1.0  0.844640634901824  0.2586208938221986  0.9090576231244958  1.0000
  C   C221      1.0  0.8214419547984457  0.26377340684763945  0.8982875334213337  1.0000
  C   C222      1.0  0.7925241465506636  0.24754931053413615  0.9125407255828643  1.0000
  H   H145      1.0  0.805127088035883  0.20322821270820107  0.9661018451245345  1.0000
  H   H146      1.0  0.8564773854823265  0.23232510644491297  0.9414618853267445  1.0000
  H   H147      1.0  0.8259463038720598  0.2807815796630929  0.8796194508276663  1.0000
  H   H148      1.0  0.7747883480764194  0.25216239551542086  0.9048149817260858  1.0000
  C   C223      1.0  0.8372045906589209  0.24764901070193351  0.7049028243112788  1.0000
  C   C224      1.0  0.8162576537195247  0.25801583065953576  0.704791550683986  1.0000
  C   C225      1.0  0.7924215148558584  0.2462930883080686  0.6815635864093461  1.0000
  C   C226      1.0  0.7893601372715161  0.2242995572696458  0.658070740687676  1.0000
  C   C227      1.0  0.8104734728770167  0.21411665303802482  0.6580897051168081  1.0000
  C   C228      1.0  0.8341677302841441  0.22565400215763437  0.6814648250385478  1.0000
  H   H149      1.0  0.8182505197214872  0.2749077744579987  0.7226428909482534  1.0000
  H   H150      1.0  0.776203578146034  0.25430478024108827  0.6817639690893236  1.0000
  H   H151      1.0  0.8083726066399523  0.19716614895435983  0.6402505489548878  1.0000
  H   H152      1.0  0.8501658338536643  0.21737903207357612  0.6813529382490446  1.0000
  C   C229      1.0  0.5943416983482003  0.8198296925348487  0.5971797182460113  1.0000
  C   C230      1.0  0.6124830779205106  0.8111129349231195  0.5795606862300525  1.0000
  C   C231      1.0  0.6256034107166586  0.7957988695110824  0.5956341045953935  1.0000
  C   C232      1.0  0.6200542941421073  0.7884391925032265  0.6291473292163249  1.0000
  C   C233      1.0  0.6017363370761196  0.7969834887976076  0.6466760641452491  1.0000
  C   C234      1.0  0.5889854448999328  0.8126906361736977  0.6307263145528598  1.0000
  H   H153      1.0  0.6164873462228919  0.8162238746875695  0.5536137776378907  1.0000
  H   H154      1.0  0.6398062450071926  0.7892582997546875  0.5819702584011621  1.0000
  H   H155      1.0  0.5976120376636601  0.7916942587046086  0.6725986240621352  1.0000
  H   H156      1.0  0.5749850053389743  0.8194180982550118  0.6444925437012531  1.0000
  C   C235      1.0  0.6223278423286971  0.8255427614799427  0.878345331935947  1.0000
  C   C236      1.0  0.6330123747134097  0.8273116381030671  0.8460482575197548  1.0000
  C   C237      1.0  0.6234839242183517  0.8006570437325405  0.8268338468728583  1.0000
  C   C238      1.0  0.6035223631284868  0.7718982096776836  0.8400030319842191  1.0000
  C   C239      1.0  0.5930684636407529  0.7701682360851797  0.872421075238627  1.0000
  C   C240      1.0  0.6023966050196338  0.7967864714355652  0.8915103287547472  1.0000
  H   H157      1.0  0.6487231222985756  0.8494282890306055  0.8357512905915921  1.0000
  H   H158      1.0  0.6318525042070168  0.802297867031579  0.8020209989878436  1.0000
  H   H159      1.0  0.5778453668821412  0.7479650708720267  0.8828792680881217  1.0000
  H   H160      1.0  0.5945246597775455  0.7949391493547827  0.9165428489981962  1.0000
  C   C241      1.0  0.6515217750206603  0.003958605211992872  0.9927055222387943  1.0000
  C   C242      1.0  0.660613909810244  0.034341331913830375  0.9840611329862018  1.0000
  C   C243      1.0  0.6834509735952635  0.05906483766851861  0.0019469467985717692  1.0000
  C   C244      1.0  0.6910449367865648  0.03162927979115903  0.5482922171075635  1.0000
  C   C245      1.0  0.6666200630335525  0.0021640503299855673  0.5544312345692911  1.0000
  C   C246      1.0  0.6591815997298973  0.9780531100111407  0.532016044645941  1.0000
  H   H161      1.0  0.6500624576431808  0.03877206605781442  0.9632733124434673  1.0000
  H   H162      1.0  0.6906131350947566  0.08229129806153916  0.9946194810831672  1.0000
  H   H163      1.0  0.6533373776638294  0.9980426470870626  0.5765794609157534  1.0000
  H   H164      1.0  0.6402397950605371  0.9555657070026817  0.5368735078963822  1.0000
  C   C247      1.0  0.46425974133702475  0.21211278868510386  0.5626491419211478  1.0000
  C   C248      1.0  0.4494086845402372  0.2210319822337702  0.5855440485554079  1.0000
  C   C249      1.0  0.4655109195342375  0.248850197877803  0.6028595974245856  1.0000
  C   C250      1.0  0.49646905126155183  0.268012458522854  0.5969654645138249  1.0000
  C   C251      1.0  0.511158467935228  0.25929434370405724  0.5737355368327229  1.0000
  C   C252      1.0  0.49525815266921547  0.23118592183048656  0.5571492208217814  1.0000
  H   H165      1.0  0.42536052833349025  0.2064170626633587  0.589825777584006  1.0000
  H   H166      1.0  0.45392463709369785  0.25564257638447546  0.6204248602087261  1.0000
  H   H167      1.0  0.5351442680310057  0.2740271365412566  0.5691699871311792  1.0000
  H   H168      1.0  0.507057527139819  0.22437209138309328  0.5401554010721855  1.0000
  C   C253      1.0  0.4870061630632288  0.22753595855755093  0.8780898185803291  1.0000
  C   C254      1.0  0.49351587931144236  0.25640195842464003  0.8661325319335134  1.0000
  C   C255      1.0  0.49380079562788537  0.26179596990279486  0.8320839342898979  1.0000
  C   C256      1.0  0.48729314218831893  0.23821629980782982  0.8096120309843684  1.0000
  C   C257      1.0  0.480850700703061  0.2093795231804544  0.8215446413649522  1.0000
  C   C258      1.0  0.48077436430420767  0.20404755841406103  0.8555902944704199  1.0000
  H   H169      1.0  0.4985163492037555  0.2747560725865434  0.8833718648677615  1.0000
  H   H170      1.0  0.49911412929604104  0.28417814685443016  0.8232707083479751  1.0000
  H   H171      1.0  0.4756453602224436  0.19093109737392966  0.8043836697559467  1.0000
  H   H172      1.0  0.4754788020077025  0.1816573696168272  0.8644174737602217  1.0000
  C   C259      1.0  0.5898948174655668  0.15155935601888149  0.5197612338711852  1.0000
  C   C260      1.0  0.6234246777689558  0.17017411103606614  0.9870192000140112  1.0000
  C   C261      1.0  0.6415983625865356  0.1692651576884501  0.012559012397188818  1.0000
  C   C262      1.0  0.6434063667590627  0.15246966440749188  0.49945413395705096  1.0000
  C   C263      1.0  0.6373218452378396  0.1526805783962609  0.5329233743423846  1.0000
  C   C264      1.0  0.6106355739565811  0.1522039499104772  0.5430122696918364  1.0000
  H   H173      1.0  0.6322411890994466  0.17519199327281362  0.9622142045084481  1.0000
  H   H174      1.0  0.6643161418460483  0.17374994802034802  0.007331407534186374  1.0000
  H   H175      1.0  0.6533668709231018  0.15370010802140582  0.5510884132725815  1.0000
  H   H176      1.0  0.6062777476146783  0.15278964888029126  0.5689885980032748  1.0000
  C   C265      1.0  0.22649748313481122  0.762978310883402  0.6957117074617187  1.0000
  C   C266      1.0  0.25404284777144126  0.7735974696551242  0.7123666071684225  1.0000
  C   C267      1.0  0.28166252331837643  0.7915506429254618  0.6957415814720151  1.0000
  C   C268      1.0  0.28207320812658093  0.7992964518440862  0.662438946827101  1.0000
  C   C269      1.0  0.2545564489738746  0.7887063334319002  0.6457883270576172  1.0000
  C   C270      1.0  0.22692962053283933  0.7706284542920367  0.6623818398473094  1.0000
  H   H177      1.0  0.2540844963849995  0.7683137905327035  0.7381307861923123  1.0000
  H   H178      1.0  0.30282999573926966  0.7998611428209073  0.7089167264537948  1.0000
  H   H179      1.0  0.2545310522796077  0.7944557302487475  0.6201686092264059  1.0000
  H   H180      1.0  0.20573461940647567  0.7625145357247392  0.6492853080953264  1.0000
  C   C271      1.0  0.28207097119922364  0.7944636731938022  0.9367587846191647  1.0000
  C   C272      1.0  0.27467589435112655  0.7718049712339157  0.9126272993820723  1.0000
  C   C273      1.0  0.24627181535094203  0.7580179508576461  0.8968559558382051  1.0000
  C   C274      1.0  0.22495603124639066  0.7667566575471515  0.9051784659243886  1.0000
  C   C275      1.0  0.23228035249762077  0.7894287658439961  0.9293386584997412  1.0000
  C   C276      1.0  0.26088402879832007  0.8034993329958077  0.9448290095219514  1.0000
  H   H181      1.0  0.2910513635814127  0.764886998340825  0.9060439324694533  1.0000
  H   H182      1.0  0.24088989999090113  0.7405844431232762  0.8783164463623232  1.0000
  H   H183      1.0  0.2160484371458261  0.7966129935444719  0.9355451074307465  1.0000
  H   H184      1.0  0.26682662374646476  0.8217992028529323  0.9623931422686841  1.0000
  C   C277      1.0  0.4398241527161333  0.8450199436499648  0.5148696611873012  1.0000
  C   C278      1.0  0.46934820324753423  0.8411523717490367  0.04767657163126504  1.0000
  C   C279      1.0  0.4884110993319623  0.8413956294205551  0.02252589618926759  1.0000
  C   C280      1.0  0.49050292813442836  0.8648547904959647  0.4733403033046288  1.0000
  C   C281      1.0  0.4883153918778215  0.8485495403628636  0.5019393791756521  1.0000
  C   C282      1.0  0.46291111215070974  0.8384160237562245  0.5224407449184615  1.0000
  H   H185      1.0  0.4776184147489061  0.8461326943943912  0.07274064119141288  1.0000
  H   H186      1.0  0.5110981333356944  0.8461495759697808  0.02837259585740881  1.0000
  H   H187      1.0  0.5059988328666102  0.8433765464577424  0.5080854473215541  1.0000
  H   H188      1.0  0.46114470628418136  0.8253460930409341  0.5442254309166578  1.0000
  C   C283      1.0  0.3964023482086703  0.98109759440962  0.5296852666354231  1.0000
  C   C284      1.0  0.404220477772663  0.011166436402686664  0.538383942201302  1.0000
  C   C285      1.0  0.4152743940118246  0.034530077575859255  0.514672574982885  1.0000
  C   C286      1.0  0.4153642224283844  0.03294220031817037  0.9791791784497343  1.0000
  C   C287      1.0  0.38879430441995994  0.004394628291939372  0.9756212368325343  1.0000
  C   C288      1.0  0.3995368185683014  0.9744619160951549  0.4969756744854047  1.0000
  H   H189      1.0  0.4016302183956707  0.016409523438518203  0.5636146345452586  1.0000
  H   H190      1.0  0.4208932572669153  0.057521195429989874  0.521617052365077  1.0000
  H   H191      1.0  0.3712431927824913  0.0021484242754212786  0.9588578929245752  1.0000
  H   H192      1.0  0.39392168434861  0.9514480313556916  0.4900934140724602  1.0000
  N   N1        1.0  0.4829799599531941  0.9305957209187631  0.009444207317964803  1.0000
  C   C289      1.0  0.5113539956371639  0.9551854345437271  0.9950370798706762  1.0000
  C   C290      1.0  0.4632151107436102  0.9430465587770279  0.019412722516866987  1.0000
  C   C291      1.0  0.49017344150202175  0.9178438970052404  0.03858245141499128  1.0000
  C   C292      1.0  0.4670577966313371  0.9061161949106855  0.9847458917253553  1.0000
  H   H193      1.0  0.5239903376295597  0.9740753742871259  0.01296269599372546  1.0000
  H   H194      1.0  0.5066618408197123  0.9651968530761802  0.9729259291395385  1.0000
  H   H195      1.0  0.526703930406287  0.9463786798437654  0.9873105763607063  1.0000
  H   H196      1.0  0.44199097795768405  0.9251369432648894  0.031206944408576964  1.0000
  H   H197      1.0  0.4745070284617738  0.9620071870160578  0.03756888399072711  1.0000
  H   H198      1.0  0.4562425684571428  0.9519313434008624  0.9980224959616997  1.0000
  H   H199      1.0  0.4691279711436518  0.8996840496052502  0.0504341503536494  1.0000
  H   H200      1.0  0.5026772901947352  0.935711372825844  0.05755825161535011  1.0000
  H   H201      1.0  0.5042553093117883  0.9073142629755603  0.03188575040259467  1.0000
  H   H202      1.0  0.4455200506195514  0.8873276699463619  0.9948126665620921  1.0000
  H   H203      1.0  0.4810800297494178  0.8958163125953793  0.9769365770671952  1.0000
  H   H204      1.0  0.46115579799076833  0.9147752022748775  0.962385529730733  1.0000
  N   N2        1.0  0.2553528253035194  0.40330784535147035  0.846571299774005  1.0000
  C   C293      1.0  0.23408608819953705  0.3836827930154444  0.8723346155531426  1.0000
  C   C294      1.0  0.27781701098006617  0.3934461919722526  0.8398210013500106  1.0000
  C   C295      1.0  0.27129234481987147  0.43545851119134343  0.8580408198426704  1.0000
  C   C296      1.0  0.2383158286109777  0.40072790170321565  0.8161054671073297  1.0000
  H   H205      1.0  0.21696751393102034  0.3907017531582834  0.8780097939319211  1.0000
  H   H206      1.0  0.24611218912675953  0.38546791431526445  0.8958676120780219  1.0000
  H   H207      1.0  0.22161619848170885  0.35920520206380396  0.8647532629847877  1.0000
  H   H208      1.0  0.29416465898061145  0.4079122920616677  0.8203956110651786  1.0000
  H   H209      1.0  0.29119087509900266  0.3952747502074241  0.8622558004532477  1.0000
  H   H210      1.0  0.26661258715888275  0.3692914805794116  0.8310655201615221  1.0000
  H   H211      1.0  0.28877505775119844  0.4507139496088342  0.8401826439180846  1.0000
  H   H212      1.0  0.2829157350906181  0.4379567293104381  0.8820071668888297  1.0000
  H   H213      1.0  0.2552337220124722  0.444247357346695  0.8616779593691194  1.0000
  H   H214      1.0  0.22479231295613525  0.3765889251790438  0.8075909248515596  1.0000
  H   H215      1.0  0.2538473267036616  0.4140273550709203  0.7956804649931017  1.0000
  H   H216      1.0  0.22232485187428677  0.40964219169476973  0.8196588845791601  1.0000
  N   N3        1.0  0.6744757686641656  0.8394596265276433  0.9867508360810134  1.0000
  C   C297      1.0  0.6898506890750445  0.8649103847542753  0.9631038251800416  1.0000
  C   C298      1.0  0.6714946186127583  0.8516178300245196  0.018857668807289674  1.0000
  C   C299      1.0  0.6924456880614551  0.8239067888271311  0.9909620071032175  1.0000
  C   C300      1.0  0.6440475029365144  0.8173267692225599  0.9740230561021327  1.0000
  H   H217      1.0  0.6916205746968774  0.8564535749629407  0.9382913668611237  1.0000
  H   H218      1.0  0.7131070141643491  0.8818972670485085  0.9714848879902758  1.0000
  H   H219      1.0  0.6770854752247008  0.8774052394497542  0.9597364231482901  1.0000
  H   H220      1.0  0.6606780573410161  0.8331834431928029  0.03759697156815722  1.0000
  H   H221      1.0  0.6939038243044184  0.8691386110026327  0.02881032797763794  1.0000
  H   H222      1.0  0.6572109261022667  0.862619088721123  0.01692053848974928  1.0000
  H   H223      1.0  0.6812795181673057  0.804426921571416  0.008497512907631233  1.0000
  H   H224      1.0  0.7154983939082522  0.8398953842191222  0.0007630729239429535  1.0000
  H   H225      1.0  0.6952437053867574  0.814562987193335  0.9671640640310448  1.0000
  H   H226      1.0  0.6313822972428398  0.7981553521233958  0.9915575306243349  1.0000
  H   H227      1.0  0.6454699314221428  0.8073650781992707  0.950019197867672  1.0000
  H   H228      1.0  0.6302972996118907  0.8286004790601321  0.9697031113325426  1.0000
  N   N4        1.0  0.5297463099538621  0.8094297827558737  0.869784778051928  1.0000
  C   C301      1.0  0.49692803141391606  0.7870946978430082  0.8682293841929593  1.0000
  C   C302      1.0  0.5419450516061828  0.8063035760555997  0.9015918300297242  1.0000
  C   C303      1.0  0.5345546789690278  0.8408290949895706  0.8669439278749378  1.0000
  C   C304      1.0  0.54562953229825  0.8035599793530713  0.8426571271836867  1.0000
  H   H229      1.0  0.49254369101208206  0.7631815988769454  0.8705762437661914  1.0000
  H   H230      1.0  0.48684486769979807  0.7887281893930538  0.8445524262542744  1.0000
  H   H231      1.0  0.48444912643694793  0.7910650961096076  0.88851284367692  1.0000
  H   H232      1.0  0.5663044202861726  0.8238689042286734  0.9042642267940783  1.0000
  H   H233      1.0  0.5296481084538186  0.8093060712892202  0.9226222271892335  1.0000
  H   H234      1.0  0.5398889866195438  0.7833293424123007  0.9041355943694257  1.0000
  H   H235      1.0  0.5251746254440979  0.8439874280723778  0.8435013626946657  1.0000
  H   H236      1.0  0.5591607540371516  0.8582216282627334  0.8677077096291338  1.0000
  H   H237      1.0  0.5234374959751839  0.846202618500978  0.8875621437735797  1.0000
  H   H238      1.0  0.5368556421734804  0.8053883821652088  0.8182006980697836  1.0000
  H   H239      1.0  0.5430199083328413  0.7802517286250189  0.8443630192186063  1.0000
  H   H240      1.0  0.5704346388161022  0.8202310452146514  0.8431115643892275  1.0000
  N   N5        1.0  0.8340599888098965  0.46491554450709854  0.29580237992053304  1.0000
  C   C305      1.0  0.8667976776844433  0.4854813483178967  0.2899646287751119  1.0000
  C   C306      1.0  0.8184734480306154  0.48310265637976385  0.2970258127812296  1.0000
  C   C307      1.0  0.8298167203524266  0.4488382228737724  0.32739081311171797  1.0000
  C   C308      1.0  0.8212367261370234  0.4422329128992789  0.2688081373631185  1.0000
  H   H241      1.0  0.8708701085623419  0.49901098731742694  0.26701886639670036  1.0000
  H   H242      1.0  0.8791355873940662  0.472457716942004  0.2877514253075227  1.0000
  H   H243      1.0  0.8774435733931412  0.5022396637419175  0.3104411829931173  1.0000
  H   H244      1.0  0.7938356698693887  0.46855279933751365  0.3022014513683041  1.0000
  H   H245      1.0  0.8282959884379497  0.5011242208836916  0.3164414061977851  1.0000
  H   H246      1.0  0.8207238901426175  0.4950336440635822  0.2733281884984463  1.0000
  H   H247      1.0  0.8053902578503873  0.43355512091305515  0.33302897530852493  1.0000
  H   H248      1.0  0.8399364935543762  0.4653207922572208  0.3482430470305064  1.0000
  H   H249      1.0  0.8408106337012037  0.4344393334618943  0.32697112872005074  1.0000
  H   H250      1.0  0.7965192550654109  0.426380984836007  0.27233106167559623  1.0000
  H   H251      1.0  0.8324993400733336  0.42805870235282345  0.2673420087743007  1.0000
  H   H252      1.0  0.8242928900040952  0.45366878497103136  0.24457760898887235  1.0000
  N   N6        1.0  0.5177641321668891  0.808636532057826  0.37692245733147944  1.0000
  C   C309      1.0  0.5187472885645211  0.78544956907773  0.35531435448009724  1.0000
  C   C310      1.0  0.5472791876554822  0.8372702506030811  0.3756352061852089  1.0000
  C   C311      1.0  0.5115817594510604  0.7971937471616017  0.4110850304796842  1.0000
  C   C312      1.0  0.4935894847141103  0.8147956742991336  0.3658417377781315  1.0000
  H   H253      1.0  0.49682065742692216  0.7635162978338965  0.3554989545532433  1.0000
  H   H254      1.0  0.5367107397560886  0.7803038651689896  0.3633915518564578  1.0000
  H   H255      1.0  0.5238830867661587  0.7934928384311118  0.32939473417379356  1.0000
  H   H256      1.0  0.5658997572495796  0.8336532344953026  0.3848676729611489  1.0000
  H   H257      1.0  0.5532379813540862  0.8461709281185684  0.3501015536518774  1.0000
  H   H258      1.0  0.5470206627678574  0.8555255449558979  0.3909848343179348  1.0000
  H   H259      1.0  0.5108819290438918  0.8142694650749954  0.4280708064756618  1.0000
  H   H260      1.0  0.5294425479779568  0.7923504073327757  0.4202743172848332  1.0000
  H   H261      1.0  0.48943626961708514  0.7756524144192151  0.41310742458224226  1.0000
  H   H262      1.0  0.4976668463363016  0.8237669263803187  0.340253806075546  1.0000
  H   H263      1.0  0.4924018799000083  0.8321838251136815  0.3819699191972549  1.0000
  H   H264      1.0  0.4709368262678157  0.7937025787569482  0.3665079558741053  1.0000
  N   N7        1.0  0.5020882930743229  0.6927943604082224  0.12214012721980547  1.0000
  C   C313      1.0  0.5218936632827863  0.7263892643051925  0.12436791747754697  1.0000
  C   C314      1.0  0.4783197037544536  0.6854918885452325  0.09713142673391523  1.0000
  C   C315      1.0  0.4877255794590381  0.6806355024879196  0.15439174329487707  1.0000
  C   C316      1.0  0.5203953722235405  0.6785922781352035  0.11256863883904437  1.0000
  H   H265      1.0  0.54060701229891  0.7327116868675279  0.1423167329833363  1.0000
  H   H266      1.0  0.5091043234179503  0.7379626519349893  0.1322083651797676  1.0000
  H   H267      1.0  0.5328552572023019  0.7363293794707372  0.1003494697968621  1.0000
  H   H268      1.0  0.46420516047884475  0.6960419057300479  0.10350305343455936  1.0000
  H   H269      1.0  0.488445000999145  0.6941428262709362  0.07246064099123986  1.0000
  H   H270      1.0  0.4628912183186928  0.6602985578836973  0.09497639568152035  1.0000
  H   H271      1.0  0.47229174184363243  0.6553782968991525  0.1534499354966871  1.0000
  H   H272      1.0  0.474226348854276  0.6912408462769483  0.1628858342596759  1.0000
  H   H273      1.0  0.5049624688320327  0.6850286594544062  0.17372353680216823  1.0000
  H   H274      1.0  0.5060546555641173  0.6534353869639575  0.10908105238830189  1.0000
  H   H275      1.0  0.5376207859111642  0.6824121560520104  0.13171861261811585  1.0000
  H   H276      1.0  0.5330308730354423  0.6884516844404949  0.08929233265099902  1.0000
  N   N8        1.0  0.13915397399099305  0.376346334047209  0.49889788154907366  1.0000
  C   C317      1.0  0.11716466183124527  0.38688789757852576  0.4923489349656283  1.0000
  C   C318      1.0  0.12629376462108538  0.3512332846434617  0.5231452433317165  1.0000
  C   C319      1.0  0.16766857169157567  0.4020470183844575  0.5119815907249206  1.0000
  C   C320      1.0  0.145551037591462  0.36516141652564627  0.4679681580444093  1.0000
  H   H277      1.0  0.09563595458094964  0.3682589480605137  0.48166791839314393  1.0000
  H   H278      1.0  0.12618165718637697  0.4058782147480269  0.4741651330622576  1.0000
  H   H279      1.0  0.11155629046440306  0.39536161086334226  0.5150893248418723  1.0000
  H   H280      1.0  0.14238074354808586  0.34276501826706574  0.528449576769129  1.0000
  H   H281      1.0  0.12129120073641203  0.3589101517975917  0.5468633742402466  1.0000
  H   H282      1.0  0.10480649036487649  0.33146204679648683  0.5139400473751916  1.0000
  H   H283      1.0  0.17824159110319102  0.42123580915114534  0.49407065841850106  1.0000
  H   H284      1.0  0.18481147325615815  0.3948700660228296  0.516996026982167  1.0000
  H   H285      1.0  0.1638882303583724  0.4113468164732443  0.5352441241970559  1.0000
  H   H286      1.0  0.1621205297590062  0.3570305407003988  0.47175339942046823  1.0000
  H   H287      1.0  0.1556932304897305  0.38376572393433733  0.4495364069616757  1.0000
  H   H288      1.0  0.12457838375562132  0.346196184944366  0.45679398241815145  1.0000
  N   N9        1.0  0.6144330395372868  0.5339829327967712  0.1517524854127863  1.0000
  C   C321      1.0  0.6101401846874137  0.5067832840882971  0.17010864929993003  1.0000
  C   C322      1.0  0.6261841091093506  0.5606453363508999  0.17419412027151557  1.0000
  C   C323      1.0  0.5850731245517471  0.5279566014644756  0.13785801238340037  1.0000
  C   C324      1.0  0.6363267506248994  0.5405752457897548  0.12476644982239443  1.0000
  H   H289      1.0  0.5938134141399828  0.5010547701349656  0.19072960710947998  1.0000
  H   H290      1.0  0.6318863637208556  0.5104288713015671  0.18075456285832556  1.0000
  H   H291      1.0  0.6014582837595495  0.4863057634592464  0.153813438720177  1.0000
  H   H292      1.0  0.6486971273502726  0.5663466911173163  0.1845130155758045  1.0000
  H   H293      1.0  0.629287121483615  0.581449686605737  0.16116900174511284  1.0000
  H   H294      1.0  0.6105929380546583  0.5564387199641116  0.19522137504140513  1.0000
  H   H295      1.0  0.5680292015228501  0.5229852606005682  0.15756938257087114  1.0000
  H   H296      1.0  0.5755483890042731  0.5079452230241425  0.12081443245030644  1.0000
  H   H297      1.0  0.5875674116772938  0.5480516492767843  0.123794982874694  1.0000
  H   H298      1.0  0.6404511771651015  0.5611887018291293  0.11054433369311638  1.0000
  H   H299      1.0  0.6284568941350255  0.5208814661803524  0.10745557216489383  1.0000
  H   H300      1.0  0.6587121370340453  0.5452938336216809  0.1343851944168458  1.0000
  N   N10       1.0  0.5762498959401758  0.23394277985579062  0.8969564155205656  1.0000
  C   C325      1.0  0.5736635970483165  0.2413271044881966  0.931592902405346  1.0000
  C   C326      1.0  0.5749087803238592  0.2567644943049622  0.8752425141968557  1.0000
  C   C327      1.0  0.5509247516414149  0.20315663945905388  0.8888339018797927  1.0000
  C   C328      1.0  0.605314870254942  0.23434400194102015  0.892311310506197  1.0000
  H   H301      1.0  0.5745337072366581  0.22448827254348527  0.9486567236920012  1.0000
  H   H302      1.0  0.5518569806051495  0.2410131439160688  0.936055583900908  1.0000
  H   H303      1.0  0.592369469175908  0.26439641980014555  0.9386741246667416  1.0000
  H   H304      1.0  0.5763781617804138  0.25172123532134716  0.8488505141323299  1.0000
  H   H305      1.0  0.5531608051719713  0.2568739258773236  0.8785539760861837  1.0000
  H   H306      1.0  0.5936935257449939  0.2803136729317572  0.8806006004084953  1.0000
  H   H307      1.0  0.5514470230549694  0.19711098036950941  0.8626083362706705  1.0000
  H   H308      1.0  0.5286274373910931  0.20166571035794953  0.8933534935012427  1.0000
  H   H309      1.0  0.5517940233306008  0.1852527396480255  0.9040628033648053  1.0000
  H   H310      1.0  0.6250134766036334  0.25719080751706896  0.8982865642993555  1.0000
  H   H311      1.0  0.6079341607459329  0.22853759512136917  0.8665368387916738  1.0000
  H   H312      1.0  0.6067537079033571  0.2172805566699479  0.9086427432731334  1.0000
  N   N11       1.0  0.2967927916481688  0.791732008685165  0.29788141049667943  1.0000
  C   C329      1.0  0.2823445978248488  0.7971169832195796  0.2690177251612682  1.0000
  C   C330      1.0  0.2848579913464693  0.7977981857581503  0.3284566345378494  1.0000
  C   C331      1.0  0.3299721598259858  0.812239138902566  0.29634649194057155  1.0000
  C   C332      1.0  0.2899525620048861  0.7595710950353038  0.29770296324583995  1.0000
  H   H313      1.0  0.29101900400834546  0.7928605506192044  0.24556206619690696  1.0000
  H   H314      1.0  0.28652297499411294  0.8209989738433866  0.2684301133334107  1.0000
  H   H315      1.0  0.2573372092731428  0.7814136794440101  0.268928980250604  1.0000
  H   H316      1.0  0.29525571821083335  0.7938061107123122  0.35068840103602056  1.0000
  H   H317      1.0  0.2892648727713004  0.8217475387516593  0.32953308433246853  1.0000
  H   H318      1.0  0.2599227324532183  0.7822660643845428  0.3306579728159192  1.0000
  H   H319      1.0  0.3414898442380671  0.8086178291773775  0.31776960667111986  1.0000
  H   H320      1.0  0.33595213706159033  0.8367283710000939  0.2963794053108414  1.0000
  H   H321      1.0  0.339596842879321  0.8080503766306156  0.2735777171251988  1.0000
  H   H322      1.0  0.29995280316185735  0.7542823500830106  0.31938002044929775  1.0000
  H   H323      1.0  0.2982267466555767  0.7538088475067887  0.2748831187817481  1.0000
  H   H324      1.0  0.26514471736548495  0.7437536937565766  0.2987359682048792  1.0000
  N   N12       1.0  0.6745886796882229  0.7419647057826183  0.31200522036466255  1.0000
  C   C333      1.0  0.6835408377089626  0.7491163653599797  0.27717355600245835  1.0000
  C   C334      1.0  0.6588234307016263  0.70839738604352  0.3166707746866563  1.0000
  C   C335      1.0  0.6540173856169857  0.7537091550860082  0.32096358588417595  1.0000
  C   C336      1.0  0.7019313382355974  0.7566274570161505  0.33303084815890305  1.0000
  H   H325      1.0  0.6949775607776942  0.7741689724529349  0.27234746714340147  1.0000
  H   H326      1.0  0.6633902140407548  0.7379605802048202  0.2608424881339371  1.0000
  H   H327      1.0  0.6989537700368563  0.7404777439859503  0.26929702221988927  1.0000
  H   H328      1.0  0.6733823617386983  0.6986213107527742  0.3091628883382134  1.0000
  H   H329      1.0  0.6519472472410808  0.7019983630310178  0.3427072844098991  1.0000
  H   H330      1.0  0.6379460909896122  0.6966748173930023  0.30126161920419686  1.0000
  H   H331      1.0  0.6331768312517517  0.7430533321074607  0.30551473298885656  1.0000
  H   H332      1.0  0.6648745947189981  0.7789088826150059  0.3171592795466598  1.0000
  H   H333      1.0  0.6467142531425845  0.7489200567606624  0.34710384017036866  1.0000
  H   H334      1.0  0.7179018433401243  0.7482250481228678  0.3268058040744727  1.0000
  H   H335      1.0  0.6959664895377221  0.7517431111059689  0.3595182636965082  1.0000
  H   H336      1.0  0.7143199592044646  0.7819610593656678  0.329938637680014  1.0000
  N   N13       1.0  0.23775115213568404  0.7565863993394717  0.036727669668759476  1.0000
  C   C337      1.0  0.21347500530374988  0.7526571662734538  0.05962747035471867  1.0000
  C   C338      1.0  0.2581404705957221  0.7478379957370137  0.05350195986784216  1.0000
  C   C339      1.0  0.2551725485054481  0.7889477809008215  0.02655073691108652  1.0000
  C   C340      1.0  0.224430127816869  0.7371631434101829  0.007221710555252912  1.0000
  H   H337      1.0  0.1977635318486303  0.7592688832740797  0.047936500700631664  1.0000
  H   H338      1.0  0.22315046123850535  0.7672689039628259  0.08202334005631472  1.0000
  H   H339      1.0  0.19986606304176754  0.7285112807680215  0.06801180751738614  1.0000
  H   H340      1.0  0.27655109761294494  0.7501392237164317  0.03681185764970942  1.0000
  H   H341      1.0  0.26908646275529685  0.762612874437412  0.0754696862562359  1.0000
  H   H342      1.0  0.24565206565609454  0.7236995250797273  0.06212654711788063  1.0000
  H   H343      1.0  0.27407916628670037  0.7928948970895855  0.009796083797682176  1.0000
  H   H344      1.0  0.2653347603124071  0.8044150928993571  0.04800127057420603  1.0000
  H   H345      1.0  0.2405942297797026  0.7963074445960084  0.013588294579068202  1.0000
  H   H346      1.0  0.2424038725159271  0.7401337615251908  0.9893911885743154  1.0000
  H   H347      1.0  0.20901327000044403  0.7432545477412529  0.9938756217252859  1.0000
  H   H348      1.0  0.21126682537392635  0.7124668821837677  0.013720743490592737  1.0000
  N   N14       1.0  0.7555711836482554  0.6586077226852415  0.7394070018906843  1.0000
  C   C341      1.0  0.7763690927986965  0.6656173919508379  0.7676379866094966  1.0000
  C   C342      1.0  0.7293264029551221  0.6618645710998942  0.749461397166143  1.0000
  C   C343      1.0  0.7449163893569521  0.6268959221090935  0.7282963589217166  1.0000
  C   C344      1.0  0.7716902797429518  0.6799235071123926  0.7121090011142842  1.0000
  H   H349      1.0  0.7962629079689948  0.663054405491428  0.7608780973118673  1.0000
  H   H350      1.0  0.7647832664142178  0.6497858625691617  0.7885400575411746  1.0000
  H   H351      1.0  0.7850739022872183  0.6894388477742793  0.7766906849932357  1.0000
  H   H352      1.0  0.7157375283120236  0.6452171109092025  0.7690083023646082  1.0000
  H   H353      1.0  0.7365450787040485  0.6852878356202693  0.7588785026148352  1.0000
  H   H354      1.0  0.7137842735526168  0.6577887691452372  0.7284084487613812  1.0000
  H   H355      1.0  0.7642255846891695  0.623587253387856  0.7210798676568663  1.0000
  H   H356      1.0  0.7298359703891084  0.62103949275665  0.7065283330372419  1.0000
  H   H357      1.0  0.7321250464342972  0.6099204788632265  0.7478969763790715  1.0000
  H   H358      1.0  0.7802052844420335  0.7041457967585386  0.7195189003956362  1.0000
  H   H359      1.0  0.7564628053854275  0.6751715014133784  0.6904675236452515  1.0000
  H   H360      1.0  0.791328211320521  0.6777236006724804  0.7034791978952072  1.0000
  N   N15       1.0  0.31288336506681197  0.3853910178764141  0.2417802570877512  1.0000
  C   C345      1.0  0.30917113581765887  0.3662073208028294  0.2707714506045196  1.0000
  C   C346      1.0  0.3145950112995641  0.36974649098091106  0.21167269794139623  1.0000
  C   C347      1.0  0.34111101577862457  0.41514450752420434  0.24531367224123451  1.0000
  C   C348      1.0  0.2867046240464068  0.39053555040114696  0.23944712822727846  1.0000
  H   H361      1.0  0.308005321606821  0.37756471804955877  0.2938624795425251  1.0000
  H   H362      1.0  0.32855029167368155  0.3618605193795751  0.2731872423393475  1.0000
  H   H363      1.0  0.28795601108493907  0.34365624294024566  0.2690084752456027  1.0000
  H   H364      1.0  0.31802271939470894  0.38388629966108334  0.18936552293078085  1.0000
  H   H365      1.0  0.33395005225805074  0.36526422188969143  0.21264958273485082  1.0000
  H   H366      1.0  0.2935035249129003  0.3474682883034356  0.20771633748708965  1.0000
  H   H367      1.0  0.3401448138621169  0.4283277429239774  0.2669006200646405  1.0000
  H   H368      1.0  0.34512078482584374  0.42978253162251884  0.22333763107363927  1.0000
  H   H369      1.0  0.36129625994958425  0.412221453807289  0.24829283537528649  1.0000
  H   H370      1.0  0.28917239594820277  0.4056084945545409  0.2183551923924645  1.0000
  H   H371      1.0  0.28449388176495516  0.40195728876344794  0.26195246342119877  1.0000
  H   H372      1.0  0.2649814265196079  0.3687279341732139  0.23604178411477747  1.0000
  N   N16       1.0  0.29922729333351844  0.9249478539825492  0.4908764526626866  1.0000
  C   C349      1.0  0.3199329517404423  0.9157578522306941  0.47568433963061274  1.0000
  C   C350      1.0  0.2926778971230545  0.9430314600711946  0.4670275605793644  1.0000
  C   C351      1.0  0.31373078264346366  0.9437356576598539  0.5204895243559914  1.0000
  C   C352      1.0  0.2706460347436464  0.8972568726337585  0.5002251092897665  1.0000
  H   H373      1.0  0.3414508600051179  0.9359661789586498  0.4675293770540327  1.0000
  H   H374      1.0  0.30934730800921567  0.9005630311792119  0.4539599575094452  1.0000
  H   H375      1.0  0.3258607443165434  0.9027244744312778  0.49332892349421487  1.0000
  H   H376      1.0  0.31383898455265796  0.9641080816939607  0.45952489842883965  1.0000
  H   H377      1.0  0.2818720254890727  0.9295189122408862  0.44433083757194913  1.0000
  H   H378      1.0  0.2770562920733866  0.950327632760886  0.4776432861207153  1.0000
  H   H379      1.0  0.3194171358959467  0.9309534266936476  0.5388495204596623  1.0000
  H   H380      1.0  0.2987004127549363  0.9508648860588884  0.5328931259684517  1.0000
  H   H381      1.0  0.33532602736330297  0.9648669052183342  0.5143050347305169  1.0000
  H   H382      1.0  0.2543415300750026  0.9031510469129714  0.5117501864403636  1.0000
  H   H383      1.0  0.2748207679156082  0.883009058713241  0.5180785752847169  1.0000
  H   H384      1.0  0.2593511327328521  0.8822764858813362  0.4785209991231796  1.0000
  N   N17       1.0  0.2278361458367762  0.6774190956533779  0.7030445138900608  1.0000
  C   C353      1.0  0.2423869769654314  0.6582649257041405  0.7042478786451539  1.0000
  C   C354      1.0  0.23740585528843544  0.6978987622167853  0.7320265636090261  1.0000
  C   C355      1.0  0.1945200448901078  0.6574906834072222  0.7033703034351928  1.0000
  C   C356      1.0  0.23689048399034382  0.6960358239128306  0.6727277513721756  1.0000
  H   H385      1.0  0.2675432865113473  0.6725648286562386  0.7044269010926243  1.0000
  H   H386      1.0  0.2357061323210374  0.6424320216784155  0.682792424740266  1.0000
  H   H387      1.0  0.2356639781711117  0.643928038654579  0.7269560234622654  1.0000
  H   H388      1.0  0.2252318998909264  0.7110787056424075  0.7331616671792347  1.0000
  H   H389      1.0  0.2324494160452463  0.6847880171588132  0.755338594648955  1.0000
  H   H390      1.0  0.2621272947033739  0.7146403640754169  0.7316768191370002  1.0000
  H   H391      1.0  0.18283420355450483  0.671279477395025  0.702311810541384  1.0000
  H   H392      1.0  0.18683182278321767  0.6434101916761632  0.7261724623786104  1.0000
  H   H393      1.0  0.18645345807078234  0.6414913369961632  0.6820411561489518  1.0000
  H   H394      1.0  0.23046606984731915  0.6814011656185612  0.6502993906556471  1.0000
  H   H395      1.0  0.261781075625137  0.7121134959850943  0.6719889856815546  1.0000
  H   H396      1.0  0.22562016809935403  0.7101775305882975  0.6710671182868967  1.0000
  N   N18       1.0  0.7481169537259172  0.20724042962296857  0.4233424760522142  1.0000
  C   C357      1.0  0.7504663162537542  0.2253228741213455  0.45304912942402276  1.0000
  C   C358      1.0  0.7737244202775427  0.2258631052222142  0.40105130861566346  1.0000
  C   C359      1.0  0.719164118882152  0.1983035688442019  0.40632363258380905  1.0000
  C   C360      1.0  0.7491183416719494  0.17944820901084638  0.433010555554396  1.0000
  H   H397      1.0  0.7500661525239603  0.24661763102908354  0.4467477541229178  1.0000
  H   H398      1.0  0.7718960108583474  0.2321799422320902  0.4666915187816329  1.0000
  H   H399      1.0  0.7313943501193814  0.21197175483143987  0.4703595837385785  1.0000
  H   H400      1.0  0.77262016315666  0.21309316605339387  0.37820288835733523  1.0000
  H   H401      1.0  0.7742269615228353  0.24741049413367175  0.3937255903342052  1.0000
  H   H402      1.0  0.7957918472373846  0.23248569023372262  0.41305176772123314  1.0000
  H   H403      1.0  0.7177134623033247  0.21875441821688332  0.39862830572842056  1.0000
  H   H404      1.0  0.699402137591909  0.18438365270247664  0.42263614258029564  1.0000
  H   H405      1.0  0.7165170654012485  0.18442803663317003  0.38391114762418327  1.0000
  H   H406      1.0  0.747977973574533  0.16546298373787824  0.4112525411638244  1.0000
  H   H407      1.0  0.7300390797848013  0.16473896974307511  0.44965203441644136  1.0000
  H   H408      1.0  0.7704240451159281  0.18534940555482773  0.44642208872035044  1.0000
  N   N19       1.0  0.7269565978602109  0.490594516227007  0.5414661546611964  1.0000
  C   C361      1.0  0.724911970683557  0.46514797202828084  0.5212986241399391  1.0000
  C   C362      1.0  0.7394214270135829  0.49019327909939947  0.5741954692607486  1.0000
  C   C363      1.0  0.6963848142326101  0.48695814092267015  0.5453166190363378  1.0000
  C   C364      1.0  0.7471637489721932  0.5200428430992796  0.525102732060398  1.0000
  H   H409      1.0  0.715758195252168  0.4648818678894113  0.4963385804990997  1.0000
  H   H410      1.0  0.7097665516707597  0.4425904108040489  0.5329522031356335  1.0000
  H   H411      1.0  0.7476194335353594  0.46716156115140883  0.5181005094852231  1.0000
  H   H412      1.0  0.7413542616118071  0.5091669236620116  0.5899073258318493  1.0000
  H   H413      1.0  0.724623175176318  0.46850405744291646  0.5875534848312641  1.0000
  H   H414      1.0  0.7626299222079189  0.49318677564701474  0.5723749813892434  1.0000
  H   H415      1.0  0.6970532954555291  0.5057131875249865  0.5605249450600924  1.0000
  H   H416      1.0  0.6806490954453787  0.4651339945468734  0.5580005412046253  1.0000
  H   H417      1.0  0.6861587951175391  0.4870931524308959  0.5211686864293945  1.0000
  H   H418      1.0  0.7701377634277077  0.5230145298100496  0.5209273829664863  1.0000
  H   H419      1.0  0.7503025290902063  0.5398609971479238  0.5403303084694415  1.0000
  H   H420      1.0  0.7380736825162335  0.5217355362487007  0.5007798224794213  1.0000
  N   N20       1.0  0.4914445332143833  0.25960380919148446  0.4596836018718105  1.0000
  C   C365      1.0  0.49030859716681297  0.2719333280850411  0.4270657955088665  1.0000
  C   C366      1.0  0.4706166979604887  0.2261523312895968  0.4599982628278429  1.0000
  C   C367      1.0  0.4821547109042107  0.274149413711367  0.48536732511978453  1.0000
  C   C368      1.0  0.5227204900438842  0.2660878539815353  0.4662736091800978  1.0000
  H   H421      1.0  0.5051044358362337  0.29724915534466634  0.42616809160241637  1.0000
  H   H422      1.0  0.4668398747343035  0.266362393150831  0.42051204314502283  1.0000
  H   H423      1.0  0.4982334454686994  0.26217391233669296  0.40736457949274435  1.0000
  H   H424      1.0  0.47071189859124973  0.2161391225731378  0.484321851155251  1.0000
  H   H425      1.0  0.4468118886309488  0.2202104542592515  0.4547582533634506  1.0000
  H   H426      1.0  0.47720878526586924  0.21439762763036999  0.44125183959230296  1.0000
  H   H427      1.0  0.49762513169780875  0.2993754916985829  0.4862770311228381  1.0000
  H   H428      1.0  0.482380840287714  0.26501100118133303  0.5102316640716851  1.0000
  H   H429      1.0  0.4587173382487293  0.2698319570962884  0.4809987702007235  1.0000
  H   H430      1.0  0.524562051938311  0.25751139243898485  0.49086507001366814  1.0000
  H   H431      1.0  0.5391966793857632  0.2910799092060265  0.465600530631155  1.0000
  H   H432      1.0  0.530154619680549  0.2548285282367888  0.4476707080690658  1.0000
  N   N21       1.0  0.5752282965545521  0.3267113540128294  0.1402935822685463  1.0000
  C   C369      1.0  0.5545697748241087  0.2933290668059853  0.1431632113979925  1.0000
  C   C370      1.0  0.5992535094319272  0.33261830993867864  0.11614571169759669  1.0000
  C   C371      1.0  0.5891677471161124  0.3394316772102733  0.17266000599305578  1.0000
  C   C372      1.0  0.5579064729311659  0.34149133368893475  0.1291148747361751  1.0000
  H   H433      1.0  0.5356858973247605  0.2880915913844119  0.1605121262564741  1.0000
  H   H434      1.0  0.5665820005139459  0.28133920432020837  0.15217716875092935  1.0000
  H   H435      1.0  0.5439284740341066  0.2829310752739812  0.11907176479983185  1.0000
  H   H436      1.0  0.5894256828594502  0.3234484526111731  0.09142251470212982  1.0000
  H   H437      1.0  0.615295784795511  0.357633772950619  0.11349060356142997  1.0000
  H   H438      1.0  0.6126592890331555  0.3216300250311875  0.12374086109111444  1.0000
  H   H439      1.0  0.6053747702312394  0.3644933732835433  0.17127278901133103  1.0000
  H   H440      1.0  0.6017664649626331  0.32830094274304095  0.18239052214678994  1.0000
  H   H441      1.0  0.5717477448666968  0.3361803368212571  0.19128190379871043  1.0000
  H   H442      1.0  0.54032586095707  0.3384559696099096  0.14739416323294072  1.0000
  H   H443      1.0  0.5457394593285742  0.3313743982366597  0.10557445569443347  1.0000
  H   H444      1.0  0.5728804382384788  0.3665250692501572  0.12541567721958263  1.0000
  N   N22       1.0  0.9497412387819113  0.6517242348173227  0.47973998838985477  1.0000
  C   C373      1.0  0.9295805230080498  0.6611742533019259  0.4958929478476456  1.0000
  C   C374      1.0  0.9813929497152584  0.6717435577124029  0.49065129541670266  1.0000
  C   C375      1.0  0.9479431436590887  0.654134711224288  0.4436843683690891  1.0000
  C   C376      1.0  0.9399977538218782  0.6196903726028941  0.4885877823695419  1.0000
  H   H445      1.0  0.90551498314939  0.6463077839782403  0.488042170690309  1.0000
  H   H446      1.0  0.9360639920885837  0.6851663671030448  0.48960467421457543  1.0000
  H   H447      1.0  0.9301901433096235  0.6594938745717311  0.5231467540881252  1.0000
  H   H448      1.0  0.9894877619218185  0.6961415028487189  0.48448716215518334  1.0000
  H   H449      1.0  0.9837292158321664  0.6702705518698644  0.5177122788423375  1.0000
  H   H450      1.0  0.9970417428073199  0.6651793689440333  0.47846773089243466  1.0000
  H   H451      1.0  0.9620903619443426  0.646190852966656  0.43058243187670314  1.0000
  H   H452      1.0  0.955871290594665  0.6781157274757218  0.4359248717157972  1.0000
  H   H453      1.0  0.9242046546721921  0.6399907847843598  0.4347705517823675  1.0000
  H   H454      1.0  0.9547924721907963  0.6118204918865611  0.47687158615858555  1.0000
  H   H455      1.0  0.9162642284326284  0.6039683228586514  0.4804270016071677  1.0000
  H   H456      1.0  0.9407335272732908  0.6168726129144898  0.5156470250361764  1.0000
  N   N23       1.0  0.5403969974331555  0.7053516184766608  0.6062685866051012  1.0000
  C   C377      1.0  0.5428498081263547  0.7139858948644225  0.6413025224465939  1.0000
  C   C378      1.0  0.5677833876649544  0.7041120472206371  0.5963372022292793  1.0000
  C   C379      1.0  0.5377715390510381  0.728397376989405  0.5862322843453274  1.0000
  C   C380      1.0  0.5132410833635661  0.6748994892056387  0.6015488004523366  1.0000
  H   H457      1.0  0.5225304939510795  0.7148407832264148  0.6500887223260058  1.0000
  H   H458      1.0  0.5631447864395352  0.7365720306284671  0.6461444192093504  1.0000
  H   H459      1.0  0.5450456755658865  0.6971954693582635  0.6568904991946057  1.0000
  H   H460      1.0  0.5888065712045123  0.7264598894353259  0.6006408443960964  1.0000
  H   H461      1.0  0.5702166378272616  0.6866374331668454  0.610700042839893  1.0000
  H   H462      1.0  0.5671323736180489  0.698328865472441  0.569825041640517  1.0000
  H   H463      1.0  0.5579632380187901  0.7515639731460113  0.5895587146048199  1.0000
  H   H464      1.0  0.5175193229832211  0.7301476515123337  0.593323883825334  1.0000
  H   H465      1.0  0.535968954838851  0.722767559591599  0.559553792278595  1.0000
  H   H466      1.0  0.5105511760003391  0.6673861924910556  0.5754238498538596  1.0000
  H   H467      1.0  0.4922289101219156  0.6749375861177759  0.6092861953697549  1.0000
  H   H468      1.0  0.5146141968114335  0.6572005730328929  0.6167540705109371  1.0000
  N   N24       1.0  0.3793027492437434  0.27226588570702775  0.28988398729478904  1.0000
  C   C381      1.0  0.3776069124207762  0.24260328909267398  0.2827416043042351  1.0000
  C   C382      1.0  0.3575709381805026  0.26816526464117746  0.31621492395071943  1.0000
  C   C383      1.0  0.37182187356293855  0.2837379339947122  0.25986320829106385  1.0000
  C   C384      1.0  0.4103207364049339  0.29464211279224223  0.30080822178482464  1.0000
  H   H469      1.0  0.38372458805409926  0.23358962325512278  0.3047097892188745  1.0000
  H   H470      1.0  0.3938097899821627  0.24487801525369937  0.2630345097705612  1.0000
  H   H471      1.0  0.35453631186600026  0.22500893661803534  0.27452957543741624  1.0000
  H   H472      1.0  0.36264793367885817  0.259501831709128  0.3391618067250687  1.0000
  H   H473      1.0  0.35850648116914774  0.29021694933134284  0.3223077064814771  1.0000
  H   H474      1.0  0.333883823327009  0.25147117098934724  0.3087917054760415  1.0000
  H   H475      1.0  0.3486674407721844  0.26744429275382775  0.2506546065113574  1.0000
  H   H476      1.0  0.38803815756609006  0.2874813967732406  0.23959806821116789  1.0000
  H   H477      1.0  0.37321627677348934  0.3062683532914916  0.2643013759838719  1.0000
  H   H478      1.0  0.4170336371675724  0.2867843327478057  0.3232362729486049  1.0000
  H   H479      1.0  0.4128286589336255  0.3175692159618825  0.3058276025975711  1.0000
  H   H480      1.0  0.42711235977022  0.29799616273946533  0.2815730912478711  1.0000
  N   N25       1.0  0.5051171847549317  0.056144598661077086  0.5322042652741672  1.0000
  C   C385      1.0  0.48556175065889706  0.0224996020357624  0.5303721234623239  1.0000
  C   C386      1.0  0.5057205838522799  0.06961286208433869  0.49974850586650515  1.0000
  C   C387      1.0  0.5362602455044719  0.06392995461664044  0.5415821718814386  1.0000
  C   C388      1.0  0.4929263646722817  0.06861870292736684  0.5571216850618258  1.0000
  H   H481      1.0  0.46211765837619706  0.016027325300816294  0.5226443286897537  1.0000
  H   H482      1.0  0.4837837165839978  0.011500856748106967  0.554616874766203  1.0000
  H   H483      1.0  0.49424633496734727  0.012172585748577934  0.5121691284991631  1.0000
  H   H484      1.0  0.5208828997915691  0.09487079114844439  0.4999080197170325  1.0000
  H   H485      1.0  0.5138149864550768  0.06005480632348303  0.4800478696551032  1.0000
  H   H486      1.0  0.4827925494461926  0.06515972806180463  0.49243446703279026  1.0000
  H   H487      1.0  0.5513546314777706  0.08920980403210249  0.5436470517086769  1.0000
  H   H488      1.0  0.5464363751870127  0.055454560809219226  0.5230218124248592  1.0000
  H   H489      1.0  0.5366297663449623  0.053899143270298086  0.5658240040110932  1.0000
  H   H490      1.0  0.5070997340020967  0.09399982610737279  0.5590557086068444  1.0000
  H   H491      1.0  0.4920999933676929  0.05895046929313796  0.5819183945659382  1.0000
  H   H492      1.0  0.4694986549004225  0.06329885431575044  0.5508220729293968  1.0000
  N   N26       1.0  0.9219863076061933  0.24809559184774613  0.23500370445435562  1.0000
  C   C389      1.0  0.9158073558285038  0.24350890246392667  0.2706601657594145  1.0000
  C   C390      1.0  0.9226745177199808  0.2765661622172421  0.22472175562661778  1.0000
  C   C391      1.0  0.8977489831077787  0.22187902092498815  0.21674853630542013  1.0000
  C   C392      1.0  0.9517013065232781  0.2506099968938256  0.2280422038236667  1.0000
  H   H493      1.0  0.8932682982401385  0.2409045517638395  0.2766646562070954  1.0000
  H   H494      1.0  0.933223202361594  0.2632958464017193  0.28518298550261983  1.0000
  H   H495      1.0  0.9157071924340486  0.2225702968812763  0.2795278463859584  1.0000
  H   H496      1.0  0.927224084053528  0.2808274014817459  0.19794054507285483  1.0000
  H   H497      1.0  0.900547464892102  0.27536958897294855  0.22966877670392005  1.0000
  H   H498      1.0  0.9406540116943526  0.29684257712162837  0.23815943075694476  1.0000
  H   H499      1.0  0.9014929097679606  0.22464032435542905  0.18970933856598524  1.0000
  H   H500      1.0  0.8750892257952296  0.21959879248387193  0.22167229042513842  1.0000
  H   H501      1.0  0.8963810076506404  0.19991531014009714  0.22396814261009515  1.0000
  H   H502      1.0  0.9702698720047542  0.27021670011459553  0.24178045122049197  1.0000
  H   H503      1.0  0.9573007791404516  0.25439623150223606  0.20139088109146058  1.0000
  H   H504      1.0  0.9520518455093192  0.22951852239974033  0.23548748213043996  1.0000
  N   N27       1.0  0.9577283816407203  0.3165281796554622  0.6976294992775834  1.0000
  C   C393      1.0  0.9773612699860849  0.3499801098049446  0.7018524627990632  1.0000
  C   C394      1.0  0.9728088155415764  0.304638179972722  0.6758205146443023  1.0000
  C   C395      1.0  0.9284043802101251  0.30990877728693306  0.6830026583765337  1.0000
  C   C396      1.0  0.9523262446656445  0.3015330219746146  0.7300377238056717  1.0000
  H   H505      1.0  0.9822382348617866  0.3622169751741556  0.6779641561012805  1.0000
  H   H506      1.0  0.9994105877669559  0.35571566473277483  0.7135917868192656  1.0000
  H   H507      1.0  0.9665982292029344  0.35964164192999015  0.718250674251539  1.0000
  H   H508      1.0  0.9585680895877126  0.27940823680452265  0.6723665611453884  1.0000
  H   H509      1.0  0.9771785433950103  0.3154022721419714  0.6510755163568711  1.0000
  H   H510      1.0  0.994987781081442  0.3092815210234583  0.6862497022823434  1.0000
  H   H511      1.0  0.912944524400684  0.2848230695222023  0.6796388931979287  1.0000
  H   H512      1.0  0.9314704680096526  0.32099319321491215  0.6586044477693944  1.0000
  H   H513      1.0  0.9161897785177813  0.31816847595256  0.6991106351811172  1.0000
  H   H514      1.0  0.9415367493780141  0.31051822010717384  0.7470355829248843  1.0000
  H   H515      1.0  0.9738898260557378  0.305955442244622  0.741975526418037  1.0000
  H   H516      1.0  0.9369158788576606  0.27632926029604804  0.7281903640901032  1.0000
  N   N28       1.0  0.1011798365869443  0.4946634038852466  0.8945413423026501  1.0000
  C   C397      1.0  0.08014676466781179  0.5017188276322386  0.9126146863109323  1.0000
  C   C398      1.0  0.08379104722562558  0.4686640946444785  0.8718999378044264  1.0000
  C   C399      1.0  0.11805226132770708  0.48647109820386014  0.9182260452619427  1.0000
  C   C400      1.0  0.12280544629420276  0.5217640091729187  0.8754915178649368  1.0000
  H   H517      1.0  0.09265915534275271  0.521223326456913  0.9299621300471783  1.0000
  H   H518      1.0  0.06357974462447391  0.48166990579641145  0.9272608691897236  1.0000
  H   H519      1.0  0.06705239342260949  0.5080252152523718  0.8954865776761133  1.0000
  H   H520      1.0  0.06728818913195012  0.44779987975311597  0.8855105308489094  1.0000
  H   H521      1.0  0.07091236537591805  0.4739213701454442  0.8534055416574015  1.0000
  H   H522      1.0  0.09903873994451562  0.46252528704171614  0.8582289282912196  1.0000
  H   H523      1.0  0.1340533401315276  0.4810491905281948  0.9053373145226095  1.0000
  H   H524      1.0  0.10260586243378178  0.4658173825185486  0.932808575721919  1.0000
  H   H525      1.0  0.1318740815247006  0.5056445069973448  0.9355131078071669  1.0000
  H   H526      1.0  0.1392380724962985  0.5172858006574925  0.8618522834394681  1.0000
  H   H527      1.0  0.1363887667197181  0.5417628368312557  0.8918894243789858  1.0000
  H   H528      1.0  0.11108638848078778  0.528661088881552  0.857162461236363  1.0000
  N   N29       1.0  0.6763442757260747  0.9150023657009151  0.5861627466814907  1.0000
  C   C401      1.0  0.6931990436468795  0.9330415768754531  0.5570965857820634  1.0000
  C   C402      1.0  0.6459230977667704  0.9120893305215456  0.5868401045284474  1.0000
  C   C403      1.0  0.6930474090559701  0.9306602767100565  0.6164289503669712  1.0000
  C   C404      1.0  0.6731394142687931  0.8841800349641289  0.5843206251673867  1.0000
  H   H529      1.0  0.7159744773461225  0.9350649726193409  0.5552306756538197  1.0000
  H   H530      1.0  0.6966865919692372  0.9566975712676475  0.5580268938781532  1.0000
  H   H531      1.0  0.6808187228909269  0.9223736676779536  0.5338007230712274  1.0000
  H   H532      1.0  0.6321008022262659  0.8976525925781911  0.6077731681932901  1.0000
  H   H533      1.0  0.6473596493476882  0.9348137368275944  0.5891558751890285  1.0000
  H   H534      1.0  0.6329702591542119  0.9010390772164784  0.5639920297119606  1.0000
  H   H535      1.0  0.6808604282357673  0.917640817946435  0.6388120880388635  1.0000
  H   H536      1.0  0.6958762843058774  0.9540337771853847  0.6185448797715296  1.0000
  H   H537      1.0  0.7161041733591641  0.9331945579588161  0.6167751173274324  1.0000
  H   H538      1.0  0.6955867386809742  0.8853332619623885  0.5838056147572748  1.0000
  H   H539      1.0  0.660573528159678  0.871766145224327  0.5617802666711322  1.0000
  H   H540      1.0  0.660352045411879  0.8698538007228375  0.6057994416274555  1.0000
  N   N30       1.0  0.35910115517020735  0.5365120561685899  0.02872689315772181  1.0000
  C   C405      1.0  0.3503649618749999  0.5041110817389497  0.023321179512699963  1.0000
  C   C406      1.0  0.3738400868753768  0.5542512892115591  0.9987657974406812  1.0000
  C   C407      1.0  0.3804295001080961  0.5488077668200129  0.05676685290009664  1.0000
  C   C408      1.0  0.3317322123944488  0.5387331600483758  0.03605512878537742  1.0000
  H   H541      1.0  0.33862528685489524  0.49003522704950375  0.04524842312101374  1.0000
  H   H542      1.0  0.37047132167844987  0.5013725357557097  0.0185735881059248  1.0000
  H   H543      1.0  0.3345380180995661  0.4940749824575789  0.002091513908857756  1.0000
  H   H544      1.0  0.38097146491374223  0.5788912443653896  0.0020304701164273187  1.0000
  H   H545      1.0  0.3944068864301744  0.552779420467206  0.9923972935247539  1.0000
  H   H546      1.0  0.35815426625413305  0.5455556573403326  0.9772554831842105  1.0000
  H   H547      1.0  0.40139027242562286  0.5475055755039596  0.05217954199639352  1.0000
  H   H548      1.0  0.37009414179344285  0.5355934462967408  0.07965650690972881  1.0000
  H   H549      1.0  0.38737677205916216  0.5731142324281872  0.06202772104238674  1.0000
  H   H550      1.0  0.3142381002226448  0.5278226039592402  0.01639389925188306  1.0000
  H   H551      1.0  0.337161052020187  0.5629381751483314  0.0386990115004493  1.0000
  H   H552      1.0  0.3209630264970817  0.5269313233984769  0.059473968760869855  1.0000
  N   N31       1.0  0.800587814008651  0.4758849657454505  0.9845832458778412  1.0000
  C   C409      1.0  0.8326019562335029  0.5004623900515013  0.9854024620707265  1.0000
  C   C410      1.0  0.796649069794604  0.4508306604816276  0.006547710114293581  1.0000
  C   C411      1.0  0.7923170177942863  0.46417725796237586  0.9505568699913926  1.0000
  C   C412      1.0  0.781050095137789  0.48826309166656257  0.9956923959532198  1.0000
  H   H553      1.0  0.8362145940762992  0.5196472376620658  0.9690842264337685  1.0000
  H   H554      1.0  0.8480914937240405  0.49209809851158925  0.9769281454125204  1.0000
  H   H555      1.0  0.8398119054739178  0.5101127164395743  0.010585667995406375  1.0000
  H   H556      1.0  0.7727500657542132  0.4317505052653099  0.006513202649062321  1.0000
  H   H557      1.0  0.8113205804822069  0.44126643276686756  0.9986945964855964  1.0000
  H   H558      1.0  0.802836558272836  0.45905404063080324  0.032373409527008325  1.0000
  H   H559      1.0  0.7685559722254658  0.44496986180707565  0.9490088445676947  1.0000
  H   H560      1.0  0.8074995588087651  0.4558338344397932  0.9408892648590793  1.0000
  H   H561      1.0  0.7943639010885273  0.4824673099530714  0.9336076682862124  1.0000
  H   H562      1.0  0.7876725046455624  0.49878358623826696  0.02065428615464977  1.0000
  H   H563      1.0  0.7567579954082134  0.47020044023627694  0.9965157145731792  1.0000
  H   H564      1.0  0.7828534260081765  0.5065270597110079  0.9788224230784972  1.0000
  N   N32       1.0  0.8319709715001213  0.2861143146430945  0.020790779304329737  1.0000
  C   C413      1.0  0.8069125157511546  0.28826072302548256  0.036699879489899175  1.0000
  C   C414      1.0  0.8601886763526603  0.30406414006164495  0.03990511953753346  1.0000
  C   C415      1.0  0.8361909352969742  0.2980984914032528  0.986870340654389  1.0000
  C   C416      1.0  0.8244458849328798  0.2537664722597812  0.019718453076734165  1.0000
  H   H565      1.0  0.7853326727841092  0.275137930038581  0.022650849939985986  1.0000
  H   H566      1.0  0.8119530958166361  0.31239242085965385  0.03851393180662024  1.0000
  H   H567      1.0  0.8026354349655347  0.2786581282585464  0.06207357968908755  1.0000
  H   H568      1.0  0.8574521938882488  0.29543150810842095  0.06565453892511053  1.0000
  H   H569      1.0  0.8794228806300062  0.3025618237067184  0.028714697433884585  1.0000
  H   H570      1.0  0.866715320556673  0.32867443031570315  0.04117811995233874  1.0000
  H   H571      1.0  0.8545570110652908  0.2962927132450088  0.9738369235072624  1.0000
  H   H572      1.0  0.8421770045554158  0.32257332364764957  0.9865858099871831  1.0000
  H   H573      1.0  0.8151226189812524  0.284995329020559  0.9720165183675762  1.0000
  H   H574      1.0  0.8020296963169884  0.23917346506216966  0.00785694741367847  1.0000
  H   H575      1.0  0.8231382401228021  0.2444641228426726  0.04475293229504793  1.0000
  H   H576      1.0  0.8417946430035932  0.2508658307249686  0.005974794115710007  1.0000
  N   N33       1.0  0.6393906658302815  0.057359966771621806  0.483405302433809  1.0000
  C   C417      1.0  0.6672529648088723  0.07127185747366105  0.4632380100333895  1.0000
  C   C418      1.0  0.6466740952600823  0.0702524000566882  0.5170538683643054  1.0000
  C   C419      1.0  0.6269354005323329  0.023846726919488193  0.48480416793390513  1.0000
  C   C420      1.0  0.6168387351159368  0.06416278386281382  0.46854434489148883  1.0000
  H   H577      1.0  0.6626678058935621  0.061974105999726525  0.43772277644563345  1.0000
  H   H578      1.0  0.684822426931727  0.06667047919845559  0.4738801438456672  1.0000
  H   H579      1.0  0.6772828766760863  0.09657882924015837  0.4616645570435752  1.0000
  H   H580      1.0  0.6265281177499502  0.05959284923277375  0.5334357736684856  1.0000
  H   H581      1.0  0.6644193057566812  0.06656259377770657  0.5285233105532086  1.0000
  H   H582      1.0  0.6554681151885469  0.09538408794894782  0.5171328370987889  1.0000
  H   H583      1.0  0.6061034502628699  0.01245056271180034  0.5001571438301219  1.0000
  H   H584      1.0  0.6436373339018859  0.018152971959617625  0.49566757365376835  1.0000
  H   H585      1.0  0.6211551418476362  0.013247494868917187  0.4598653559262025  1.0000
  H   H586      1.0  0.5956021178525487  0.05413304515487405  0.4832327744823884  1.0000
  H   H587      1.0  0.610833902402264  0.05484712192400565  0.443085644725114  1.0000
  H   H588      1.0  0.6257585435418269  0.08935830876000495  0.4671845035623555  1.0000
  N   N34       1.0  0.24540924822403837  0.5274122110718092  0.28971617200425104  1.0000
  C   C421      1.0  0.25580240514986363  0.521335264386773  0.2580620920094214  1.0000
  C   C422      1.0  0.24480619720850666  0.5564510699572509  0.287741768882126  1.0000
  C   C423      1.0  0.2662762370842207  0.5295917639165998  0.31629084824001147  1.0000
  C   C424      1.0  0.21460429279261717  0.5021166421001909  0.2969562862951114  1.0000
  H   H589      1.0  0.2404164271957838  0.5192923029155146  0.23750629315608052  1.0000
  H   H590      1.0  0.2564024329292605  0.4995103990273064  0.2588681560761875  1.0000
  H   H591      1.0  0.27907314386986576  0.5398697958793647  0.25179946066124226  1.0000
  H   H592      1.0  0.23742191340030405  0.5617626515374358  0.3114822389536803  1.0000
  H   H593      1.0  0.2675852702087037  0.5760916007078111  0.28192650911051126  1.0000
  H   H594      1.0  0.2286718031841978  0.5553546605818139  0.2685154465835545  1.0000
  H   H595      1.0  0.2897843871042249  0.5484785436008319  0.3117634265257687  1.0000
  H   H596      1.0  0.26711847515071013  0.507972286698644  0.31851891648754194  1.0000
  H   H597      1.0  0.2589039272312192  0.5339347525198073  0.34058868279279114  1.0000
  H   H598      1.0  0.20628071386803518  0.5058775587608552  0.3208090891908728  1.0000
  H   H599      1.0  0.2141663403740977  0.47986703053581503  0.29866021349348537  1.0000
  H   H600      1.0  0.19801988007992152  0.49968202352221863  0.2776383867793815  1.0000
  N   N35       1.0  0.8241397461311313  0.2013902720916885  0.8221758695956027  1.0000
  C   C425      1.0  0.7977602131953967  0.17830857784072507  0.8032555508772298  1.0000
  C   C426      1.0  0.8217282384049753  0.1916309552980718  0.8568516330644901  1.0000
  C   C427      1.0  0.8248142666243934  0.23102543304193107  0.8208171881455127  1.0000
  C   C428      1.0  0.852415090500678  0.20491320004848979  0.8077391174992751  1.0000
  H   H601      1.0  0.7760803704359843  0.17515175028537414  0.8135786679616563  1.0000
  H   H602      1.0  0.7965981625026364  0.15563043632337367  0.803483930522764  1.0000
  H   H603      1.0  0.798934613298285  0.18532018613962825  0.7770392007706289  1.0000
  H   H604      1.0  0.8418794090136578  0.20824510069085667  0.8713902839994159  1.0000
  H   H605      1.0  0.8013619060754765  0.19011803916450154  0.8690299597461945  1.0000
  H   H606      1.0  0.8201869429333107  0.1688565932189449  0.8589127017143302  1.0000
  H   H607      1.0  0.84445386995932  0.24881729157382174  0.834940561001405  1.0000
  H   H608      1.0  0.803951733280891  0.22948920432525308  0.8315942967141254  1.0000
  H   H609      1.0  0.8268471721935795  0.23927098993559556  0.7950132106773582  1.0000
  H   H610      1.0  0.8727671561648696  0.2225741276266873  0.8212175884583526  1.0000
  H   H611      1.0  0.8549253190926196  0.21230731422273846  0.7815594445137746  1.0000
  H   H612      1.0  0.8529179703628639  0.18307227297137865  0.8085170252656521  1.0000
  N   N36       1.0  0.37498558515356684  0.5235995469184682  0.5317908667597923  1.0000
  C   C429      1.0  0.38141351696987674  0.5299781600691066  0.5672989980183617  1.0000
  C   C430      1.0  0.36459798462562615  0.49094365058612255  0.5251248030350063  1.0000
  C   C431      1.0  0.4029129651742626  0.5428727376021387  0.5128536020911877  1.0000
  C   C432      1.0  0.351059254709237  0.5305953343192047  0.521906903196419  1.0000
  H   H613      1.0  0.3990391539817908  0.5245434344617688  0.5758470015976482  1.0000
  H   H614      1.0  0.36071417017657315  0.5160851053807961  0.5822657008976481  1.0000
  H   H615      1.0  0.3895610180860628  0.5544281557802268  0.5733256487630081  1.0000
  H   H616      1.0  0.3822142323984893  0.4849062823419342  0.5318999176395339  1.0000
  H   H617      1.0  0.34390398297885355  0.475708295365824  0.5395247540194203  1.0000
  H   H618      1.0  0.3587943020872763  0.485073278699283  0.4987188928394615  1.0000
  H   H619      1.0  0.3989499255128974  0.5384902532220456  0.48595002961652983  1.0000
  H   H620      1.0  0.4214397439041627  0.5382527783427162  0.5200406918423577  1.0000
  H   H621      1.0  0.41131707847675697  0.5676638115573474  0.5172063764739775  1.0000
  H   H622      1.0  0.34509279512176766  0.5254526728741751  0.4954177478264193  1.0000
  H   H623      1.0  0.3581369881852766  0.5550712293159088  0.5263560681133646  1.0000
  H   H624      1.0  0.3298424430968671  0.5167101045998914  0.5361493550462558  1.0000
  N   N37       1.0  0.7171140959811421  0.4724315019715863  0.7468584345437138  1.0000
  C   C433      1.0  0.7071563675600718  0.4517231587336303  0.7755355365175841  1.0000
  C   C434      1.0  0.7033974396880622  0.454445940875014  0.7165647392085889  1.0000
  C   C435      1.0  0.7505428771255723  0.48816315299233526  0.744340200906281  1.0000
  C   C436      1.0  0.7073536928284814  0.49544521184934404  0.7511069289116132  1.0000
  H   H625      1.0  0.7142404108208994  0.4341157518336212  0.7732284059394383  1.0000
  H   H626      1.0  0.6819807246315603  0.43947673597043874  0.7781010628575172  1.0000
  H   H627      1.0  0.717018994854594  0.4646458645230001  0.7988015496864437  1.0000
  H   H628      1.0  0.7091462468065141  0.46949566911773394  0.6945759696248914  1.0000
  H   H629      1.0  0.711291397591592  0.43775620562028866  0.7117834326164835  1.0000
  H   H630      1.0  0.678197833677666  0.44116983504764634  0.7182715487905531  1.0000
  H   H631      1.0  0.7588596177850656  0.5045394417619392  0.7234321666069993  1.0000
  H   H632      1.0  0.7589029036913221  0.4717037123859764  0.7406208315872815  1.0000
  H   H633      1.0  0.7616103685312354  0.5016315889440601  0.766999041078827  1.0000
  H   H634      1.0  0.7182249709033175  0.5102418519963114  0.7730382521269448  1.0000
  H   H635      1.0  0.6823639866488485  0.4844640302052243  0.7542031085200788  1.0000
  H   H636      1.0  0.7137028883503695  0.5109322625959244  0.7294773096398619  1.0000
  N   N38       1.0  0.09765044414032326  0.7282401931397933  0.88125724373377  1.0000
  C   C437      1.0  0.07975922641583423  0.7333173739684853  0.9066397309234756  1.0000
  C   C438      1.0  0.07808963706232588  0.7128210874889755  0.8524568308536996  1.0000
  C   C439      1.0  0.1092277135200639  0.7088008733857377  0.8949203107012368  1.0000
  C   C440      1.0  0.12351630455684297  0.7580013457392678  0.8711407106249144  1.0000
  H   H637      1.0  0.09378091599705375  0.744785620034479  0.9287845287822343  1.0000
  H   H638      1.0  0.060022077373155944  0.7112325591087097  0.9147628396984695  1.0000
  H   H639      1.0  0.07065507136154014  0.7479025934788179  0.8971690356690363  1.0000
  H   H640      1.0  0.09023155647855113  0.7069781880776329  0.8334640088690627  1.0000
  H   H641      1.0  0.05755065948291076  0.6910313725373498  0.8595527288274823  1.0000
  H   H642      1.0  0.07015696057459946  0.7274401109988059  0.840477816519341  1.0000
  H   H643      1.0  0.12163862189251085  0.7032997960140601  0.8759602286249312  1.0000
  H   H644      1.0  0.09052693478993937  0.6868217725354795  0.9044550631003098  1.0000
  H   H645      1.0  0.1254495417715488  0.7204613607757849  0.9154990278252613  1.0000
  H   H646      1.0  0.13758625948028194  0.7549605505622687  0.8521796271291807  1.0000
  H   H647      1.0  0.13897889090172208  0.7700567138104866  0.8921977909119316  1.0000
  H   H648      1.0  0.11582301271157197  0.7734063781397983  0.860684387476008  1.0000
  N   N39       1.0  0.41877832497776246  0.28127593282480257  0.8115970026602038  1.0000
  C   C441      1.0  0.44393534461616907  0.3120768155940248  0.8201906302062316  1.0000
  C   C442      1.0  0.39105901744690336  0.2830892887621044  0.8051493015224999  1.0000
  C   C443      1.0  0.41342649999256303  0.26003494647848147  0.8391318970662761  1.0000
  C   C444      1.0  0.42676418101471  0.26997966833809023  0.7817660271694565  1.0000
  H   H649      1.0  0.46530546469012596  0.31167221215209284  0.8250709892203988  1.0000
  H   H650      1.0  0.43866529613021477  0.32137637178679523  0.8425380044619343  1.0000
  H   H651      1.0  0.44857452876186027  0.32868375670189737  0.7998723449598542  1.0000
  H   H652      1.0  0.37162453173755244  0.26034049076196  0.7982754385766557  1.0000
  H   H653      1.0  0.3843071552018816  0.2915823887635678  0.8270779351330216  1.0000
  H   H654      1.0  0.3945907772898161  0.2990794781529809  0.7844625311174233  1.0000
  H   H655      1.0  0.3945481703714662  0.2365677800454868  0.8335207218781607  1.0000
  H   H656      1.0  0.40754442402907537  0.267907240595702  0.862177345869235  1.0000
  H   H657      1.0  0.4339443045833156  0.2580580986720063  0.8443466313960346  1.0000
  H   H658      1.0  0.4084934645853476  0.2466403801726362  0.7747241716993508  1.0000
  H   H659      1.0  0.4478416382672779  0.2687559211992988  0.7854871026222693  1.0000
  H   H660      1.0  0.430531470747839  0.2852770361540466  0.7604227476100621  1.0000
  N   N40       1.0  0.6220053369183035  0.06849953103630493  0.0611848730215523  1.0000
  C   C445      1.0  0.5991346203839893  0.07173491379797245  0.08058596219884193  1.0000
  C   C446      1.0  0.6253776019128733  0.08289170689479482  0.028643711445224512  1.0000
  C   C447      1.0  0.6122733165373873  0.03570609778494122  0.056796191534540186  1.0000
  C   C448      1.0  0.6513661352276612  0.083799757049214  0.07875300180655863  1.0000
  H   H661      1.0  0.5963428074168025  0.06162038843581953  0.10551757344443542  1.0000
  H   H662      1.0  0.5766443856803186  0.06043041585758762  0.06815658562947897  1.0000
  H   H663      1.0  0.6059207304149791  0.09633669843389384  0.08400085749156354  1.0000
  H   H664      1.0  0.6035611620573861  0.07239570336164947  0.01489307153176324  1.0000
  H   H665      1.0  0.6333520693033752  0.10779866637408068  0.03108866430943969  1.0000
  H   H666      1.0  0.64218116940936  0.08060933226008236  0.013131858522362507  1.0000
  H   H667      1.0  0.5907366179964746  0.023521586792236704  0.04263531943072965  1.0000
  H   H668      1.0  0.6089615901768151  0.02399014507990538  0.08086727513009369  1.0000
  H   H669      1.0  0.6296220267882227  0.03267967876590416  0.04314788303364679  1.0000
  H   H670      1.0  0.6694683510680526  0.08298281622435011  0.06422858401302599  1.0000
  H   H671      1.0  0.650118748698732  0.07289440617796426  0.10289239647822021  1.0000
  H   H672      1.0  0.6589589295488764  0.10831755702560927  0.0835294524818406  1.0000
  N   N41       1.0  0.07388398194082198  0.5802961293117742  0.322167642924829  1.0000
  C   C449      1.0  0.07103212260591478  0.5504651442154797  0.31323612527736294  1.0000
  C   C450      1.0  0.08682188915127893  0.6016089113637264  0.2941583274073865  1.0000
  C   C451      1.0  0.09406110047716323  0.5931111855625668  0.35107311139684894  1.0000
  C   C452      1.0  0.04365727939592581  0.5760703091034526  0.3302032748433927  1.0000
  H   H673      1.0  0.056163155320596625  0.5402149002416873  0.29135636381867397  1.0000
  H   H674      1.0  0.06142531736319565  0.5338207514166586  0.3338149547910619  1.0000
  H   H675      1.0  0.09355004692226682  0.5529636444971625  0.3071216996658174  1.0000
  H   H676      1.0  0.0719738091746648  0.5930682484881368  0.2720640208501707  1.0000
  H   H677      1.0  0.09002633863332295  0.6245893962235093  0.300264441657669  1.0000
  H   H678      1.0  0.10940263126348139  0.6049723307604005  0.2870303806890578  1.0000
  H   H679      1.0  0.11701852112680272  0.5963783584744701  0.3459873574297735  1.0000
  H   H680      1.0  0.08491587405083702  0.5778192635620955  0.37278968575194876  1.0000
  H   H681      1.0  0.097111001788607  0.6158392964953546  0.35817617062292034  1.0000
  H   H682      1.0  0.02777242956952476  0.5663873753362364  0.30900409491475467  1.0000
  H   H683      1.0  0.04513764757186413  0.598253558417443  0.33674125400450483  1.0000
  H   H684      1.0  0.03329209720957228  0.5604735717006696  0.3515248240849337  1.0000
  N   N42       1.0  0.39613811576919533  0.815686784041369  0.6407673102509451  1.0000
  C   C453      1.0  0.387972109705745  0.8331446891930984  0.6639187750272945  1.0000
  C   C454      1.0  0.4242413437593648  0.8370227192197848  0.6231459051927393  1.0000
  C   C455      1.0  0.3712516403815468  0.7992889495247962  0.6168090585874216  1.0000
  C   C456      1.0  0.40106167556662253  0.7932442334221267  0.6591787321077925  1.0000
  H   H685      1.0  0.36660793346618736  0.8178447519331833  0.6773525825107727  1.0000
  H   H686      1.0  0.3839899426038655  0.8502233810825849  0.6507323589303428  1.0000
  H   H687      1.0  0.4061168532468434  0.8457933675317515  0.6824360813342786  1.0000
  H   H688      1.0  0.44356782881696105  0.8497860527371874  0.6403410260171418  1.0000
  H   H689      1.0  0.43089937166801784  0.8246992803612946  0.6051141453904872  1.0000
  H   H690      1.0  0.42122415677824954  0.8541978915499565  0.6088700374077752  1.0000
  H   H691      1.0  0.3767039037782959  0.7861480246338647  0.5986068436298724  1.0000
  H   H692      1.0  0.3669366015181715  0.8154877249981664  0.6024764403568743  1.0000
  H   H693      1.0  0.3495296086646812  0.7832720370759315  0.6291699643165509  1.0000
  H   H694      1.0  0.40721936948339954  0.7797053489788776  0.6423090133117282  1.0000
  H   H695      1.0  0.3802328061732738  0.7768248232970777  0.6727296240677973  1.0000
  H   H696      1.0  0.4197080425297032  0.8047843415987819  0.6774773565169439  1.0000
  N   N43       1.0  0.9512418891067232  0.5156768725836638  0.7949714089440257  1.0000
  C   C457      1.0  0.9423533963016315  0.48628342392243223  0.7781752920714667  1.0000
  C   C458      1.0  0.9794559099042646  0.5402380320756345  0.780200027307453  1.0000
  C   C459      1.0  0.9564400597791318  0.5129123359657544  0.830279260174994  1.0000
  C   C460      1.0  0.9267868427143211  0.523329178377361  0.7912546336345379  1.0000
  H   H697      1.0  0.9214042614761799  0.4671756096812  0.7890598158375854  1.0000
  H   H698      1.0  0.9603190452300456  0.4798421461350911  0.7802553822774193  1.0000
  H   H699      1.0  0.9377684330695643  0.48727503938020367  0.7515795707030823  1.0000
  H   H700      1.0  0.9984689485651919  0.5353352040570455  0.7825336423468039  1.0000
  H   H701      1.0  0.9763597204277612  0.5431671861006493  0.7536128129192703  1.0000
  H   H702      1.0  0.9868265778857196  0.5626890819872109  0.7924933165332047  1.0000
  H   H703      1.0  0.964321948033407  0.5350263577404311  0.8435158917359119  1.0000
  H   H704      1.0  0.9739940641933131  0.5061125975975029  0.8339358996110322  1.0000
  H   H705      1.0  0.9353138450643734  0.4953129285919144  0.8425609639016401  1.0000
  H   H706      1.0  0.9331157239298078  0.5459241269815502  0.8025713806113507  1.0000
  H   H707      1.0  0.9053528097486461  0.5059563397933322  0.8031643110818757  1.0000
  H   H708      1.0  0.9214908875783391  0.5246577112760372  0.7649604171140693  1.0000
  N   N44       1.0  0.5037134000414754  0.21410737414521505  0.6738666611422955  1.0000
  C   C461      1.0  0.5118698635735707  0.21140619089767984  0.6395926345278364  1.0000
  C   C462      1.0  0.4831405256237205  0.22695675436092674  0.6739387796713567  1.0000
  C   C463      1.0  0.5315141208245507  0.23464460673701618  0.6925747653189863  1.0000
  C   C464      1.0  0.4882775568916628  0.18356426562624306  0.6893985793055395  1.0000
  H   H709      1.0  0.5243145216659736  0.23427445427809188  0.6276639617474974  1.0000
  H   H710      1.0  0.4913626717120851  0.19703616101203325  0.6243074672786518  1.0000
  H   H711      1.0  0.5267267867255887  0.20099859675913895  0.6383940259954731  1.0000
  H   H712      1.0  0.47547136247723887  0.2281287234332591  0.6992283357762814  1.0000
  H   H713      1.0  0.49457863543381425  0.2506212967331422  0.6639335556100747  1.0000
  H   H714      1.0  0.4624897506211056  0.21285708016894694  0.6588366542664063  1.0000
  H   H715      1.0  0.5475069747587024  0.22557369348839065  0.6933346868925533  1.0000
  H   H716      1.0  0.5261288585445639  0.23762982228959442  0.7184252339418824  1.0000
  H   H717      1.0  0.5437321346020637  0.2578643285736471  0.6813179804875205  1.0000
  H   H718      1.0  0.5030910522171117  0.17308439677974138  0.6898047280112125  1.0000
  H   H719      1.0  0.4671110809196774  0.1676241198621711  0.6759062901236165  1.0000
  H   H720      1.0  0.481877875871649  0.18501250332742186  0.7153245707350356  1.0000
  N   N45       1.0  0.8633820922538415  0.6267135218189738  0.17908878657731978  1.0000
  C   C465      1.0  0.8541006286635  0.6387933403752988  0.1509715227282486  1.0000
  C   C466      1.0  0.8565540465629041  0.5951578179478048  0.17156283431082944  1.0000
  C   C467      1.0  0.8466381324650575  0.6265562306757042  0.2089372654048558  1.0000
  C   C468      1.0  0.8963076064514471  0.6462994395893693  0.18484748504860574  1.0000
  H   H721      1.0  0.8581861713791402  0.6623072442164443  0.15588268195931607  1.0000
  H   H722      1.0  0.8295895224920427  0.6240418887541119  0.14536792778866925  1.0000
  H   H723      1.0  0.8664315013151507  0.639391646608534  0.12808379934966577  1.0000
  H   H724      1.0  0.8652182721900578  0.5860853098265534  0.19109383117069362  1.0000
  H   H725      1.0  0.831657942519064  0.5793082889843624  0.16931651543256906  1.0000
  H   H726      1.0  0.8668154780662692  0.593952373653637  0.14779383457503587  1.0000
  H   H727      1.0  0.8534297425811752  0.6179599221449976  0.23073374949916112  1.0000
  H   H728      1.0  0.8217067149218455  0.6114399821234169  0.205826217746406  1.0000
  H   H729      1.0  0.8506573772665735  0.649847502277708  0.2150458060753528  1.0000
  H   H730      1.0  0.9040064467408875  0.6379135444164135  0.20609439882094258  1.0000
  H   H731      1.0  0.9022865741988438  0.6703486408921944  0.1903296886081083  1.0000
  H   H732      1.0  0.9096151847557392  0.6466174892478603  0.16293580588981293  1.0000
  N   N46       1.0  0.4120345144506988  0.073798177735421  0.07574235670571719  1.0000
  C   C469      1.0  0.3902323063724438  0.04060711075168647  0.07319229715995595  1.0000
  C   C470      1.0  0.4111007961517362  0.08906267988145977  0.04513561673029414  1.0000
  C   C471      1.0  0.4429621437582219  0.07865670230425846  0.08069624827160794  1.0000
  C   C472      1.0  0.4039425079856465  0.08702541381766395  0.10385541789412996  1.0000
  H   H733      1.0  0.3907944445539555  0.02810093632628655  0.09547605842246412  1.0000
  H   H734      1.0  0.39537074733686384  0.03020162305562747  0.051663852027293025  1.0000
  H   H735      1.0  0.3665971822014229  0.03605731415438314  0.06991377226762283  1.0000
  H   H736      1.0  0.4264648217688152  0.11424690041859525  0.04662280462531868  1.0000
  H   H737      1.0  0.41833576104706865  0.08064452307693522  0.023608947380962312  1.0000
  H   H738      1.0  0.3878999877138067  0.08497422724033407  0.03979284636160633  1.0000
  H   H739      1.0  0.46003342666100466  0.10349303334713417  0.08233629058743543  1.0000
  H   H740      1.0  0.4498531673263286  0.06899626248282935  0.05997711058537335  1.0000
  H   H741      1.0  0.4445872102535153  0.06764564916784475  0.1036999885890353  1.0000
  H   H742      1.0  0.42024598117071477  0.11207315763869817  0.10637087549727324  1.0000
  H   H743      1.0  0.40427342406056194  0.07601119648495372  0.12742343533739642  1.0000
  H   H744      1.0  0.38092956430025227  0.08421892055686264  0.10072994226866468  1.0000
  N   N47       1.0  0.4721081446977173  0.4693213207222855  0.6667912112454127  1.0000
  C   C473      1.0  0.46322980152175636  0.48323983120902136  0.6935594251610884  1.0000
  C   C474      1.0  0.49889168033135145  0.4935830874516497  0.6496105926920391  1.0000
  C   C475      1.0  0.4467737982223114  0.45383361007231204  0.6431827523157368  1.0000
  C   C476      1.0  0.4794126747066695  0.44662694124364416  0.6807771838976903  1.0000
  H   H745      1.0  0.4820326293324382  0.4956878892284372  0.7114844532813549  1.0000
  H   H746      1.0  0.44334630201857733  0.4655623954768274  0.7074335603844235  1.0000
  H   H747      1.0  0.4569291550011458  0.5000261881422329  0.6837677360997676  1.0000
  H   H748      1.0  0.4939249762399436  0.5110854639089705  0.6390549622587475  1.0000
  H   H749      1.0  0.5185300398689694  0.505747423021015  0.6666426152648561  1.0000
  H   H750      1.0  0.5060902576021699  0.4840042014043617  0.6290365103084846  1.0000
  H   H751      1.0  0.4520872246485985  0.4420218027688621  0.6232749805922357  1.0000
  H   H752      1.0  0.4410355889388475  0.4702430383169417  0.6314033876910216  1.0000
  H   H753      1.0  0.4259304687844433  0.4362418853220259  0.6555866106869418  1.0000
  H   H754      1.0  0.4862446968108697  0.4356609002865959  0.6612921879902944  1.0000
  H   H755      1.0  0.4594449636533504  0.42787024562880954  0.6935995398193034  1.0000
  H   H756      1.0  0.4982927166917921  0.45735198778111885  0.6989319522843902  1.0000
  N   N48       1.0  0.9248820305244672  0.39818593774838046  0.43731017208028466  1.0000
  C   C477      1.0  0.9349924923842927  0.4174924882973381  0.46723104598822635  1.0000
  C   C478      1.0  0.8913934457678508  0.3818820611642578  0.4355057117869731  1.0000
  C   C479      1.0  0.935453434410878  0.3756069026094994  0.4386425293797961  1.0000
  C   C480      1.0  0.9376239806111798  0.41778657686411014  0.40795596567298115  1.0000
  H   H757      1.0  0.9601620514970757  0.42992218973088414  0.46949105717148315  1.0000
  H   H758      1.0  0.9254452044234521  0.40346534707072207  0.4898097921814875  1.0000
  H   H759      1.0  0.9275891750372796  0.43497159195829815  0.46685905391830995  1.0000
  H   H760      1.0  0.8809501169285248  0.36501914211616365  0.45581749916504216  1.0000
  H   H761      1.0  0.8824874914537718  0.3980654394428584  0.4369540557646192  1.0000
  H   H762      1.0  0.8830665447474787  0.3687824621934868  0.41204175234391355  1.0000
  H   H763      1.0  0.926525887735823  0.3606663854488798  0.4606961110621062  1.0000
  H   H764      1.0  0.9606475643777609  0.38690740509787014  0.4390576011036765  1.0000
  H   H765      1.0  0.9273569766416802  0.360012810811743  0.4170170574711827  1.0000
  H   H766      1.0  0.9297906507505402  0.40414025760877653  0.3848204842798811  1.0000
  H   H767      1.0  0.9628506624968417  0.4298456736878559  0.4079565507996089  1.0000
  H   H768      1.0  0.9305460980222497  0.43546548587107853  0.4066064160059906  1.0000
