data_image0
_chemical_formula_structural       FeHSHFeS2FeS2FeSFeHS2FeS2FeS2FeSFeS3C2NH2C6H4C6H4CH2CH2C6H8CH2CH2C3H3CHNH3CH4NC4H6CSHSC2H3CHCH8CFeHSCFeS2FeS2FeSFeHS2FeS2FeS2FeSFeS3C2H2C7H4C6H4CH2CH2C6HSH6C2NHNH2CHCH4NC4H12NHC2HCH3CHNCH2CH4CSHCNCH9C2H4CH5CH3CHCH2CHCH2CHCH2SHCHCHCHFeS2FeS2FeSFeS3FeS2FeS2FeSFeS3FeS2CSFeHCFeHNCHFeS2CHC4HC6H4C6H4C6H4C6H4C6H4C2FeHCH6NHFeH7SNH2NCH4CH2SH3SHC2H8CNH3C3H2CSH2CNHCH2SH3CH9CHNC4H9CH2NC6HC2H7CH4CH7C2H6SH2FeS2FeS2FeSFeS3FeS2FeS2FeSFeS3FeS3H2SHFeHCSHFeS2CFeC2HNHC6H4C6H4C6H4C6H4C6H5C2HNC3SH2CH6C2H3CHNH4CHCH7CH4NC4H2CH6CH2FeH2C2H2CH3SFeCH2SHFeSHFeS2FeS2FeSFeCS2FeS2FeS2FeSFeS3C3H2C6H4C6H4C2SH2C6H4CHC2H2CH7CH2SNCHCH2SH3CH2CH4NC2NH7NH2C2H2CH2CH5CHNH5CH3C4HCH2C2H6CH2CFeSHFeS2FeS2FeSFeHS2FeS2FeS2FeSFeS3C4HC6H4C6H3C4H2C6H2CH2C3H2SH2CH11CH5CNC4HNH2CH7NSHCH8CH2CH7NSHC2NH5NCHCH3CH6CH5CH2CH3FeSHFeS2HSHFeSFeSHSFeS2FeS2FeSFeS3C2HNC6H3C7H5CHCFeC6H4C3H2SH3CH3CHCHNC2H3CNC4H17CNH5CH2CH3CH5CHNC3HCH4NCHCHSHSH2CH6CH2CH2S2CH2FeSHFeS2FeSHFeSFeS3FeS2FeS2FeSFeS3CH3C6H4C6H8C7H4CHC3NSH2CH9CNCHC3H6C3HCSHCH2NH2S2CH3CH2NC4H12NCHCHC2H10CFeSFeS2HS2FeSFeSHFeS2FeSHFeSFeS3FeS2FeS2FeSFeCS2H2C2HCH4C6H4C3HC2H4CH2C6H4C6H4C2H2C2H2C2H2C2NC4HSH5CH4C3HCHFeCHCH4CH2C2HCHC2H3CH4NC3H5CH2CNHNHNHCNCSH10CH8FeH3C2H3CHNSH3FeSFeS2FeS2FeHFeS2FeS2FeSHFeSFeS2HFeS2FeS2FeSFeHS2CHC2HCH4C6H4C6HCH4SC6H4C6H4CHC3H3C3SH2CH3SHCHC2HNH2NC5H2SCH2CHCH4CH2C2H2SH2CH4NHCH2CHNC4H15SC2H2CH2FeH4CH4SFeHSHFeS2FeS2FeSFeS3FeS2FeSNFeSFeSHSCHCHC7H4C6H9C6H5CHC2H2NH2CHSHNC4HCH3NCH4CNHCHCH12NC4H16CSCH2CH9CH3C2H2C2HCSH2CHCFeCSCFeS2FeS2FeSFeS3FeS2FeSHFeHFeS3C2HSHC6HCH2C6H4C2H3C6H7C2HNC4H12NC5H11CH3NCH2NH4SH5CH4CH3CH2CHC2NCH5CH3SC3SFeHSHFeS2FeS2FeSFeS3FeS2CSHFeSFeS2HCHCH6C7H4C6H5C2H3C6H4NHNC4H4CH2CH8SHSC3HCH5FeCHCNCHCH2CH2CH2NC4H2SH7CHSH3C2HFeHSCFeS2FeS2FeSFeS3FeS2HSHFeSFeS2FeC2H3CH3SC6H4C6H4SC2H3C6H6NC4H3CHC2H3NH2CHSCH4SH2CH3NCHCH2CH3CSH2CH3CHNC4H12NHCHC2H4CH5NH2CH2FeS2FeSCHCFeS2FeS2FeSFeHS2FeSHFeS2FeSFeS2NFeHSH2FeS2H2CH2C2H8C6H4C6H5C2HSH2CH2C6H4C6H4NCHNC4H2SH7CHNH2C2H4SH2CSFeH2CH2CH3NCH5CH2CNC5H6SHCH5NCHC2HFeH5CHCH2C2NC3HSCH5C2HCH5SH4CHC4HSH3SHCHCH2CHSCSH2CHFeCSFeS2FeSFeCS2FeSHFeS2FeSFeS3FeS2CHFeS2HFeH3CHCH2CH4C6H3C7H4C2SH7C6H4C6H4CH8CH2CH3CHFeHNC6HC2H5FeHCH2NSHNCH2CH3CNCH2SC2H3NCFeH4CSH5CHSNC4H11CH2C3H5CFeSCFeHSFeS2FeCFeS3FeS2FeS2FeSFeS3C5HC2H3C6H3C7H4C2H3C6H9NHCHCH8CHCH3CHC2H2SH4SHCNHCNH4CHCH6CNSH13C2HFeSHFeS2FeS2FeCFeS3FeS2FeS2FeSFeS3HC2HCHC2H3C7H3C6H5C3HC6H5NC4SH6CHSCH2CH3NH4CHCH5CH3NCH4CHSCH5C2H3CH3N2H3CH3CH4CH2CFeSHFeS2FeS2FeHFeS3FeS2FeS2FeSFeS3CHCH2C2H3C6H4C7H2SC2H2C6H9CHNH3NC4H12NC4H13SNHCH3CH3C3HCH5CH2CHCH2NHCH3FeSHFeS2FeS2FeHFeS3FeS2FeS2FeSFeS3C2H3C2H3C6H4C6H4C2H2C6H2SH2CH3CHCHNC4H12NC4H13SH3C2H4CH2CSCNC2H2NH5NH7SC4H2CFeSH2FeS2FeS2FeS2FeSFeS3FeS2FeS2FeSFeS3FeS2H2C3H2CHCH2CHCH2C6H4C6H4C6H4C6H4C6H5SC2NC4H12CNCH2FeCH2SFeHCFeH10SH2CH4CNC4H3CHSH4NC4H13NC2H3C2HSHCFeS2FeS2FeS2FeSFeS3FeS2FeS2FeSFeS3FeS2H2FeHSC6HC2H2C7H4C6H4C6H4C6H4C6H6NCFeC2H6CNH3C2HNC4H12NC4H11NH2FeHC4HS2H2CHCH2CH4CH4CH4NH3CH7CSCHSFeH7FeHSCFeS2FeS2FeSFeS3FeS2FeS2FeHFeS3C2H2C2H3C6H4C6HCH3C2H2C6H4CHNHSC2SHCH5NC4H12NH16NC4H7CHCHCHCSHCSH2CFeCSHFeS2FeS2FeSFeS3FeS2FeS2FeSFeS3C2H2C3H2C6H4C6H4C3H2C6H4CHNC2H2NH6CHCH4C3HCH7NH2NC4H12NHC4H2C2H5SH7CHSH4CH
_chemical_formula_sum              "Fe256 H2048 S512 C1280 N128"
_cell_length_a       77.2715
_cell_length_b       77.3052
_cell_length_c       43.1868
_cell_angle_alpha    89.6734
_cell_angle_beta     89.7396
_cell_angle_gamma    89.031

_space_group_name_H-M_alt    "P 1"
_space_group_IT_number       1

loop_
  _space_group_symop_operation_xyz
  'x, y, z'

loop_
  _atom_site_type_symbol
  _atom_site_label
  _atom_site_symmetry_multiplicity
  _atom_site_fract_x
  _atom_site_fract_y
  _atom_site_fract_z
  _atom_site_occupancy
  Fe  Fe1       1.0  0.16428  0.31678  0.06310  1.0000
  H   H1        1.0  0.13559  0.10046  0.29746  1.0000
  S   S1        1.0  0.16151  0.28898  0.08116  1.0000
  H   H2        1.0  0.00355  0.10698  0.24725  1.0000
  Fe  Fe2       1.0  0.16420  0.18649  0.04631  1.0000
  S   S2        1.0  0.18360  0.16937  0.02192  1.0000
  S   S3        1.0  0.16018  0.21287  0.02261  1.0000
  Fe  Fe3       1.0  0.15436  0.15634  0.08958  1.0000
  S   S4        1.0  0.17352  0.13767  0.06752  1.0000
  S   S5        1.0  0.13224  0.14926  0.12237  1.0000
  Fe  Fe4       1.0  0.19199  0.16021  0.06927  1.0000
  S   S6        1.0  0.22161  0.16218  0.07465  1.0000
  Fe  Fe5       1.0  0.16350  0.14862  0.02212  1.0000
  H   H3        1.0  0.24526  0.19178  0.19221  1.0000
  S   S7        1.0  0.17323  0.17836  0.09382  1.0000
  S   S8        1.0  0.14371  0.16615  0.04403  1.0000
  Fe  Fe6       1.0  0.09230  0.08965  0.33240  1.0000
  S   S9        1.0  0.08560  0.10555  0.29018  1.0000
  S   S10       1.0  0.09517  0.10685  0.37584  1.0000
  Fe  Fe7       1.0  0.08809  0.05550  0.29458  1.0000
  S   S11       1.0  0.08159  0.06979  0.25060  1.0000
  S   S12       1.0  0.08788  0.02589  0.29834  1.0000
  Fe  Fe8       1.0  0.10320  0.08759  0.26364  1.0000
  S   S13       1.0  0.12673  0.09589  0.23519  1.0000
  Fe  Fe9       1.0  0.06446  0.08641  0.28139  1.0000
  S   S14       1.0  0.03778  0.09683  0.26680  1.0000
  S   S15       1.0  0.11085  0.07223  0.30627  1.0000
  S   S16       1.0  0.07001  0.07145  0.32496  1.0000
  C   C1        1.0  0.09201  0.01631  0.23652  1.0000
  C   C2        1.0  0.08731  0.01130  0.26654  1.0000
  N   N1        1.0  0.12514  0.10653  0.06176  1.0000
  H   H4        1.0  0.09558  0.02957  0.23201  1.0000
  H   H5        1.0  0.14154  0.09247  0.09371  1.0000
  C   C3        1.0  0.12791  0.11072  0.20375  1.0000
  C   C4        1.0  0.14397  0.11319  0.18899  1.0000
  C   C5        1.0  0.14561  0.12500  0.16417  1.0000
  C   C6        1.0  0.13117  0.13454  0.15398  1.0000
  C   C7        1.0  0.11512  0.13207  0.16876  1.0000
  C   C8        1.0  0.11347  0.12023  0.19350  1.0000
  H   H6        1.0  0.15522  0.10587  0.19674  1.0000
  H   H7        1.0  0.15803  0.12674  0.15301  1.0000
  H   H8        1.0  0.10386  0.13936  0.16098  1.0000
  H   H9        1.0  0.10104  0.11845  0.20459  1.0000
  C   C9        1.0  0.13800  0.12322  0.44484  1.0000
  C   C10       1.0  0.14131  0.11003  0.42304  1.0000
  C   C11       1.0  0.12847  0.10478  0.40192  1.0000
  C   C12       1.0  0.11204  0.11274  0.40206  1.0000
  C   C13       1.0  0.10874  0.12594  0.42384  1.0000
  C   C14       1.0  0.12157  0.13115  0.44501  1.0000
  H   H10       1.0  0.15390  0.10368  0.42268  1.0000
  H   H11       1.0  0.13124  0.09440  0.38589  1.0000
  H   H12       1.0  0.09614  0.13226  0.42432  1.0000
  H   H13       1.0  0.11876  0.14139  0.46135  1.0000
  C   C15       1.0  0.23848  0.15592  0.10069  1.0000
  H   H14       1.0  0.10255  0.09399  0.07970  1.0000
  H   H15       1.0  0.11821  0.07971  0.06187  1.0000
  C   C16       1.0  0.23591  0.14465  0.12570  1.0000
  H   H16       1.0  0.05144  0.12514  0.30845  1.0000
  H   H17       1.0  0.22316  0.13955  0.12998  1.0000
  C   C17       1.0  0.16186  0.26800  0.06401  1.0000
  C   C18       1.0  0.16137  0.26550  0.03194  1.0000
  C   C19       1.0  0.16097  0.24858  0.01972  1.0000
  C   C20       1.0  0.16129  0.23392  0.03928  1.0000
  C   C21       1.0  0.16205  0.23641  0.07131  1.0000
  C   C22       1.0  0.16222  0.25332  0.08353  1.0000
  H   H18       1.0  0.16103  0.27660  0.01659  1.0000
  H   H19       1.0  0.14461  0.09194  0.03676  1.0000
  H   H20       1.0  0.16221  0.22533  0.08670  1.0000
  H   H21       1.0  0.16253  0.25506  0.10835  1.0000
  H   H22       1.0  0.11087  0.13191  0.31137  1.0000
  H   H23       1.0  0.12530  0.10630  0.33325  1.0000
  H   H24       1.0  0.14844  0.10372  0.33124  1.0000
  H   H25       1.0  0.16534  0.12453  0.29851  1.0000
  C   C23       1.0  0.01690  0.09097  0.28085  1.0000
  H   H26       1.0  0.10895  0.12517  0.03789  1.0000
  H   H27       1.0  0.10469  0.09350  0.03823  1.0000
  C   C24       1.0  0.02115  0.12512  0.33874  1.0000
  H   H28       1.0  0.05550  0.10166  0.36623  1.0000
  H   H29       1.0  0.03600  0.14477  0.38217  1.0000
  C   C25       1.0  0.09256  0.00406  0.21239  1.0000
  C   C26       1.0  0.03894  0.13064  0.38341  1.0000
  C   C27       1.0  0.01476  0.08021  0.30672  1.0000
  H   H30       1.0  0.06491  0.12892  0.34145  1.0000
  H   H31       1.0  0.02074  0.12006  0.31468  1.0000
  H   H32       1.0  0.12287  0.14703  0.28829  1.0000
  C   C28       1.0  0.04263  0.10401  0.35530  1.0000
  H   H33       1.0  0.04905  0.14498  0.32952  1.0000
  N   N2        1.0  0.03855  0.12268  0.35241  1.0000
  H   H34       1.0  0.16035  0.24686  0.99492  1.0000
  H   H35       1.0  0.14434  0.11550  0.09349  1.0000
  H   H36       1.0  0.03274  0.09715  0.36933  1.0000
  C   C29       1.0  0.11206  0.09282  0.06033  1.0000
  H   H37       1.0  0.22070  0.32961  0.12939  1.0000
  H   H38       1.0  0.13071  0.10515  0.01292  1.0000
  H   H39       1.0  0.11932  0.12564  0.27415  1.0000
  H   H40       1.0  0.02589  0.07391  0.31718  1.0000
  N   N3        1.0  0.13833  0.12708  0.31020  1.0000
  C   C30       1.0  0.14134  0.13717  0.33860  1.0000
  C   C31       1.0  0.15292  0.12925  0.28832  1.0000
  C   C32       1.0  0.12213  0.13321  0.29539  1.0000
  C   C33       1.0  0.13686  0.10859  0.31845  1.0000
  H   H41       1.0  0.13054  0.13562  0.35555  1.0000
  H   H42       1.0  0.14244  0.15122  0.33338  1.0000
  H   H43       1.0  0.15344  0.13286  0.35049  1.0000
  H   H44       1.0  0.15083  0.12183  0.26658  1.0000
  H   H45       1.0  0.15448  0.14305  0.28157  1.0000
  H   H46       1.0  0.12593  0.13427  0.06050  1.0000
  C   C34       1.0  0.11641  0.12366  0.05975  1.0000
  S   S17       1.0  0.18399  0.32693  0.02892  1.0000
  H   H47       1.0  0.10736  0.12582  0.07957  1.0000
  S   S18       1.0  0.15476  0.12887  0.47144  1.0000
  C   C35       1.0  0.13460  0.10513  0.09138  1.0000
  C   C36       1.0  0.13744  0.10453  0.03564  1.0000
  H   H48       1.0  0.01726  0.13902  0.33752  1.0000
  H   H49       1.0  0.14722  0.11495  0.03546  1.0000
  H   H50       1.0  0.02925  0.12469  0.39920  1.0000
  C   C37       1.0  0.00210  0.09861  0.26724  1.0000
  H   H51       1.0  0.12566  0.10649  0.11158  1.0000
  C   C38       1.0  0.05158  0.13084  0.33213  1.0000
  H   H52       1.0  0.04305  0.09782  0.33219  1.0000
  H   H53       1.0  0.01107  0.11814  0.35220  1.0000
  H   H54       1.0  0.20400  0.32881  0.45328  1.0000
  H   H55       1.0  0.09657  0.00807  0.18943  1.0000
  H   H56       1.0  0.05193  0.12892  0.39427  1.0000
  H   H57       1.0  0.24783  0.13064  0.16369  1.0000
  H   H58       1.0  0.24384  0.32376  0.16802  1.0000
  H   H59       1.0  0.24719  0.20378  0.15660  1.0000
  C   C39       1.0  0.24612  0.33281  0.14930  1.0000
  Fe  Fe10      1.0  0.15956  0.31294  0.57381  1.0000
  H   H60       1.0  0.13774  0.16759  0.95491  1.0000
  S   S19       1.0  0.15263  0.28613  0.59282  1.0000
  C   C40       1.0  0.01753  0.03069  0.78717  1.0000
  Fe  Fe11      1.0  0.15662  0.18309  0.54546  1.0000
  S   S20       1.0  0.17699  0.16818  0.51884  1.0000
  S   S21       1.0  0.15490  0.21139  0.52907  1.0000
  Fe  Fe12      1.0  0.14702  0.15017  0.58168  1.0000
  S   S22       1.0  0.16781  0.13414  0.55810  1.0000
  S   S23       1.0  0.12579  0.13568  0.60767  1.0000
  Fe  Fe13      1.0  0.18501  0.15717  0.56517  1.0000
  S   S24       1.0  0.21450  0.16000  0.57127  1.0000
  Fe  Fe14      1.0  0.15791  0.14665  0.51405  1.0000
  H   H61       1.0  0.04829  0.01378  0.78030  1.0000
  S   S25       1.0  0.16481  0.17248  0.59199  1.0000
  S   S26       1.0  0.13695  0.16229  0.53732  1.0000
  Fe  Fe15      1.0  0.09406  0.09051  0.84488  1.0000
  S   S27       1.0  0.08516  0.10856  0.80677  1.0000
  S   S28       1.0  0.09787  0.10263  0.89345  1.0000
  Fe  Fe16      1.0  0.09012  0.05850  0.80107  1.0000
  S   S29       1.0  0.08213  0.07526  0.76071  1.0000
  S   S30       1.0  0.08615  0.02901  0.79914  1.0000
  Fe  Fe17      1.0  0.10307  0.09318  0.77579  1.0000
  S   S31       1.0  0.12258  0.10872  0.74746  1.0000
  Fe  Fe18      1.0  0.06482  0.08908  0.79510  1.0000
  S   S32       1.0  0.03780  0.09513  0.77547  1.0000
  S   S33       1.0  0.11265  0.07546  0.81425  1.0000
  S   S34       1.0  0.07219  0.07204  0.83524  1.0000
  C   C41       1.0  0.10113  0.01542  0.74495  1.0000
  C   C42       1.0  0.09098  0.01249  0.77134  1.0000
  H   H62       1.0  0.14291  0.10468  0.57647  1.0000
  H   H63       1.0  0.10637  0.02813  0.74084  1.0000
  C   C43       1.0  0.12617  0.30842  0.70077  1.0000
  C   C44       1.0  0.12390  0.11491  0.70787  1.0000
  C   C45       1.0  0.13709  0.12618  0.69859  1.0000
  C   C46       1.0  0.13812  0.13236  0.66787  1.0000
  C   C47       1.0  0.12583  0.12746  0.64613  1.0000
  C   C48       1.0  0.11273  0.11604  0.65528  1.0000
  C   C49       1.0  0.11187  0.10963  0.68588  1.0000
  H   H64       1.0  0.14650  0.13029  0.71539  1.0000
  H   H65       1.0  0.14826  0.14114  0.66120  1.0000
  H   H66       1.0  0.10318  0.11212  0.63859  1.0000
  H   H67       1.0  0.10190  0.10067  0.69247  1.0000
  C   C50       1.0  0.14181  0.12542  0.95375  1.0000
  C   C51       1.0  0.14578  0.11658  0.92607  1.0000
  C   C52       1.0  0.13262  0.10985  0.90706  1.0000
  C   C53       1.0  0.11517  0.11167  0.91556  1.0000
  C   C54       1.0  0.11120  0.12067  0.94315  1.0000
  C   C55       1.0  0.12435  0.12764  0.96191  1.0000
  H   H68       1.0  0.15919  0.11472  0.91934  1.0000
  H   H69       1.0  0.13601  0.10296  0.88609  1.0000
  H   H70       1.0  0.09778  0.12226  0.95001  1.0000
  H   H71       1.0  0.09839  0.32408  0.67521  1.0000
  C   C56       1.0  0.23021  0.15732  0.60125  1.0000
  H   H72       1.0  0.14609  0.07998  0.52105  1.0000
  H   H73       1.0  0.13668  0.29840  0.70202  1.0000
  C   C57       1.0  0.22656  0.14931  0.62962  1.0000
  H   H74       1.0  0.13953  0.19986  0.91400  1.0000
  H   H75       1.0  0.21367  0.14465  0.63419  1.0000
  C   C58       1.0  0.15398  0.26544  0.57475  1.0000
  C   C59       1.0  0.15635  0.26358  0.54280  1.0000
  C   C60       1.0  0.15645  0.24696  0.52935  1.0000
  C   C61       1.0  0.15447  0.23196  0.54761  1.0000
  C   C62       1.0  0.15249  0.23379  0.57967  1.0000
  C   C63       1.0  0.15212  0.25043  0.59306  1.0000
  H   H76       1.0  0.15768  0.27495  0.52834  1.0000
  S   S35       1.0  0.17495  0.32063  0.53187  1.0000
  H   H77       1.0  0.15086  0.22243  0.59406  1.0000
  H   H78       1.0  0.15021  0.25169  0.61778  1.0000
  H   H79       1.0  0.11383  0.30216  0.70748  1.0000
  H   H80       1.0  0.02040  0.02163  0.80669  1.0000
  H   H81       1.0  0.05554  0.05193  0.78717  1.0000
  H   H82       1.0  0.02099  0.06041  0.75588  1.0000
  C   C64       1.0  0.01677  0.09172  0.79148  1.0000
  C   C65       1.0  0.01418  0.08735  0.82262  1.0000
  N   N4        1.0  0.12507  0.31618  0.66947  1.0000
  H   H83       1.0  0.02518  0.08600  0.83791  1.0000
  N   N5        1.0  0.12693  0.09829  0.53764  1.0000
  H   H84       1.0  0.13269  0.12528  0.53619  1.0000
  H   H85       1.0  0.23679  0.14052  0.67363  1.0000
  C   C66       1.0  0.14826  0.18859  0.90901  1.0000
  H   H86       1.0  0.03744  0.01532  0.74357  1.0000
  C   C67       1.0  0.12176  0.11650  0.53191  1.0000
  H   H87       1.0  0.19545  0.21274  0.60784  1.0000
  H   H88       1.0  0.13757  0.18965  0.96874  1.0000
  H   H89       1.0  0.16069  0.20941  0.95345  1.0000
  H   H90       1.0  0.11097  0.12073  0.54744  1.0000
  N   N6        1.0  0.07309  0.13899  0.72891  1.0000
  C   C68       1.0  0.08649  0.14588  0.70784  1.0000
  C   C69       1.0  0.07624  0.14518  0.76068  1.0000
  C   C70       1.0  0.07389  0.11988  0.72863  1.0000
  C   C71       1.0  0.05576  0.14492  0.71861  1.0000
  H   H91       1.0  0.08501  0.14094  0.68384  1.0000
  H   H92       1.0  0.09973  0.14202  0.71569  1.0000
  H   H93       1.0  0.08598  0.16026  0.70677  1.0000
  H   H94       1.0  0.06650  0.14003  0.77732  1.0000
  H   H95       1.0  0.08929  0.14095  0.76904  1.0000
  H   H96       1.0  0.07562  0.15955  0.76189  1.0000
  H   H97       1.0  0.06389  0.11425  0.74412  1.0000
  H   H98       1.0  0.08667  0.11493  0.73678  1.0000
  H   H99       1.0  0.07181  0.11468  0.70501  1.0000
  H   H100      1.0  0.05303  0.14051  0.69465  1.0000
  H   H101      1.0  0.05455  0.15929  0.71884  1.0000
  H   H102      1.0  0.04541  0.13970  0.73397  1.0000
  N   N7        1.0  0.20715  0.21350  0.56252  1.0000
  H   H103      1.0  0.20782  0.19066  0.53434  1.0000
  C   C72       1.0  0.20363  0.23225  0.55873  1.0000
  C   C73       1.0  0.20523  0.20483  0.53234  1.0000
  H   H104      1.0  0.17717  0.16402  0.94989  1.0000
  C   C74       1.0  0.00220  0.09353  0.77214  1.0000
  H   H105      1.0  0.02213  0.04280  0.72892  1.0000
  H   H106      1.0  0.17888  0.17141  0.91050  1.0000
  H   H107      1.0  0.16188  0.15701  0.92187  1.0000
  C   C75       1.0  0.11117  0.32955  0.66895  1.0000
  H   H108      1.0  0.00977  0.02360  0.76986  1.0000
  N   N8        1.0  0.03362  0.03738  0.77328  1.0000
  C   C76       1.0  0.16886  0.19793  0.94712  1.0000
  H   H109      1.0  0.12094  0.13454  0.98283  1.0000
  H   H110      1.0  0.17819  0.20200  0.92893  1.0000
  C   C77       1.0  0.23974  0.14700  0.65200  1.0000
  H   H111      1.0  0.00921  0.04140  0.79648  1.0000
  H   H112      1.0  0.13615  0.08256  0.57569  1.0000
  H   H113      1.0  0.17645  0.19442  0.96819  1.0000
  H   H114      1.0  0.13126  0.29206  0.64701  1.0000
  C   C78       1.0  0.13201  0.09610  0.57043  1.0000
  S   S36       1.0  0.17685  0.32747  0.60609  1.0000
  H   H115      1.0  0.15700  0.19233  0.88964  1.0000
  C   C79       1.0  0.02926  0.04942  0.74765  1.0000
  N   N9        1.0  0.15819  0.18336  0.93677  1.0000
  C   C80       1.0  0.11221  0.08699  0.53079  1.0000
  H   H116      1.0  0.15796  0.24574  0.50454  1.0000
  H   H117      1.0  0.15249  0.31439  0.66058  1.0000
  H   H118      1.0  0.05661  0.02756  0.75068  1.0000
  H   H119      1.0  0.14118  0.33061  0.63845  1.0000
  H   H120      1.0  0.04112  0.05512  0.73732  1.0000
  H   H121      1.0  0.21430  0.21003  0.51469  1.0000
  H   H122      1.0  0.11562  0.07313  0.53496  1.0000
  H   H123      1.0  0.11304  0.00415  0.70423  1.0000
  H   H124      1.0  0.20452  0.23920  0.58116  1.0000
  C   C81       1.0  0.14606  0.17854  0.96177  1.0000
  C   C82       1.0  0.19474  0.20623  0.58500  1.0000
  H   H125      1.0  0.14007  0.17784  0.90073  1.0000
  H   H126      1.0  0.23984  0.32922  0.66513  1.0000
  H   H127      1.0  0.21287  0.23825  0.54219  1.0000
  H   H128      1.0  0.19037  0.23473  0.54958  1.0000
  C   C83       1.0  0.22496  0.21061  0.57405  1.0000
  H   H129      1.0  0.22788  0.19652  0.57714  1.0000
  H   H130      1.0  0.10079  0.09030  0.54557  1.0000
  H   H131      1.0  0.22684  0.21686  0.59690  1.0000
  H   H132      1.0  0.12895  0.31840  0.71852  1.0000
  H   H133      1.0  0.19186  0.20655  0.52313  1.0000
  C   C84       1.0  0.14175  0.09362  0.51739  1.0000
  H   H134      1.0  0.23473  0.21582  0.55763  1.0000
  H   H135      1.0  0.10813  0.08836  0.50616  1.0000
  H   H136      1.0  0.12114  0.09956  0.58639  1.0000
  C   C85       1.0  0.04438  0.02286  0.76136  1.0000
  H   H137      1.0  0.11765  0.11865  0.50752  1.0000
  C   C86       1.0  0.12125  0.30260  0.64663  1.0000
  H   H138      1.0  0.10849  0.29662  0.65116  1.0000
  H   H139      1.0  0.19732  0.19218  0.58895  1.0000
  C   C87       1.0  0.04341  0.04669  0.79706  1.0000
  H   H140      1.0  0.12108  0.30789  0.62255  1.0000
  C   C88       1.0  0.16954  0.16834  0.92932  1.0000
  H   H141      1.0  0.03580  0.05777  0.80670  1.0000
  H   H142      1.0  0.00399  0.09693  0.74802  1.0000
  C   C89       1.0  0.24712  0.16325  0.59591  1.0000
  H   H143      1.0  0.13841  0.09526  0.49246  1.0000
  C   C90       1.0  0.14176  0.32417  0.66151  1.0000
  H   H144      1.0  0.18119  0.20769  0.57663  1.0000
  H   H145      1.0  0.04726  0.03802  0.81664  1.0000
  S   S37       1.0  0.15920  0.13311  0.97723  1.0000
  H   H146      1.0  0.15303  0.10205  0.52175  1.0000
  C   C91       1.0  0.10491  0.00175  0.72418  1.0000
  H   H147      1.0  0.15323  0.17432  0.98272  1.0000
  C   C92       1.0  0.24382  0.33165  0.64147  1.0000
  H   H148      1.0  0.21761  0.33162  0.62391  1.0000
  C   C93       1.0  0.23114  0.33302  0.61809  1.0000
  H   H149      1.0  0.20465  0.33282  0.49417  1.0000
  Fe  Fe19      1.0  0.06674  0.40741  0.29605  1.0000
  S   S38       1.0  0.07308  0.42618  0.33344  1.0000
  S   S39       1.0  0.04052  0.39921  0.27720  1.0000
  Fe  Fe20      1.0  0.10474  0.40372  0.27677  1.0000
  S   S40       1.0  0.11364  0.42300  0.31225  1.0000
  S   S41       1.0  0.12381  0.38639  0.25025  1.0000
  Fe  Fe21      1.0  0.09615  0.40895  0.34550  1.0000
  S   S42       1.0  0.10316  0.40561  0.39733  1.0000
  Fe  Fe22      1.0  0.09018  0.43899  0.29794  1.0000
  S   S43       1.0  0.08579  0.46842  0.29884  1.0000
  S   S44       1.0  0.08822  0.38901  0.31071  1.0000
  S   S45       1.0  0.08282  0.42085  0.25983  1.0000
  Fe  Fe23      1.0  0.08946  0.55670  0.19993  1.0000
  S   S46       1.0  0.07032  0.56764  0.23382  1.0000
  S   S47       1.0  0.10070  0.52898  0.20001  1.0000
  Fe  Fe24      1.0  0.08758  0.58942  0.15788  1.0000
  S   S48       1.0  0.06774  0.60237  0.18922  1.0000
  S   S49       1.0  0.09368  0.60016  0.10880  1.0000
  Fe  Fe25      1.0  0.08452  0.59271  0.22871  1.0000
  S   S50       1.0  0.08509  0.60933  0.27242  1.0000
  Fe  Fe26      1.0  0.05470  0.57663  0.19277  1.0000
  S   S51       1.0  0.02628  0.56872  0.19477  1.0000
  S   S52       1.0  0.10522  0.58123  0.19734  1.0000
  S   S53       1.0  0.07312  0.56422  0.15886  1.0000
  Fe  Fe27      1.0  0.15265  0.35334  0.08280  1.0000
  S   S54       1.0  0.17190  0.36534  0.05061  1.0000
  S   S55       1.0  0.13454  0.37318  0.10581  1.0000
  C   C94       1.0  0.03041  0.61359  0.30053  1.0000
  S   S56       1.0  0.21861  0.35471  0.07754  1.0000
  Fe  Fe28      1.0  0.16300  0.34646  0.01490  1.0000
  H   H150      1.0  0.10456  0.57000  0.06694  1.0000
  C   C95       1.0  0.01774  0.44518  0.25424  1.0000
  Fe  Fe29      1.0  0.15892  0.64458  0.46654  1.0000
  H   H151      1.0  0.01088  0.47235  0.29095  1.0000
  N   N10       1.0  0.02834  0.60122  0.27491  1.0000
  C   C96       1.0  0.02189  0.47388  0.27447  1.0000
  H   H152      1.0  0.04435  0.61646  0.30432  1.0000
  Fe  Fe30      1.0  0.15719  0.64442  0.39468  1.0000
  S   S57       1.0  0.15202  0.63113  0.34857  1.0000
  S   S58       1.0  0.17547  0.63209  0.42912  1.0000
  C   C97       1.0  0.23604  0.65439  0.40048  1.0000
  H   H153      1.0  0.14273  0.39289  0.04869  1.0000
  C   C98       1.0  0.23220  0.64713  0.37174  1.0000
  C   C99       1.0  0.13918  0.39708  0.02481  1.0000
  C   C100      1.0  0.23545  0.34822  0.10360  1.0000
  C   C101      1.0  0.03768  0.58490  0.28242  1.0000
  H   H154      1.0  0.22493  0.60434  0.46369  1.0000
  C   C102      1.0  0.10382  0.61490  0.29375  1.0000
  C   C103      1.0  0.12054  0.61117  0.28286  1.0000
  C   C104      1.0  0.13506  0.61614  0.30014  1.0000
  C   C105      1.0  0.13311  0.62473  0.32862  1.0000
  C   C106      1.0  0.11640  0.62839  0.33964  1.0000
  C   C107      1.0  0.10185  0.62359  0.32217  1.0000
  H   H155      1.0  0.12228  0.60453  0.26107  1.0000
  H   H156      1.0  0.14792  0.61325  0.29139  1.0000
  H   H157      1.0  0.11468  0.63479  0.36166  1.0000
  H   H158      1.0  0.08898  0.62646  0.33088  1.0000
  C   C108      1.0  0.10966  0.61007  0.08442  1.0000
  C   C109      1.0  0.12657  0.61316  0.09432  1.0000
  C   C110      1.0  0.13880  0.62053  0.07379  1.0000
  C   C111      1.0  0.13438  0.62508  0.04309  1.0000
  C   C112      1.0  0.11744  0.62214  0.03330  1.0000
  C   C113      1.0  0.10525  0.61463  0.05374  1.0000
  H   H159      1.0  0.13027  0.60983  0.11775  1.0000
  H   H160      1.0  0.15183  0.62268  0.08177  1.0000
  H   H161      1.0  0.12839  0.45731  0.37564  1.0000
  H   H162      1.0  0.09226  0.61234  0.04566  1.0000
  C   C114      1.0  0.11620  0.39034  0.41907  1.0000
  C   C115      1.0  0.12631  0.37735  0.40499  1.0000
  C   C116      1.0  0.13655  0.36581  0.42318  1.0000
  C   C117      1.0  0.13685  0.36691  0.45580  1.0000
  C   C118      1.0  0.12676  0.37991  0.46988  1.0000
  C   C119      1.0  0.11659  0.39151  0.45167  1.0000
  H   H163      1.0  0.12625  0.37615  0.38005  1.0000
  H   H164      1.0  0.14419  0.35584  0.41183  1.0000
  H   H165      1.0  0.08939  0.56251  0.09504  1.0000
  H   H166      1.0  0.10886  0.40140  0.46304  1.0000
  C   C120      1.0  0.12628  0.38284  0.20996  1.0000
  C   C121      1.0  0.13720  0.36922  0.19995  1.0000
  C   C122      1.0  0.13970  0.36593  0.16817  1.0000
  C   C123      1.0  0.13139  0.37636  0.14607  1.0000
  C   C124      1.0  0.12035  0.38989  0.15606  1.0000
  C   C125      1.0  0.11777  0.39312  0.18786  1.0000
  H   H167      1.0  0.14372  0.36111  0.21693  1.0000
  H   H168      1.0  0.14799  0.35531  0.16079  1.0000
  H   H169      1.0  0.11388  0.39804  0.13911  1.0000
  H   H170      1.0  0.10946  0.40373  0.19524  1.0000
  C   C126      1.0  0.08962  0.48483  0.27033  1.0000
  C   C127      1.0  0.08332  0.50175  0.27573  1.0000
  C   C128      1.0  0.08631  0.51529  0.25430  1.0000
  C   C129      1.0  0.09584  0.51215  0.22719  1.0000
  C   C130      1.0  0.10203  0.49518  0.22168  1.0000
  C   C131      1.0  0.09887  0.48158  0.24295  1.0000
  H   H171      1.0  0.07617  0.50451  0.29677  1.0000
  H   H172      1.0  0.08148  0.52823  0.25902  1.0000
  H   H173      1.0  0.10945  0.49255  0.20089  1.0000
  H   H174      1.0  0.10387  0.46869  0.23839  1.0000
  C   C132      1.0  0.01655  0.41133  0.32090  1.0000
  C   C133      1.0  0.01934  0.40418  0.29158  1.0000
  Fe  Fe31      1.0  0.19021  0.65688  0.42692  1.0000
  H   H175      1.0  0.02745  0.41375  0.33579  1.0000
  C   C134      1.0  0.10911  0.40038  0.03957  1.0000
  H   H176      1.0  0.04020  0.46533  0.22342  1.0000
  H   H177      1.0  0.04733  0.45783  0.30718  1.0000
  H   H178      1.0  0.23048  0.62681  0.46659  1.0000
  H   H179      1.0  0.01637  0.60507  0.18137  1.0000
  H   H180      1.0  0.00793  0.58789  0.25184  1.0000
  H   H181      1.0  0.05700  0.36234  0.26284  1.0000
  N   N11       1.0  0.07519  0.36033  0.22501  1.0000
  H   H182      1.0  0.11528  0.43844  0.37421  1.0000
  Fe  Fe32      1.0  0.19115  0.34519  0.06724  1.0000
  H   H183      1.0  0.19425  0.63976  0.48502  1.0000
  H   H184      1.0  0.09512  0.48499  0.41434  1.0000
  H   H185      1.0  0.18594  0.40027  0.18015  1.0000
  H   H186      1.0  0.08053  0.45812  0.37032  1.0000
  H   H187      1.0  0.00370  0.59246  0.29178  1.0000
  H   H188      1.0  0.13161  0.55872  0.13537  1.0000
  H   H189      1.0  0.09706  0.35544  0.19499  1.0000
  S   S59       1.0  0.17237  0.33453  0.10195  1.0000
  N   N12       1.0  0.12127  0.39223  0.01729  1.0000
  H   H190      1.0  0.08511  0.43957  0.39455  1.0000
  H   H191      1.0  0.02515  0.60837  0.32265  1.0000
  N   N13       1.0  0.10351  0.46000  0.39787  1.0000
  C   C135      1.0  0.00606  0.57976  0.18982  1.0000
  H   H192      1.0  0.14016  0.53981  0.09103  1.0000
  H   H193      1.0  0.20223  0.35444  0.17976  1.0000
  H   H194      1.0  0.10991  0.41473  0.03882  1.0000
  H   H195      1.0  0.15288  0.65991  0.07056  1.0000
  C   C136      1.0  0.00491  0.40092  0.27280  1.0000
  H   H196      1.0  0.10206  0.35556  0.23544  1.0000
  H   H197      1.0  0.00685  0.39537  0.25009  1.0000
  S   S60       1.0  0.21990  0.65804  0.42965  1.0000
  H   H198      1.0  0.21900  0.64378  0.36649  1.0000
  H   H199      1.0  0.02856  0.62072  0.23912  1.0000
  H   H200      1.0  0.10157  0.45908  0.44757  1.0000
  S   S61       1.0  0.15057  0.63437  0.01839  1.0000
  H   H201      1.0  0.22748  0.37019  0.45964  1.0000
  C   C137      1.0  0.00978  0.59766  0.27035  1.0000
  C   C138      1.0  0.24554  0.64384  0.34992  1.0000
  H   H202      1.0  0.10984  0.43957  0.43012  1.0000
  H   H203      1.0  0.03483  0.59945  0.22671  1.0000
  H   H204      1.0  0.18490  0.33640  0.47296  1.0000
  H   H205      1.0  0.22028  0.37985  0.17282  1.0000
  H   H206      1.0  0.01189  0.45063  0.23273  1.0000
  H   H207      1.0  0.12159  0.36849  0.04353  1.0000
  H   H208      1.0  0.08695  0.38373  0.23995  1.0000
  H   H209      1.0  0.00697  0.44245  0.27075  1.0000
  C   C139      1.0  0.09206  0.35178  0.21834  1.0000
  N   N14       1.0  0.03044  0.45706  0.26776  1.0000
  H   H210      1.0  0.07670  0.45914  0.41138  1.0000
  H   H211      1.0  0.14869  0.39085  0.00863  1.0000
  H   H212      1.0  0.08142  0.38348  0.19976  1.0000
  C   C140      1.0  0.04486  0.45966  0.24567  1.0000
  C   C141      1.0  0.06931  0.35545  0.25646  1.0000
  C   C142      1.0  0.11977  0.37322  0.01937  1.0000
  H   H213      1.0  0.18197  0.36103  0.43719  1.0000
  H   H214      1.0  0.09899  0.48389  0.37328  1.0000
  C   C143      1.0  0.08566  0.45396  0.39332  1.0000
  S   S62       1.0  0.13951  0.65516  0.43185  1.0000
  H   H215      1.0  0.12980  0.36658  0.00507  1.0000
  H   H216      1.0  0.22859  0.34840  0.44518  1.0000
  C   C144      1.0  0.10364  0.47910  0.39626  1.0000
  N   N15       1.0  0.20417  0.35572  0.46573  1.0000
  H   H217      1.0  0.07908  0.35878  0.27420  1.0000
  C   C145      1.0  0.19640  0.36166  0.43623  1.0000
  H   H218      1.0  0.04940  0.36116  0.20659  1.0000
  H   H219      1.0  0.09551  0.39685  0.03451  1.0000
  S   S63       1.0  0.15032  0.35193  0.47734  1.0000
  H   H220      1.0  0.11691  0.48413  0.39960  1.0000
  H   H221      1.0  0.12334  0.45819  0.43261  1.0000
  H   H222      1.0  0.05469  0.46857  0.25521  1.0000
  C   C146      1.0  0.03562  0.60869  0.24623  1.0000
  H   H223      1.0  0.11373  0.62548  0.00985  1.0000
  H   H224      1.0  0.14093  0.41130  0.02314  1.0000
  H   H225      1.0  0.04342  0.43656  0.29253  1.0000
  H   H226      1.0  0.10691  0.36881  0.01137  1.0000
  H   H227      1.0  0.11024  0.45679  0.34983  1.0000
  H   H228      1.0  0.09538  0.54884  0.06315  1.0000
  H   H229      1.0  0.02358  0.62608  0.29552  1.0000
  H   H230      1.0  0.06706  0.34131  0.25841  1.0000
  H   H231      1.0  0.19976  0.37530  0.43092  1.0000
  C   C147      1.0  0.03732  0.44947  0.29676  1.0000
  H   H232      1.0  0.11897  0.52990  0.13112  1.0000
  N   N16       1.0  0.19437  0.37760  0.15529  1.0000
  C   C148      1.0  0.19437  0.35861  0.15944  1.0000
  C   C149      1.0  0.18465  0.38228  0.12697  1.0000
  C   C150      1.0  0.21241  0.38349  0.15219  1.0000
  C   C151      1.0  0.18606  0.38592  0.18240  1.0000
  H   H233      1.0  0.21065  0.62093  0.44887  1.0000
  H   H234      1.0  0.19990  0.35200  0.13875  1.0000
  H   H235      1.0  0.18102  0.35372  0.16283  1.0000
  H   H236      1.0  0.18400  0.39653  0.12334  1.0000
  H   H237      1.0  0.19091  0.37653  0.10604  1.0000
  H   H238      1.0  0.17112  0.37753  0.12798  1.0000
  H   H239      1.0  0.21296  0.39777  0.14914  1.0000
  H   H240      1.0  0.21894  0.37755  0.13168  1.0000
  H   H241      1.0  0.05169  0.44722  0.24037  1.0000
  C   C152      1.0  0.19923  0.33764  0.47179  1.0000
  H   H242      1.0  0.19292  0.38244  0.20422  1.0000
  H   H243      1.0  0.17236  0.38189  0.18509  1.0000
  N   N17       1.0  0.11478  0.55081  0.09859  1.0000
  C   C153      1.0  0.12908  0.54542  0.07775  1.0000
  C   C154      1.0  0.10859  0.53566  0.11627  1.0000
  C   C155      1.0  0.10042  0.55829  0.08004  1.0000
  C   C156      1.0  0.12107  0.56395  0.12033  1.0000
  C   C157      1.0  0.10985  0.45400  0.42842  1.0000
  C   C158      1.0  0.00478  0.59761  0.18440  1.0000
  H   H244      1.0  0.13399  0.55662  0.06412  1.0000
  C   C159      1.0  0.21961  0.61755  0.46818  1.0000
  C   C160      1.0  0.22324  0.35670  0.46400  1.0000
  H   H245      1.0  0.10383  0.52538  0.10071  1.0000
  H   H246      1.0  0.09775  0.53927  0.13214  1.0000
  H   H247      1.0  0.06045  0.34063  0.20275  1.0000
  H   H248      1.0  0.04951  0.61192  0.24912  1.0000
  H   H249      1.0  0.11047  0.56859  0.13575  1.0000
  H   H250      1.0  0.12600  0.57552  0.10785  1.0000
  H   H251      1.0  0.12481  0.53550  0.06097  1.0000
  C   C161      1.0  0.11485  0.45284  0.37329  1.0000
  H   H252      1.0  0.03111  0.48310  0.28487  1.0000
  H   H253      1.0  0.03269  0.57893  0.30410  1.0000
  H   H254      1.0  0.11200  0.39612  0.06375  1.0000
  H   H255      1.0  0.09112  0.33743  0.21921  1.0000
  C   C162      1.0  0.07712  0.37928  0.22321  1.0000
  H   H256      1.0  0.05180  0.58708  0.28551  1.0000
  H   H257      1.0  0.22929  0.35226  0.48617  1.0000
  H   H258      1.0  0.24240  0.63799  0.32800  1.0000
  H   H259      1.0  0.06627  0.35842  0.17809  1.0000
  H   H260      1.0  0.02687  0.44763  0.31425  1.0000
  H   H261      1.0  0.06473  0.38622  0.22863  1.0000
  H   H262      1.0  0.01662  0.48003  0.25303  1.0000
  C   C163      1.0  0.23290  0.33620  0.12749  1.0000
  C   C164      1.0  0.06225  0.35489  0.20207  1.0000
  H   H263      1.0  0.20082  0.35349  0.41650  1.0000
  H   H264      1.0  0.02388  0.43248  0.24824  1.0000
  H   H265      1.0  0.03624  0.57523  0.26356  1.0000
  H   H266      1.0  0.18667  0.60910  0.48107  1.0000
  H   H267      1.0  0.13249  0.66118  0.31098  1.0000
  H   H268      1.0  0.00239  0.60951  0.26323  1.0000
  S   S64       1.0  0.14285  0.33503  0.04667  1.0000
  H   H269      1.0  0.20128  0.38060  0.48749  1.0000
  H   H270      1.0  0.12736  0.66547  0.03754  1.0000
  Fe  Fe33      1.0  0.05802  0.41951  0.80458  1.0000
  S   S65       1.0  0.07930  0.42936  0.83503  1.0000
  S   S66       1.0  0.03118  0.43006  0.81831  1.0000
  Fe  Fe34      1.0  0.08477  0.40183  0.76153  1.0000
  S   S67       1.0  0.10763  0.41065  0.78909  1.0000
  S   S68       1.0  0.08596  0.38754  0.71548  1.0000
  Fe  Fe35      1.0  0.09202  0.40293  0.83143  1.0000
  S   S69       1.0  0.09916  0.38664  0.87500  1.0000
  Fe  Fe36      1.0  0.09291  0.43624  0.79056  1.0000
  S   S70       1.0  0.10509  0.46283  0.78446  1.0000
  S   S71       1.0  0.06975  0.39263  0.80330  1.0000
  S   S72       1.0  0.07113  0.42787  0.76057  1.0000
  Fe  Fe37      1.0  0.08745  0.55205  0.68907  1.0000
  S   S73       1.0  0.07885  0.56581  0.73219  1.0000
  S   S74       1.0  0.08719  0.52237  0.68543  1.0000
  Fe  Fe38      1.0  0.09131  0.58675  0.65212  1.0000
  S   S75       1.0  0.08179  0.60224  0.69337  1.0000
  S   S76       1.0  0.09766  0.60293  0.60799  1.0000
  Fe  Fe39      1.0  0.09963  0.58508  0.72136  1.0000
  S   S77       1.0  0.12150  0.59461  0.75232  1.0000
  Fe  Fe40      1.0  0.06158  0.58171  0.70034  1.0000
  S   S78       1.0  0.03373  0.58568  0.71851  1.0000
  S   S79       1.0  0.10968  0.57002  0.68002  1.0000
  S   S80       1.0  0.06960  0.56742  0.65728  1.0000
  Fe  Fe41      1.0  0.15864  0.35009  0.59839  1.0000
  S   S81       1.0  0.17404  0.36036  0.55810  1.0000
  S   S82       1.0  0.15457  0.36632  0.64184  1.0000
  S   S83       1.0  0.13439  0.66319  0.94400  1.0000
  H   H271      1.0  0.13589  0.60915  0.65280  1.0000
  H   H272      1.0  0.10415  0.39366  0.97796  1.0000
  S   S84       1.0  0.15952  0.35957  0.96687  1.0000
  H   H273      1.0  0.12671  0.39322  0.96847  1.0000
  Fe  Fe42      1.0  0.15373  0.64648  0.96941  1.0000
  H   H274      1.0  0.13661  0.41508  0.73223  1.0000
  C   C165      1.0  0.04445  0.49669  0.82148  1.0000
  S   S85       1.0  0.15668  0.62862  0.51213  1.0000
  H   H275      1.0  0.02100  0.48178  0.78375  1.0000
  Fe  Fe43      1.0  0.14602  0.65257  0.89980  1.0000
  S   S86       1.0  0.12496  0.64901  0.86327  1.0000
  S   S87       1.0  0.16442  0.63434  0.92543  1.0000
  C   C166      1.0  0.22770  0.65703  0.88935  1.0000
  Fe  Fe44      1.0  0.18300  0.65676  0.92274  1.0000
  C   C167      1.0  0.00845  0.41092  0.78264  1.0000
  C   C168      1.0  0.19634  0.60621  0.49950  1.0000
  H   H276      1.0  0.12573  0.46162  0.72371  1.0000
  N   N18       1.0  0.04764  0.48336  0.79765  1.0000
  H   H277      1.0  0.05623  0.50449  0.82544  1.0000
  C   C169      1.0  0.12177  0.60925  0.78398  1.0000
  C   C170      1.0  0.13712  0.61080  0.80111  1.0000
  C   C171      1.0  0.13824  0.62265  0.82574  1.0000
  C   C172      1.0  0.12405  0.63330  0.83330  1.0000
  C   C173      1.0  0.10873  0.63186  0.81601  1.0000
  C   C174      1.0  0.10754  0.61985  0.79160  1.0000
  H   H278      1.0  0.14823  0.60272  0.79537  1.0000
  H   H279      1.0  0.15013  0.62362  0.83869  1.0000
  H   H280      1.0  0.09765  0.63999  0.82166  1.0000
  H   H281      1.0  0.09565  0.61883  0.77867  1.0000
  C   C175      1.0  0.11429  0.60951  0.58121  1.0000
  C   C176      1.0  0.10995  0.62100  0.55683  1.0000
  C   C177      1.0  0.12256  0.62686  0.53542  1.0000
  C   C178      1.0  0.13989  0.62144  0.53808  1.0000
  C   C179      1.0  0.14427  0.61002  0.56258  1.0000
  C   C180      1.0  0.13162  0.60403  0.58382  1.0000
  H   H282      1.0  0.09664  0.62536  0.55436  1.0000
  H   H283      1.0  0.05485  0.48213  0.74957  1.0000
  H   H284      1.0  0.15754  0.60559  0.56499  1.0000
  H   H285      1.0  0.13525  0.59501  0.60196  1.0000
  C   C181      1.0  0.11645  0.37864  0.89906  1.0000
  C   C182      1.0  0.13350  0.38436  0.89631  1.0000
  C   C183      1.0  0.14648  0.37806  0.91673  1.0000
  C   C184      1.0  0.14273  0.36594  0.94028  1.0000
  C   C185      1.0  0.12575  0.35993  0.94256  1.0000
  C   C186      1.0  0.11274  0.36635  0.92234  1.0000
  H   H286      1.0  0.13667  0.39373  0.87858  1.0000
  H   H287      1.0  0.15954  0.38275  0.91443  1.0000
  H   H288      1.0  0.12261  0.35026  0.95977  1.0000
  H   H289      1.0  0.09969  0.36163  0.92453  1.0000
  C   C187      1.0  0.10513  0.38151  0.69543  1.0000
  C   C188      1.0  0.10403  0.37601  0.66453  1.0000
  C   C189      1.0  0.11903  0.37122  0.64773  1.0000
  C   C190      1.0  0.13525  0.37184  0.66182  1.0000
  C   C191      1.0  0.13634  0.37733  0.69273  1.0000
  C   C192      1.0  0.12135  0.38206  0.70953  1.0000
  H   H290      1.0  0.09151  0.37559  0.65345  1.0000
  H   H291      1.0  0.11805  0.36723  0.62383  1.0000
  H   H292      1.0  0.14885  0.37780  0.70382  1.0000
  H   H293      1.0  0.12231  0.38595  0.73348  1.0000
  C   C193      1.0  0.09894  0.47945  0.75773  1.0000
  C   C194      1.0  0.10441  0.49647  0.76279  1.0000
  C   C195      1.0  0.10045  0.50989  0.74150  1.0000
  C   C196      1.0  0.09134  0.50635  0.71439  1.0000
  C   C197      1.0  0.08585  0.48931  0.70937  1.0000
  C   C198      1.0  0.08940  0.47600  0.73105  1.0000
  H   H294      1.0  0.11187  0.49932  0.78323  1.0000
  H   H295      1.0  0.10487  0.52289  0.74562  1.0000
  H   H296      1.0  0.07879  0.48643  0.68849  1.0000
  H   H297      1.0  0.08492  0.46307  0.72681  1.0000
  H   H298      1.0  0.09973  0.43719  0.69274  1.0000
  C   C199      1.0  0.01048  0.42258  0.80695  1.0000
  C   C200      1.0  0.11707  0.39818  0.98554  1.0000
  H   H299      1.0  0.01974  0.40582  0.77067  1.0000
  N   N19       1.0  0.21074  0.61858  0.49856  1.0000
  C   C201      1.0  0.03171  0.47343  0.79276  1.0000
  C   C202      1.0  0.01354  0.58454  0.69877  1.0000
  C   C203      1.0  0.01198  0.58804  0.66707  1.0000
  S   S88       1.0  0.21271  0.65648  0.92079  1.0000
  H   H300      1.0  0.02343  0.59076  0.65351  1.0000
  H   H301      1.0  0.02717  0.46731  0.81471  1.0000
  C   C204      1.0  0.06163  0.47148  0.80815  1.0000
  H   H302      1.0  0.13012  0.41345  0.67585  1.0000
  H   H303      1.0  0.03385  0.50581  0.81449  1.0000
  H   H304      1.0  0.23414  0.62350  0.52340  1.0000
  H   H305      1.0  0.04075  0.49073  0.84405  1.0000
  H   H306      1.0  0.04282  0.50127  0.76010  1.0000
  H   H307      1.0  0.06490  0.46170  0.79018  1.0000
  C   C205      1.0  0.05281  0.49179  0.76830  1.0000
  C   C206      1.0  0.13186  0.42772  0.67469  1.0000
  H   H308      1.0  0.12020  0.46075  0.68351  1.0000
  H   H309      1.0  0.21054  0.64709  0.85493  1.0000
  H   H310      1.0  0.07374  0.47853  0.81323  1.0000
  C   C207      1.0  0.13789  0.42933  0.72947  1.0000
  H   H311      1.0  0.14244  0.45840  0.69529  1.0000
  N   N20       1.0  0.12683  0.43610  0.70415  1.0000
  H   H312      1.0  0.11848  0.63380  0.63211  1.0000
  H   H313      1.0  0.14840  0.63838  0.65020  1.0000
  H   H314      1.0  0.12383  0.43266  0.65510  1.0000
  H   H315      1.0  0.06513  0.49893  0.77088  1.0000
  C   C208      1.0  0.12892  0.45503  0.70146  1.0000
  H   H316      1.0  0.13427  0.43533  0.75209  1.0000
  C   C209      1.0  0.10857  0.43230  0.71120  1.0000
  H   H317      1.0  0.10445  0.43835  0.73335  1.0000
  H   H318      1.0  0.05784  0.46423  0.82944  1.0000
  H   H319      1.0  0.11897  0.60484  0.67985  1.0000
  H   H320      1.0  0.10172  0.62915  0.65928  1.0000
  H   H321      1.0  0.03394  0.46268  0.77601  1.0000
  H   H322      1.0  0.15332  0.63701  0.69083  1.0000
  H   H323      1.0  0.11884  0.63561  0.51689  1.0000
  C   C210      1.0  0.22318  0.61432  0.52344  1.0000
  H   H324      1.0  0.10856  0.62722  0.71592  1.0000
  H   H325      1.0  0.10650  0.41815  0.71355  1.0000
  H   H326      1.0  0.23310  0.64559  0.81368  1.0000
  H   H327      1.0  0.11380  0.34014  0.68562  1.0000
  N   N21       1.0  0.12708  0.63112  0.67928  1.0000
  C   C211      1.0  0.14312  0.64084  0.67386  1.0000
  C   C212      1.0  0.11393  0.63643  0.65617  1.0000
  C   C213      1.0  0.12046  0.63469  0.71084  1.0000
  C   C214      1.0  0.13085  0.61242  0.67624  1.0000
  H   H328      1.0  0.14077  0.65502  0.67606  1.0000
  H   H329      1.0  0.14568  0.43000  0.66884  1.0000
  C   C215      1.0  0.23638  0.65046  0.83631  1.0000
  H   H330      1.0  0.11061  0.65044  0.65778  1.0000
  H   H331      1.0  0.22872  0.60103  0.52068  1.0000
  H   H332      1.0  0.15179  0.43200  0.72510  1.0000
  H   H333      1.0  0.11723  0.64863  0.71407  1.0000
  H   H334      1.0  0.13009  0.63080  0.72882  1.0000
  H   H335      1.0  0.20325  0.36264  0.51384  1.0000
  C   C216      1.0  0.22353  0.65131  0.85966  1.0000
  H   H336      1.0  0.14040  0.60776  0.69378  1.0000
  H   H337      1.0  0.19696  0.63765  0.52579  1.0000
  Fe  Fe45      1.0  0.15696  0.34411  0.52805  1.0000
  H   H338      1.0  0.20101  0.59266  0.49624  1.0000
  H   H339      1.0  0.11707  0.41253  0.98360  1.0000
  C   C217      1.0  0.23598  0.33626  0.58736  1.0000
  C   C218      1.0  0.24473  0.66235  0.89503  1.0000
  H   H340      1.0  0.12675  0.38104  0.49483  1.0000
  H   H341      1.0  0.21686  0.61500  0.54665  1.0000
  C   C219      1.0  0.20381  0.63631  0.50315  1.0000
  H   H342      1.0  0.18916  0.60689  0.52191  1.0000
  H   H343      1.0  0.21418  0.64613  0.50182  1.0000
  H   H344      1.0  0.18339  0.36644  0.49309  1.0000
  S   S89       1.0  0.22041  0.33802  0.55695  1.0000
  Fe  Fe46      1.0  0.19102  0.33662  0.56405  1.0000
  C   C220      1.0  0.19775  0.36685  0.49114  1.0000
  H   H345      1.0  0.14534  0.33426  0.67854  1.0000
  H   H346      1.0  0.10991  0.33556  0.64556  1.0000
  S   S90       1.0  0.14026  0.33518  0.56844  1.0000
  H   H347      1.0  0.04137  0.96346  0.14102  1.0000
  Fe  Fe47      1.0  0.15653  0.67884  0.42883  1.0000
  S   S91       1.0  0.14374  0.70547  0.42071  1.0000
  H   H348      1.0  0.15298  0.69708  0.35362  1.0000
  Fe  Fe48      1.0  0.16639  0.80862  0.43399  1.0000
  S   S92       1.0  0.17896  0.82902  0.46315  1.0000
  S   S93       1.0  0.17344  0.78076  0.44877  1.0000
  Fe  Fe49      1.0  0.14923  0.83667  0.39276  1.0000
  S   S94       1.0  0.16008  0.85859  0.42036  1.0000
  S   S95       1.0  0.13422  0.83812  0.34729  1.0000
  Fe  Fe50      1.0  0.18503  0.84270  0.41832  1.0000
  S   S96       1.0  0.21023  0.85616  0.40438  1.0000
  Fe  Fe51      1.0  0.15300  0.84300  0.46324  1.0000
  C   C221      1.0  0.13601  0.69056  0.07708  1.0000
  S   S97       1.0  0.17435  0.82148  0.38945  1.0000
  S   S98       1.0  0.14034  0.82202  0.43517  1.0000
  Fe  Fe52      1.0  0.06408  0.91160  0.18084  1.0000
  S   S99       1.0  0.07872  0.92784  0.14625  1.0000
  S   S100      1.0  0.03585  0.90895  0.16528  1.0000
  Fe  Fe53      1.0  0.09593  0.90829  0.22285  1.0000
  S   S101      1.0  0.11197  0.92435  0.19033  1.0000
  S   S102      1.0  0.10901  0.90462  0.27008  1.0000
  Fe  Fe54      1.0  0.08870  0.94202  0.18763  1.0000
  S   S103      1.0  0.09029  0.97159  0.18695  1.0000
  Fe  Fe55      1.0  0.10078  0.90862  0.15144  1.0000
  S   S104      1.0  0.11936  0.90251  0.11030  1.0000
  S   S105      1.0  0.07301  0.92698  0.22172  1.0000
  S   S106      1.0  0.08581  0.89138  0.18428  1.0000
  C   C222      1.0  0.08830  0.98669  0.21781  1.0000
  C   C223      1.0  0.19880  0.86780  0.30475  1.0000
  C   C224      1.0  0.08298  0.98178  0.24756  1.0000
  H   H349      1.0  0.18473  0.86573  0.36093  1.0000
  H   H350      1.0  0.07922  0.96858  0.25190  1.0000
  C   C225      1.0  0.12706  0.85678  0.32643  1.0000
  C   C226      1.0  0.12933  0.87353  0.33764  1.0000
  C   C227      1.0  0.12376  0.88796  0.31998  1.0000
  C   C228      1.0  0.11585  0.88586  0.29096  1.0000
  C   C229      1.0  0.11373  0.86913  0.27961  1.0000
  C   C230      1.0  0.11929  0.85469  0.29730  1.0000
  H   H351      1.0  0.13512  0.87536  0.36012  1.0000
  H   H352      1.0  0.12536  0.90084  0.32908  1.0000
  H   H353      1.0  0.10766  0.86730  0.25736  1.0000
  H   H354      1.0  0.11747  0.84180  0.28839  1.0000
  C   C231      1.0  0.13335  0.86134  0.03525  1.0000
  C   C232      1.0  0.11965  0.85855  0.05630  1.0000
  C   C233      1.0  0.11513  0.87088  0.07926  1.0000
  C   C234      1.0  0.12427  0.88632  0.08165  1.0000
  C   C235      1.0  0.13793  0.88914  0.06049  1.0000
  C   C236      1.0  0.14247  0.87681  0.03756  1.0000
  H   H355      1.0  0.11245  0.84670  0.05493  1.0000
  H   H356      1.0  0.10461  0.86841  0.09520  1.0000
  H   H357      1.0  0.14520  0.90094  0.06209  1.0000
  H   H358      1.0  0.15319  0.87919  0.02205  1.0000
  C   C237      1.0  0.22803  0.84767  0.38248  1.0000
  C   C238      1.0  0.17535  0.86567  0.34149  1.0000
  S   S107      1.0  0.17316  0.66844  0.39010  1.0000
  H   H359      1.0  0.17627  0.83202  0.32455  1.0000
  H   H360      1.0  0.03208  0.94034  0.21434  1.0000
  C   C239      1.0  0.15245  0.72629  0.42799  1.0000
  C   C240      1.0  0.14326  0.74120  0.41800  1.0000
  C   C241      1.0  0.14957  0.75795  0.42359  1.0000
  C   C242      1.0  0.16512  0.76002  0.43955  1.0000
  C   C243      1.0  0.17426  0.74512  0.44963  1.0000
  C   C244      1.0  0.16805  0.72838  0.44373  1.0000
  H   H361      1.0  0.13114  0.73979  0.40592  1.0000
  H   H362      1.0  0.14234  0.76925  0.41578  1.0000
  H   H363      1.0  0.13217  0.93174  0.24505  1.0000
  H   H364      1.0  0.17528  0.71710  0.45164  1.0000
  C   C245      1.0  0.18792  0.83981  0.31911  1.0000
  H   H365      1.0  0.17589  0.85378  0.26584  1.0000
  C   C246      1.0  0.01497  0.90903  0.18304  1.0000
  C   C247      1.0  0.01256  0.90695  0.21499  1.0000
  H   H366      1.0  0.01201  0.98375  0.19941  1.0000
  H   H367      1.0  0.02368  0.90505  0.22983  1.0000
  C   C248      1.0  0.10959  0.94915  0.28111  1.0000
  H   H368      1.0  0.14550  0.70933  0.02701  1.0000
  H   H369      1.0  0.19438  0.83382  0.29865  1.0000
  H   H370      1.0  0.12002  0.95991  0.22532  1.0000
  H   H371      1.0  0.10156  0.96039  0.28883  1.0000
  H   H372      1.0  0.19569  0.88170  0.30039  1.0000
  H   H373      1.0  0.10973  0.93947  0.30031  1.0000
  H   H374      1.0  0.16607  0.87270  0.28314  1.0000
  C   C249      1.0  0.17043  0.85913  0.28772  1.0000
  H   H375      1.0  0.15862  0.85163  0.29341  1.0000
  H   H376      1.0  0.07890  0.98997  0.29490  1.0000
  S   S108      1.0  0.17466  0.66909  0.46591  1.0000
  N   N22       1.0  0.03007  0.96352  0.18673  1.0000
  C   C250      1.0  0.13517  0.96348  0.29878  1.0000
  H   H377      1.0  0.11941  0.69749  0.29207  1.0000
  C   C251      1.0  0.04502  0.97195  0.20120  1.0000
  H   H378      1.0  0.02511  0.94730  0.14745  1.0000
  H   H379      1.0  0.12751  0.97533  0.30501  1.0000
  S   S109      1.0  0.13807  0.84530  0.00624  1.0000
  H   H380      1.0  0.13968  0.96981  0.23736  1.0000
  H   H381      1.0  0.16824  0.67677  0.07720  1.0000
  H   H382      1.0  0.11923  0.97825  0.25057  1.0000
  C   C252      1.0  0.15494  0.69931  0.03534  1.0000
  H   H383      1.0  0.11698  0.68830  0.37675  1.0000
  H   H384      1.0  0.21961  0.82128  0.38223  1.0000
  C   C253      1.0  0.08273  0.99396  0.27184  1.0000
  H   H385      1.0  0.13545  0.67417  0.37699  1.0000
  H   H386      1.0  0.04117  0.97925  0.22235  1.0000
  H   H387      1.0  0.16404  0.85814  0.34942  1.0000
  H   H388      1.0  0.19696  0.83851  0.33907  1.0000
  N   N23       1.0  0.18313  0.85811  0.31322  1.0000
  C   C254      1.0  0.13782  0.93885  0.26481  1.0000
  C   C255      1.0  0.02261  0.95092  0.20870  1.0000
  N   N24       1.0  0.12729  0.95439  0.27248  1.0000
  H   H389      1.0  0.10671  0.68072  0.30944  1.0000
  H   H390      1.0  0.12451  0.68623  0.01865  1.0000
  H   H391      1.0  0.14637  0.70703  0.31774  1.0000
  H   H392      1.0  0.12919  0.67964  0.08854  1.0000
  H   H393      1.0  0.20860  0.86709  0.32366  1.0000
  H   H394      1.0  0.13837  0.92955  0.28460  1.0000
  H   H395      1.0  0.13580  0.95504  0.31974  1.0000
  N   N25       1.0  0.14610  0.68451  0.04997  1.0000
  H   H396      1.0  0.00542  0.97077  0.16729  1.0000
  H   H397      1.0  0.15129  0.94222  0.25828  1.0000
  C   C256      1.0  0.24398  0.82399  0.35773  1.0000
  C   C257      1.0  0.13430  0.67669  0.02738  1.0000
  H   H398      1.0  0.24500  0.81039  0.35210  1.0000
  H   H399      1.0  0.05133  0.98119  0.18498  1.0000
  C   C258      1.0  0.12655  0.96609  0.24529  1.0000
  H   H400      1.0  0.14450  0.69654  0.09465  1.0000
  H   H401      1.0  0.02207  0.98652  0.16214  1.0000
  C   C259      1.0  0.01681  0.97674  0.17852  1.0000
  H   H402      1.0  0.10291  0.94304  0.26126  1.0000
  H   H403      1.0  0.14160  0.67172  0.00702  1.0000
  H   H404      1.0  0.04615  0.94461  0.16385  1.0000
  H   H405      1.0  0.24135  0.70976  0.29153  1.0000
  H   H406      1.0  0.20505  0.86247  0.28349  1.0000
  C   C260      1.0  0.22951  0.83015  0.37478  1.0000
  H   H407      1.0  0.00195  0.91292  0.13943  1.0000
  N   N26       1.0  0.13041  0.68603  0.33310  1.0000
  H   H408      1.0  0.18628  0.74652  0.46202  1.0000
  H   H409      1.0  0.17077  0.87922  0.33760  1.0000
  H   H410      1.0  0.23994  0.87257  0.37783  1.0000
  H   H411      1.0  0.14855  0.96761  0.29312  1.0000
  H   H412      1.0  0.16266  0.69516  0.01475  1.0000
  C   C261      1.0  0.15913  0.67143  0.05999  1.0000
  H   H413      1.0  0.05512  0.96227  0.20808  1.0000
  H   H414      1.0  0.10744  0.70171  0.32710  1.0000
  H   H415      1.0  0.13444  0.71113  0.35295  1.0000
  C   C262      1.0  0.14043  0.67274  0.31585  1.0000
  C   C263      1.0  0.03589  0.95440  0.15845  1.0000
  C   C264      1.0  0.14153  0.70098  0.33946  1.0000
  C   C265      1.0  0.24108  0.85894  0.37248  1.0000
  H   H416      1.0  0.01859  0.95716  0.23079  1.0000
  C   C266      1.0  0.12434  0.67860  0.36270  1.0000
  H   H417      1.0  0.16393  0.70561  0.05165  1.0000
  H   H418      1.0  0.12603  0.70040  0.07024  1.0000
  C   C267      1.0  0.11532  0.69176  0.31457  1.0000
  C   C268      1.0  0.24988  0.70664  0.31156  1.0000
  H   H419      1.0  0.01098  0.94468  0.19882  1.0000
  H   H420      1.0  0.11221  0.88103  0.99547  1.0000
  H   H421      1.0  0.14527  0.67780  0.29334  1.0000
  H   H422      1.0  0.14247  0.79334  0.48035  1.0000
  H   H423      1.0  0.24195  0.69973  0.32920  1.0000
  H   H424      1.0  0.15186  0.66803  0.32931  1.0000
  C   C269      1.0  0.00029  0.91135  0.16418  1.0000
  H   H425      1.0  0.11595  0.66724  0.35902  1.0000
  H   H426      1.0  0.16697  0.66659  0.04001  1.0000
  C   C270      1.0  0.10108  0.69991  0.85103  1.0000
  Fe  Fe56      1.0  0.15470  0.68359  0.94027  1.0000
  S   S110      1.0  0.14696  0.71076  0.95667  1.0000
  H   H427      1.0  0.14570  0.97394  0.61646  1.0000
  Fe  Fe57      1.0  0.15896  0.81202  0.91126  1.0000
  S   S111      1.0  0.17381  0.81809  0.95427  1.0000
  S   S112      1.0  0.15731  0.78451  0.89165  1.0000
  Fe  Fe58      1.0  0.15523  0.85088  0.89394  1.0000
  S   S113      1.0  0.17089  0.85886  0.93541  1.0000
  S   S114      1.0  0.14616  0.87430  0.86542  1.0000
  Fe  Fe59      1.0  0.18873  0.83641  0.92340  1.0000
  S   S115      1.0  0.21847  0.83432  0.92427  1.0000
  Fe  Fe60      1.0  0.15447  0.84010  0.96209  1.0000
  H   H428      1.0  0.15722  0.77062  0.51098  1.0000
  S   S116      1.0  0.17429  0.82990  0.88035  1.0000
  S   S117      1.0  0.13844  0.83256  0.92068  1.0000
  Fe  Fe61      1.0  0.05990  0.92070  0.68258  1.0000
  S   S118      1.0  0.07892  0.93556  0.65376  1.0000
  S   S119      1.0  0.03126  0.92858  0.67891  1.0000
  Fe  Fe62      1.0  0.08889  0.90308  0.71919  1.0000
  S   S120      1.0  0.11004  0.91692  0.69344  1.0000
  S   S121      1.0  0.09068  0.88210  0.75666  1.0000
  Fe  Fe63      1.0  0.09290  0.94085  0.69816  1.0000
  S   S122      1.0  0.10423  0.96806  0.70278  1.0000
  Fe  Fe64      1.0  0.09506  0.91093  0.65000  1.0000
  S   S123      1.0  0.10953  0.90732  0.60307  1.0000
  S   S124      1.0  0.07305  0.92740  0.72730  1.0000
  S   S125      1.0  0.07468  0.89559  0.67549  1.0000
  C   C271      1.0  0.09839  0.98502  0.72912  1.0000
  C   C272      1.0  0.08438  0.99580  0.77618  1.0000
  C   C273      1.0  0.12987  0.69908  0.87217  1.0000
  C   C274      1.0  0.23089  0.78420  0.89656  1.0000
  H   H429      1.0  0.08288  0.96945  0.75951  1.0000
  C   C275      1.0  0.13116  0.87577  0.83439  1.0000
  C   C276      1.0  0.11990  0.86238  0.82740  1.0000
  C   C277      1.0  0.10768  0.86450  0.80342  1.0000
  C   C278      1.0  0.10673  0.87989  0.78588  1.0000
  C   C279      1.0  0.11809  0.89323  0.79272  1.0000
  C   C280      1.0  0.13012  0.89121  0.81700  1.0000
  H   H430      1.0  0.12050  0.85045  0.84061  1.0000
  H   H431      1.0  0.09896  0.85410  0.79834  1.0000
  H   H432      1.0  0.11747  0.90518  0.77958  1.0000
  H   H433      1.0  0.13873  0.90168  0.82227  1.0000
  C   C281      1.0  0.13184  0.86497  0.53642  1.0000
  C   C282      1.0  0.12460  0.86033  0.56532  1.0000
  C   C283      1.0  0.11765  0.87295  0.58585  1.0000
  C   C284      1.0  0.11784  0.89055  0.57794  1.0000
  C   C285      1.0  0.12514  0.89520  0.54910  1.0000
  C   C286      1.0  0.13203  0.88258  0.52851  1.0000
  H   H434      1.0  0.12430  0.84684  0.57194  1.0000
  H   H435      1.0  0.11215  0.86903  0.60782  1.0000
  H   H436      1.0  0.12538  0.90871  0.54246  1.0000
  C   C287      1.0  0.03714  0.87737  0.78565  1.0000
  C   C288      1.0  0.23319  0.83595  0.89248  1.0000
  C   C289      1.0  0.24071  0.84480  0.83986  1.0000
  C   C290      1.0  0.22835  0.84311  0.86389  1.0000
  H   H437      1.0  0.03967  0.91022  0.80401  1.0000
  H   H438      1.0  0.21518  0.84770  0.86049  1.0000
  C   C291      1.0  0.15125  0.73114  0.93894  1.0000
  C   C292      1.0  0.15753  0.73252  0.90859  1.0000
  C   C293      1.0  0.15928  0.74894  0.89459  1.0000
  C   C294      1.0  0.15538  0.76422  0.91100  1.0000
  C   C295      1.0  0.14964  0.76286  0.94167  1.0000
  C   C296      1.0  0.14737  0.74641  0.95537  1.0000
  H   H439      1.0  0.16088  0.72099  0.89573  1.0000
  H   H440      1.0  0.16367  0.74982  0.87082  1.0000
  C   C297      1.0  0.14963  0.96013  0.61324  1.0000
  H   H441      1.0  0.13794  0.92152  0.64438  1.0000
  H   H442      1.0  0.21118  0.79362  0.84816  1.0000
  C   C298      1.0  0.20528  0.79558  0.87143  1.0000
  C   C299      1.0  0.01102  0.91813  0.68269  1.0000
  C   C300      1.0  0.00951  0.90011  0.68242  1.0000
  H   H443      1.0  0.19314  0.76388  0.88177  1.0000
  H   H444      1.0  0.02086  0.89205  0.67861  1.0000
  S   S126      1.0  0.17347  0.66762  0.96815  1.0000
  H   H445      1.0  0.13164  0.68544  0.86446  1.0000
  H   H446      1.0  0.15701  0.95215  0.67273  1.0000
  C   C301      1.0  0.10894  0.89111  0.97780  1.0000
  H   H447      1.0  0.11443  0.73035  0.86922  1.0000
  H   H448      1.0  0.18957  0.78524  0.92383  1.0000
  H   H449      1.0  0.16114  0.81778  0.52369  1.0000
  H   H450      1.0  0.00913  0.88728  0.75200  1.0000
  H   H451      1.0  0.20698  0.79931  0.93319  1.0000
  H   H452      1.0  0.11666  0.91413  0.93274  1.0000
  H   H453      1.0  0.23687  0.85070  0.81812  1.0000
  H   H454      1.0  0.04287  0.91955  0.76634  1.0000
  H   H455      1.0  0.17180  0.80137  0.54655  1.0000
  H   H456      1.0  0.21328  0.76216  0.86097  1.0000
  H   H457      1.0  0.14119  0.87755  0.96919  1.0000
  C   C302      1.0  0.20743  0.76519  0.88394  1.0000
  H   H458      1.0  0.05633  0.88549  0.73637  1.0000
  H   H459      1.0  0.11802  0.94704  0.60339  1.0000
  H   H460      1.0  0.13810  0.76821  0.53424  1.0000
  H   H461      1.0  0.11352  0.94212  0.64291  1.0000
  H   H462      1.0  0.10701  0.67809  0.89879  1.0000
  C   C303      1.0  0.11318  0.87042  0.93670  1.0000
  N   N27       1.0  0.21189  0.78276  0.89417  1.0000
  C   C304      1.0  0.14308  0.95352  0.66672  1.0000
  C   C305      1.0  0.20392  0.78613  0.92478  1.0000
  C   C306      1.0  0.01659  0.89776  0.76311  1.0000
  C   C307      1.0  0.04245  0.88943  0.73504  1.0000
  H   H463      1.0  0.03553  0.87882  0.72332  1.0000
  N   N28       1.0  0.13981  0.94871  0.63419  1.0000
  H   H464      1.0  0.14277  0.92639  0.60490  1.0000
  H   H465      1.0  0.13795  0.70076  0.89311  1.0000
  C   C308      1.0  0.14528  0.93051  0.62915  1.0000
  H   H466      1.0  0.13747  0.88650  0.50649  1.0000
  H   H467      1.0  0.14649  0.77447  0.95457  1.0000
  H   H468      1.0  0.15928  0.92842  0.63393  1.0000
  H   H469      1.0  0.10540  0.70795  0.83108  1.0000
  H   H470      1.0  0.14247  0.74556  0.97882  1.0000
  H   H471      1.0  0.13891  0.96713  0.67141  1.0000
  H   H472      1.0  0.19098  0.79477  0.86883  1.0000
  N   N29       1.0  0.14677  0.79439  0.52939  1.0000
  S   S127      1.0  0.16527  0.67419  0.89472  1.0000
  H   H473      1.0  0.17065  0.79914  0.50533  1.0000
  C   C309      1.0  0.11305  0.90097  0.92499  1.0000
  H   H474      1.0  0.13566  0.94528  0.68314  1.0000
  H   H475      1.0  0.10222  0.68606  0.84392  1.0000
  H   H476      1.0  0.09464  0.89118  0.97495  1.0000
  H   H477      1.0  0.23639  0.77456  0.91320  1.0000
  H   H478      1.0  0.04163  0.90108  0.71987  1.0000
  H   H479      1.0  0.13484  0.81487  0.55574  1.0000
  H   H480      1.0  0.20815  0.80902  0.87866  1.0000
  H   H481      1.0  0.12495  0.79415  0.56046  1.0000
  C   C310      1.0  0.04450  0.90745  0.78022  1.0000
  H   H482      1.0  0.08712  0.70285  0.85520  1.0000
  H   H483      1.0  0.09902  0.86962  0.93265  1.0000
  C   C311      1.0  0.10548  0.69208  0.90461  1.0000
  H   H484      1.0  0.14407  0.88621  0.93087  1.0000
  H   H485      1.0  0.03179  0.87954  0.80930  1.0000
  H   H486      1.0  0.05107  0.87355  0.78810  1.0000
  H   H487      1.0  0.09609  0.72520  0.89318  1.0000
  H   H488      1.0  0.01475  0.90959  0.74850  1.0000
  H   H489      1.0  0.05866  0.90449  0.78178  1.0000
  H   H490      1.0  0.09159  0.69458  0.91006  1.0000
  N   N30       1.0  0.11152  0.70319  0.87891  1.0000
  S   S128      1.0  0.14054  0.84823  0.51161  1.0000
  H   H491      1.0  0.11969  0.89855  0.90235  1.0000
  C   C312      1.0  0.10978  0.72157  0.88791  1.0000
  C   C313      1.0  0.08793  0.98220  0.75517  1.0000
  N   N31       1.0  0.03514  0.89300  0.76604  1.0000
  H   H492      1.0  0.14734  0.95682  0.58854  1.0000
  H   H493      1.0  0.13514  0.70757  0.85364  1.0000
  H   H494      1.0  0.11633  0.96414  0.63180  1.0000
  H   H495      1.0  0.23736  0.78214  0.87376  1.0000
  H   H496      1.0  0.15854  0.77244  0.55235  1.0000
  N   N32       1.0  0.11799  0.88765  0.94816  1.0000
  C   C314      1.0  0.12114  0.95068  0.62763  1.0000
  H   H497      1.0  0.23452  0.79727  0.90479  1.0000
  C   C315      1.0  0.13688  0.88803  0.95306  1.0000
  H   H498      1.0  0.01056  0.90047  0.78605  1.0000
  H   H499      1.0  0.16379  0.95898  0.61754  1.0000
  H   H500      1.0  0.20857  0.77669  0.94253  1.0000
  C   C316      1.0  0.15030  0.77558  0.53197  1.0000
  H   H501      1.0  0.09888  0.90109  0.92062  1.0000
  H   H502      1.0  0.14537  0.79833  0.57860  1.0000
  H   H503      1.0  0.11300  0.69440  0.92612  1.0000
  H   H504      1.0  0.21201  0.75515  0.90072  1.0000
  H   H505      1.0  0.24807  0.66694  0.91782  1.0000
  H   H506      1.0  0.07661  0.99328  0.79655  1.0000
  C   C317      1.0  0.13757  0.80066  0.55735  1.0000
  H   H507      1.0  0.14096  0.90053  0.96309  1.0000
  H   H508      1.0  0.11757  0.72433  0.90895  1.0000
  H   H509      1.0  0.03032  0.86618  0.77548  1.0000
  H   H510      1.0  0.11987  0.86738  0.91442  1.0000
  H   H511      1.0  0.11678  0.86005  0.95365  1.0000
  C   C318      1.0  0.16331  0.80356  0.52614  1.0000
  H   H512      1.0  0.11261  0.90380  0.98768  1.0000
  H   H513      1.0  0.13299  0.81193  0.49925  1.0000
  C   C319      1.0  0.13590  0.79785  0.50193  1.0000
  H   H514      1.0  0.12332  0.79112  0.50351  1.0000
  H   H515      1.0  0.46800  0.03567  0.38317  1.0000
  H   H516      1.0  0.44741  0.00065  0.05328  1.0000
  Fe  Fe65      1.0  0.33702  0.31287  0.16926  1.0000
  S   S129      1.0  0.34240  0.28539  0.15143  1.0000
  H   H517      1.0  0.36251  0.15181  0.47492  1.0000
  Fe  Fe66      1.0  0.43630  0.07570  0.42850  1.0000
  S   S130      1.0  0.41583  0.06260  0.40008  1.0000
  S   S131      1.0  0.46402  0.07056  0.41105  1.0000
  H   H518      1.0  0.28046  0.29627  0.16312  1.0000
  S   S132      1.0  0.38731  0.07519  0.45057  1.0000
  H   H519      1.0  0.47295  0.00678  0.40745  1.0000
  Fe  Fe67      1.0  0.40617  0.05259  0.44619  1.0000
  S   S133      1.0  0.40074  0.02336  0.44673  1.0000
  Fe  Fe68      1.0  0.39888  0.08633  0.40651  1.0000
  S   S134      1.0  0.37925  0.10154  0.37556  1.0000
  H   H520      1.0  0.31324  0.27566  0.11102  1.0000
  S   S135      1.0  0.42013  0.10022  0.43141  1.0000
  Fe  Fe69      1.0  0.33003  0.18299  0.18630  1.0000
  S   S136      1.0  0.31982  0.16091  0.21552  1.0000
  S   S137      1.0  0.32218  0.21027  0.20259  1.0000
  Fe  Fe70      1.0  0.34524  0.15758  0.13847  1.0000
  S   S138      1.0  0.33566  0.13427  0.16390  1.0000
  S   S139      1.0  0.36037  0.15676  0.09311  1.0000
  Fe  Fe71      1.0  0.31098  0.15002  0.16988  1.0000
  S   S140      1.0  0.28411  0.13853  0.16334  1.0000
  Fe  Fe72      1.0  0.34550  0.14713  0.20737  1.0000
  S   S141      1.0  0.36554  0.13201  0.23762  1.0000
  S   S142      1.0  0.31996  0.17250  0.14153  1.0000
  S   S143      1.0  0.35622  0.17002  0.18100  1.0000
  C   C320      1.0  0.26922  0.15744  0.11476  1.0000
  C   C321      1.0  0.26669  0.14597  0.13950  1.0000
  H   H521      1.0  0.28199  0.16230  0.11000  1.0000
  N   N33       1.0  0.44805  0.01856  0.39898  1.0000
  C   C322      1.0  0.37856  0.10947  0.03619  1.0000
  C   C323      1.0  0.36923  0.10719  0.06396  1.0000
  C   C324      1.0  0.36335  0.12150  0.08138  1.0000
  C   C325      1.0  0.36689  0.13831  0.07136  1.0000
  C   C326      1.0  0.37619  0.14062  0.04361  1.0000
  C   C327      1.0  0.38197  0.12629  0.02604  1.0000
  H   H522      1.0  0.36658  0.09422  0.07200  1.0000
  H   H523      1.0  0.35620  0.11950  0.10259  1.0000
  H   H524      1.0  0.37901  0.15357  0.03563  1.0000
  C   C328      1.0  0.27061  0.21498  0.19819  1.0000
  C   C329      1.0  0.37582  0.10987  0.33694  1.0000
  C   C330      1.0  0.36018  0.11879  0.33013  1.0000
  C   C331      1.0  0.35678  0.12565  0.30018  1.0000
  C   C332      1.0  0.36900  0.12374  0.27629  1.0000
  C   C333      1.0  0.38467  0.11489  0.28314  1.0000
  C   C334      1.0  0.38807  0.10803  0.31310  1.0000
  H   H525      1.0  0.35051  0.12032  0.34814  1.0000
  H   H526      1.0  0.34466  0.13236  0.29557  1.0000
  H   H527      1.0  0.39429  0.11326  0.26509  1.0000
  H   H528      1.0  0.40017  0.10128  0.31767  1.0000
  H   H529      1.0  0.28386  0.21907  0.20489  1.0000
  C   C335      1.0  0.31245  0.10804  0.10103  1.0000
  H   H530      1.0  0.31331  0.10237  0.03965  1.0000
  C   C336      1.0  0.43059  0.01327  0.38933  1.0000
  Fe  Fe73      1.0  0.40889  0.08858  0.47502  1.0000
  C   C337      1.0  0.33676  0.26467  0.16644  1.0000
  C   C338      1.0  0.32678  0.26267  0.19331  1.0000
  C   C339      1.0  0.32245  0.24596  0.20394  1.0000
  C   C340      1.0  0.32814  0.23101  0.18807  1.0000
  C   C341      1.0  0.33801  0.23302  0.16109  1.0000
  C   C342      1.0  0.34222  0.24973  0.15034  1.0000
  H   H531      1.0  0.32254  0.27398  0.20608  1.0000
  H   H532      1.0  0.31488  0.24460  0.22491  1.0000
  H   H533      1.0  0.34249  0.22171  0.14856  1.0000
  H   H534      1.0  0.34996  0.25108  0.12955  1.0000
  C   C343      1.0  0.31325  0.13801  0.08537  1.0000
  C   C344      1.0  0.48589  0.08423  0.45586  1.0000
  C   C345      1.0  0.48444  0.07599  0.42724  1.0000
  H   H535      1.0  0.30988  0.14787  0.06740  1.0000
  H   H536      1.0  0.32748  0.13854  0.08898  1.0000
  S   S144      1.0  0.42694  0.06518  0.47411  1.0000
  H   H537      1.0  0.29524  0.20525  0.15765  1.0000
  H   H538      1.0  0.40116  0.15614  0.46202  1.0000
  H   H539      1.0  0.40672  0.13350  0.46254  1.0000
  C   C346      1.0  0.28894  0.12054  0.07135  1.0000
  H   H540      1.0  0.42492  0.00387  0.40604  1.0000
  H   H541      1.0  0.44648  0.04300  0.37498  1.0000
  H   H542      1.0  0.26953  0.31026  0.11473  1.0000
  C   C347      1.0  0.27931  0.18490  0.19923  1.0000
  H   H543      1.0  0.45989  0.03104  0.43782  1.0000
  C   C348      1.0  0.38716  0.14059  0.41255  1.0000
  H   H544      1.0  0.27596  0.27533  0.08602  1.0000
  N   N34       1.0  0.30788  0.12053  0.07619  1.0000
  C   C349      1.0  0.44703  0.02655  0.42997  1.0000
  C   C350      1.0  0.49970  0.07166  0.41086  1.0000
  H   H545      1.0  0.43829  0.03807  0.42984  1.0000
  H   H546      1.0  0.28102  0.30704  0.07898  1.0000
  H   H547      1.0  0.43079  0.00720  0.36606  1.0000
  C   C351      1.0  0.37475  0.12196  0.45149  1.0000
  N   N35       1.0  0.39975  0.13216  0.15409  1.0000
  C   C352      1.0  0.38209  0.12518  0.15403  1.0000
  C   C353      1.0  0.41170  0.11938  0.16852  1.0000
  C   C354      1.0  0.39980  0.14839  0.17203  1.0000
  C   C355      1.0  0.40528  0.13568  0.12185  1.0000
  H   H548      1.0  0.37756  0.12208  0.17790  1.0000
  H   H549      1.0  0.38143  0.11311  0.14018  1.0000
  H   H550      1.0  0.37273  0.13471  0.14402  1.0000
  H   H551      1.0  0.41188  0.10695  0.15561  1.0000
  H   H552      1.0  0.42519  0.12419  0.16901  1.0000
  H   H553      1.0  0.40777  0.11650  0.19287  1.0000
  H   H554      1.0  0.41304  0.15376  0.17358  1.0000
  H   H555      1.0  0.39491  0.14634  0.19610  1.0000
  H   H556      1.0  0.39136  0.15850  0.16108  1.0000
  H   H557      1.0  0.41868  0.14071  0.12085  1.0000
  H   H558      1.0  0.39665  0.14552  0.11055  1.0000
  H   H559      1.0  0.40490  0.12382  0.10734  1.0000
  H   H560      1.0  0.44176  0.01746  0.44762  1.0000
  H   H561      1.0  0.30597  0.11157  0.12333  1.0000
  H   H562      1.0  0.26458  0.22576  0.18463  1.0000
  H   H563      1.0  0.28446  0.10767  0.06363  1.0000
  H   H564      1.0  0.38938  0.00061  0.03643  1.0000
  C   C356      1.0  0.29279  0.29307  0.15083  1.0000
  N   N36       1.0  0.38126  0.13949  0.44512  1.0000
  H   H565      1.0  0.47432  0.08767  0.46879  1.0000
  H   H566      1.0  0.37644  0.13796  0.39613  1.0000
  H   H567      1.0  0.31367  0.12473  0.02797  1.0000
  H   H568      1.0  0.30189  0.30362  0.15606  1.0000
  H   H569      1.0  0.32664  0.10763  0.10527  1.0000
  C   C357      1.0  0.36722  0.15234  0.45051  1.0000
  H   H570      1.0  0.30685  0.14200  0.10736  1.0000
  H   H571      1.0  0.42144  0.02455  0.38832  1.0000
  C   C358      1.0  0.39590  0.14301  0.46598  1.0000
  H   H572      1.0  0.29843  0.28103  0.16117  1.0000
  H   H573      1.0  0.31629  0.29832  0.10573  1.0000
  H   H574      1.0  0.30845  0.09471  0.09507  1.0000
  C   C359      1.0  0.45491  0.03120  0.37642  1.0000
  H   H575      1.0  0.26555  0.27918  0.12268  1.0000
  H   H576      1.0  0.39234  0.15357  0.40685  1.0000
  H   H577      1.0  0.27159  0.18223  0.22048  1.0000
  H   H578      1.0  0.36401  0.11859  0.43562  1.0000
  H   H579      1.0  0.33121  0.11561  0.04997  1.0000
  C   C360      1.0  0.45967  0.00320  0.40024  1.0000
  H   H580      1.0  0.39757  0.13083  0.40757  1.0000
  N   N37       1.0  0.29018  0.29132  0.11710  1.0000
  C   C361      1.0  0.30700  0.28772  0.10180  1.0000
  C   C362      1.0  0.27834  0.27690  0.11125  1.0000
  C   C363      1.0  0.28255  0.30756  0.10456  1.0000
  H   H581      1.0  0.35596  0.14995  0.43518  1.0000
  C   C364      1.0  0.25524  0.16229  0.09547  1.0000
  H   H582      1.0  0.38512  0.11207  0.44807  1.0000
  H   H583      1.0  0.29070  0.31889  0.10992  1.0000
  H   H584      1.0  0.30559  0.28623  0.07634  1.0000
  H   H585      1.0  0.26300  0.21340  0.21993  1.0000
  N   N38       1.0  0.27130  0.19878  0.18018  1.0000
  C   C365      1.0  0.31688  0.11557  0.04718  1.0000
  H   H586      1.0  0.28488  0.13026  0.05357  1.0000
  C   C366      1.0  0.40392  0.00635  0.47454  1.0000
  H   H587      1.0  0.37011  0.12060  0.47581  1.0000
  S   S145      1.0  0.38576  0.09082  0.01572  1.0000
  H   H588      1.0  0.25740  0.17096  0.07611  1.0000
  S   S146      1.0  0.32061  0.32014  0.21014  1.0000
  H   H589      1.0  0.28273  0.18944  0.13792  1.0000
  H   H590      1.0  0.29254  0.18840  0.20676  1.0000
  C   C367      1.0  0.28179  0.20145  0.15190  1.0000
  H   H591      1.0  0.37165  0.16573  0.44586  1.0000
  H   H592      1.0  0.28379  0.26445  0.12025  1.0000
  H   H593      1.0  0.28180  0.12372  0.09311  1.0000
  H   H594      1.0  0.28048  0.17258  0.18618  1.0000
  H   H595      1.0  0.38915  0.12824  0.00476  1.0000
  H   H596      1.0  0.45590  0.02568  0.35275  1.0000
  C   C368      1.0  0.25359  0.19377  0.17145  1.0000
  H   H597      1.0  0.27610  0.21178  0.13688  1.0000
  H   H598      1.0  0.39495  0.02383  0.99768  1.0000
  C   C369      1.0  0.39784  0.01047  0.99202  1.0000
  H   H599      1.0  0.25370  0.18143  0.15823  1.0000
  H   H600      1.0  0.49879  0.06537  0.38863  1.0000
  S   S147      1.0  0.35744  0.33200  0.18174  1.0000
  S   S148      1.0  0.32417  0.33160  0.13588  1.0000
  C   C370      1.0  0.24996  0.13962  0.14479  1.0000
  H   H601      1.0  0.36759  0.00850  0.85167  1.0000
  H   H602      1.0  0.38913  0.04663  0.88405  1.0000
  Fe  Fe74      1.0  0.33917  0.31231  0.67436  1.0000
  S   S149      1.0  0.34745  0.28526  0.69123  1.0000
  H   H603      1.0  0.28430  0.30140  0.70336  1.0000
  Fe  Fe75      1.0  0.43184  0.08357  0.92782  1.0000
  S   S150      1.0  0.41821  0.06630  0.89428  1.0000
  S   S151      1.0  0.45963  0.08898  0.91133  1.0000
  Fe  Fe76      1.0  0.39957  0.08614  0.96922  1.0000
  S   S152      1.0  0.38425  0.06909  0.93771  1.0000
  H   H604      1.0  0.37017  0.03424  0.92364  1.0000
  Fe  Fe77      1.0  0.40807  0.05207  0.93613  1.0000
  S   S153      1.0  0.40783  0.02233  0.93334  1.0000
  Fe  Fe78      1.0  0.39517  0.08450  0.89762  1.0000
  S   S154      1.0  0.37730  0.08783  0.85442  1.0000
  S   S155      1.0  0.42310  0.06816  0.96939  1.0000
  S   S156      1.0  0.40916  0.10283  0.92940  1.0000
  Fe  Fe79      1.0  0.33009  0.18149  0.66200  1.0000
  S   S157      1.0  0.31630  0.17283  0.70542  1.0000
  S   S158      1.0  0.33103  0.20914  0.64199  1.0000
  Fe  Fe80      1.0  0.33554  0.14363  0.63975  1.0000
  S   S159      1.0  0.32201  0.13305  0.68188  1.0000
  S   S160      1.0  0.34119  0.12253  0.60401  1.0000
  Fe  Fe81      1.0  0.30219  0.15446  0.67395  1.0000
  S   S161      1.0  0.27313  0.14829  0.67467  1.0000
  Fe  Fe82      1.0  0.33741  0.15197  0.70939  1.0000
  S   S162      1.0  0.35418  0.14581  0.75291  1.0000
  S   S163      1.0  0.31499  0.16392  0.63078  1.0000
  S   S164      1.0  0.35197  0.16178  0.66715  1.0000
  C   C371      1.0  0.26018  0.16123  0.61847  1.0000
  H   H605      1.0  0.26340  0.11887  0.62812  1.0000
  H   H606      1.0  0.27301  0.16607  0.61398  1.0000
  H   H607      1.0  0.34464  0.32016  0.78527  1.0000
  C   C372      1.0  0.38771  0.11178  0.53920  1.0000
  C   C373      1.0  0.38827  0.12541  0.56066  1.0000
  C   C374      1.0  0.37411  0.12905  0.58047  1.0000
  C   C375      1.0  0.35925  0.11900  0.57910  1.0000
  C   C376      1.0  0.35868  0.10542  0.55758  1.0000
  C   C377      1.0  0.37279  0.10186  0.53764  1.0000
  H   H608      1.0  0.39975  0.13319  0.56198  1.0000
  H   H609      1.0  0.37471  0.13959  0.59677  1.0000
  H   H610      1.0  0.34729  0.09751  0.55639  1.0000
  H   H611      1.0  0.37219  0.09130  0.52135  1.0000
  C   C378      1.0  0.37104  0.10429  0.82660  1.0000
  C   C379      1.0  0.37761  0.12108  0.82684  1.0000
  C   C380      1.0  0.37219  0.13351  0.80441  1.0000
  C   C381      1.0  0.36006  0.12952  0.78128  1.0000
  C   C382      1.0  0.35358  0.11269  0.78085  1.0000
  C   C383      1.0  0.35901  0.10025  0.80326  1.0000
  H   H612      1.0  0.38685  0.12454  0.84440  1.0000
  H   H613      1.0  0.37743  0.14639  0.80515  1.0000
  H   H614      1.0  0.34428  0.10926  0.76340  1.0000
  H   H615      1.0  0.35375  0.08739  0.80263  1.0000
  H   H616      1.0  0.31256  0.28785  0.66250  1.0000
  H   H617      1.0  0.34126  0.04627  0.87914  1.0000
  H   H618      1.0  0.30606  0.25913  0.68849  1.0000
  H   H619      1.0  0.27933  0.28145  0.72263  1.0000
  C   C384      1.0  0.26954  0.27987  0.66306  1.0000
  C   C385      1.0  0.34243  0.26425  0.67726  1.0000
  C   C386      1.0  0.33688  0.26147  0.64692  1.0000
  C   C387      1.0  0.33334  0.24457  0.63678  1.0000
  C   C388      1.0  0.33528  0.23017  0.65671  1.0000
  C   C389      1.0  0.34065  0.23297  0.68715  1.0000
  C   C390      1.0  0.34431  0.24988  0.69725  1.0000
  H   H620      1.0  0.33574  0.27227  0.63098  1.0000
  H   H621      1.0  0.32936  0.24256  0.61310  1.0000
  H   H622      1.0  0.34227  0.22206  0.70275  1.0000
  H   H623      1.0  0.34869  0.25178  0.72072  1.0000
  C   C391      1.0  0.35956  0.02061  0.85155  1.0000
  H   H624      1.0  0.36003  0.02612  0.82768  1.0000
  C   C392      1.0  0.48072  0.08820  0.92818  1.0000
  C   C393      1.0  0.48335  0.08744  0.96021  1.0000
  C   C394      1.0  0.40444  0.00635  0.96269  1.0000
  N   N39       1.0  0.28701  0.11172  0.60465  1.0000
  S   S165      1.0  0.31950  0.32310  0.70763  1.0000
  H   H625      1.0  0.34458  0.30056  0.76263  1.0000
  H   H626      1.0  0.30717  0.10083  0.57604  1.0000
  C   C395      1.0  0.29165  0.12971  0.59705  1.0000
  H   H627      1.0  0.26518  0.29364  0.66017  1.0000
  H   H628      1.0  0.35551  0.05539  0.85043  1.0000
  H   H629      1.0  0.37209  0.28748  0.74429  1.0000
  H   H630      1.0  0.28672  0.10400  0.55695  1.0000
  H   H631      1.0  0.25016  0.16947  0.57409  1.0000
  H   H632      1.0  0.29133  0.11482  0.65343  1.0000
  H   H633      1.0  0.29490  0.30082  0.64818  1.0000
  H   H634      1.0  0.28462  0.13465  0.57630  1.0000
  H   H635      1.0  0.26397  0.09720  0.61363  1.0000
  C   C396      1.0  0.37816  0.30033  0.74753  1.0000
  N   N40       1.0  0.36592  0.03308  0.87447  1.0000
  C   C397      1.0  0.38399  0.03747  0.86691  1.0000
  H   H636      1.0  0.37674  0.30742  0.72512  1.0000
  C   C398      1.0  0.36521  0.02526  0.90579  1.0000
  C   C399      1.0  0.35502  0.04898  0.87359  1.0000
  C   C400      1.0  0.25667  0.15284  0.64658  1.0000
  H   H637      1.0  0.29992  0.28038  0.63059  1.0000
  H   H638      1.0  0.30990  0.10730  0.63186  1.0000
  H   H639      1.0  0.35954  0.05872  0.89049  1.0000
  H   H640      1.0  0.49349  0.08962  0.88378  1.0000
  H   H641      1.0  0.38544  0.29739  0.80821  1.0000
  H   H642      1.0  0.29281  0.25340  0.65639  1.0000
  C   C401      1.0  0.37160  0.29989  0.80230  1.0000
  C   C402      1.0  0.37840  0.32686  0.77688  1.0000
  C   C403      1.0  0.29286  0.10023  0.57932  1.0000
  H   H643      1.0  0.39222  0.29804  0.75162  1.0000
  C   C404      1.0  0.29556  0.10639  0.63381  1.0000
  S   S166      1.0  0.32523  0.32300  0.63216  1.0000
  H   H644      1.0  0.28394  0.25338  0.69497  1.0000
  C   C405      1.0  0.41052  0.00926  0.50415  1.0000
  H   H645      1.0  0.30149  0.28692  0.71512  1.0000
  H   H646      1.0  0.28846  0.13848  0.61656  1.0000
  N   N41       1.0  0.36991  0.31000  0.77329  1.0000
  H   H647      1.0  0.30576  0.13088  0.59243  1.0000
  H   H648      1.0  0.39271  0.02585  0.86742  1.0000
  S   S167      1.0  0.27686  0.33150  0.66529  1.0000
  S   S168      1.0  0.40594  0.10778  0.51490  1.0000
  C   C406      1.0  0.35140  0.31295  0.76636  1.0000
  H   H649      1.0  0.26855  0.27360  0.64003  1.0000
  H   H650      1.0  0.28962  0.08651  0.58423  1.0000
  H   H651      1.0  0.34981  0.32083  0.74496  1.0000
  C   C407      1.0  0.26803  0.11066  0.60854  1.0000
  H   H652      1.0  0.47230  0.08699  0.97564  1.0000
  H   H653      1.0  0.34595  0.01699  0.85654  1.0000
  N   N42       1.0  0.38630  0.11905  0.68866  1.0000
  C   C408      1.0  0.39109  0.11116  0.71877  1.0000
  C   C409      1.0  0.36761  0.11677  0.68322  1.0000
  C   C410      1.0  0.39629  0.11061  0.66349  1.0000
  C   C411      1.0  0.39018  0.13771  0.68918  1.0000
  H   H654      1.0  0.40517  0.11237  0.72349  1.0000
  H   H655      1.0  0.38792  0.09718  0.71972  1.0000
  H   H656      1.0  0.38405  0.11759  0.73823  1.0000
  H   H657      1.0  0.36350  0.12271  0.66082  1.0000
  H   H658      1.0  0.36420  0.10286  0.68251  1.0000
  H   H659      1.0  0.35969  0.12287  0.70191  1.0000
  H   H660      1.0  0.39277  0.11616  0.64042  1.0000
  H   H661      1.0  0.39377  0.09648  0.66260  1.0000
  H   H662      1.0  0.41047  0.11223  0.66657  1.0000
  H   H663      1.0  0.38700  0.14407  0.66668  1.0000
  H   H664      1.0  0.40410  0.13994  0.69394  1.0000
  H   H665      1.0  0.38256  0.14454  0.70756  1.0000
  N   N43       1.0  0.28740  0.27873  0.67513  1.0000
  C   C412      1.0  0.29273  0.26036  0.67891  1.0000
  H   H666      1.0  0.26104  0.11523  0.58745  1.0000
  C   C413      1.0  0.28816  0.28748  0.70543  1.0000
  H   H667      1.0  0.38510  0.04382  0.84380  1.0000
  C   C414      1.0  0.29922  0.28729  0.65311  1.0000
  C   C415      1.0  0.49533  0.08894  0.90858  1.0000
  H   H668      1.0  0.41380  0.02226  0.51089  1.0000
  H   H669      1.0  0.29247  0.09284  0.64025  1.0000
  H   H670      1.0  0.37344  0.01330  0.90733  1.0000
  H   H671      1.0  0.36551  0.30687  0.82216  1.0000
  H   H672      1.0  0.26020  0.27355  0.67903  1.0000
  H   H673      1.0  0.36523  0.28712  0.80037  1.0000
  H   H674      1.0  0.35179  0.02183  0.91251  1.0000
  H   H675      1.0  0.39241  0.32526  0.78225  1.0000
  H   H676      1.0  0.39197  0.14201  0.49078  1.0000
  H   H677      1.0  0.39838  0.39152  0.24171  1.0000
  C   C416      1.0  0.39415  0.35778  0.23010  1.0000
  Fe  Fe83      1.0  0.34003  0.34101  0.22067  1.0000
  S   S169      1.0  0.35495  0.34469  0.26663  1.0000
  Fe  Fe84      1.0  0.34301  0.35145  0.15233  1.0000
  S   S170      1.0  0.36045  0.37126  0.12876  1.0000
  S   S171      1.0  0.32576  0.36082  0.19147  1.0000
  H   H678      1.0  0.42294  0.50055  0.46345  1.0000
  S   S172      1.0  0.33217  0.63573  0.32341  1.0000
  S   S173      1.0  0.36263  0.65670  0.39112  1.0000
  Fe  Fe85      1.0  0.30740  0.65209  0.32376  1.0000
  S   S174      1.0  0.27910  0.64364  0.32751  1.0000
  Fe  Fe86      1.0  0.34015  0.65141  0.28136  1.0000
  S   S175      1.0  0.35975  0.64096  0.24480  1.0000
  H   H679      1.0  0.36852  0.33726  0.45025  1.0000
  Fe  Fe87      1.0  0.43817  0.41345  0.42166  1.0000
  S   S176      1.0  0.41839  0.43107  0.39892  1.0000
  S   S177      1.0  0.46540  0.41551  0.40044  1.0000
  Fe  Fe88      1.0  0.41048  0.39984  0.46639  1.0000
  S   S178      1.0  0.38953  0.41739  0.44721  1.0000
  H   H680      1.0  0.39523  0.62674  0.47374  1.0000
  Fe  Fe89      1.0  0.39976  0.40893  0.40039  1.0000
  S   S179      1.0  0.37979  0.40320  0.36191  1.0000
  Fe  Fe90      1.0  0.40993  0.43806  0.44740  1.0000
  S   S180      1.0  0.40758  0.46760  0.45353  1.0000
  S   S181      1.0  0.42014  0.39082  0.41954  1.0000
  S   S182      1.0  0.43031  0.42103  0.47004  1.0000
  Fe  Fe91      1.0  0.39138  0.58493  0.08779  1.0000
  S   S183      1.0  0.40988  0.60270  0.06406  1.0000
  S   S184      1.0  0.36982  0.59518  0.12094  1.0000
  Fe  Fe92      1.0  0.40407  0.55400  0.04645  1.0000
  S   S185      1.0  0.42306  0.57043  0.02000  1.0000
  S   S186      1.0  0.40296  0.52429  0.04255  1.0000
  Fe  Fe93      1.0  0.42992  0.58128  0.06640  1.0000
  S   S187      1.0  0.45684  0.58946  0.08205  1.0000
  Fe  Fe94      1.0  0.40165  0.59073  0.01936  1.0000
  C   C417      1.0  0.37259  0.37761  0.20943  1.0000
  S   S188      1.0  0.41199  0.56404  0.09354  1.0000
  S   S189      1.0  0.38210  0.57361  0.04250  1.0000
  H   H681      1.0  0.27990  0.65856  0.39022  1.0000
  H   H682      1.0  0.34643  0.54468  0.47077  1.0000
  C   C418      1.0  0.40279  0.49124  0.01873  1.0000
  C   C419      1.0  0.40096  0.50904  0.01190  1.0000
  H   H683      1.0  0.39001  0.59809  0.34486  1.0000
  C   C420      1.0  0.36550  0.35052  0.45884  1.0000
  H   H684      1.0  0.38857  0.35043  0.41118  1.0000
  H   H685      1.0  0.40557  0.48724  0.04227  1.0000
  H   H686      1.0  0.36861  0.38208  0.23287  1.0000
  H   H687      1.0  0.36599  0.60719  0.02115  1.0000
  C   C421      1.0  0.36213  0.62820  0.21024  1.0000
  C   C422      1.0  0.34818  0.62023  0.19580  1.0000
  C   C423      1.0  0.35084  0.61023  0.16872  1.0000
  C   C424      1.0  0.36746  0.60789  0.15555  1.0000
  C   C425      1.0  0.38142  0.61587  0.16997  1.0000
  C   C426      1.0  0.37875  0.62593  0.19698  1.0000
  H   H688      1.0  0.33531  0.62173  0.20550  1.0000
  H   H689      1.0  0.33990  0.60414  0.15800  1.0000
  H   H690      1.0  0.39428  0.61431  0.16030  1.0000
  H   H691      1.0  0.38969  0.63205  0.20763  1.0000
  C   C427      1.0  0.36819  0.63826  0.41400  1.0000
  C   C428      1.0  0.36095  0.62210  0.40869  1.0000
  C   C429      1.0  0.36629  0.60761  0.42642  1.0000
  H   H692      1.0  0.37898  0.50861  0.46694  1.0000
  C   C430      1.0  0.38567  0.62537  0.45573  1.0000
  C   C431      1.0  0.38054  0.63982  0.43764  1.0000
  H   H693      1.0  0.35128  0.62074  0.39088  1.0000
  H   H694      1.0  0.38862  0.61759  0.26575  1.0000
  H   H695      1.0  0.34061  0.63785  0.01018  1.0000
  H   H696      1.0  0.38623  0.65226  0.44198  1.0000
  C   C432      1.0  0.26287  0.64796  0.35623  1.0000
  H   H697      1.0  0.41490  0.62723  0.29289  1.0000
  H   H698      1.0  0.41576  0.38377  0.21740  1.0000
  C   C433      1.0  0.36407  0.37469  0.08855  1.0000
  C   C434      1.0  0.35328  0.36781  0.06601  1.0000
  C   C435      1.0  0.35615  0.37158  0.03443  1.0000
  C   C436      1.0  0.36995  0.38203  0.02496  1.0000
  C   C437      1.0  0.38095  0.38868  0.04746  1.0000
  C   C438      1.0  0.37789  0.38516  0.07909  1.0000
  H   H699      1.0  0.34258  0.35978  0.07291  1.0000
  H   H700      1.0  0.34759  0.36635  0.01721  1.0000
  H   H701      1.0  0.39170  0.39661  0.04054  1.0000
  H   H702      1.0  0.38632  0.39054  0.09634  1.0000
  C   C439      1.0  0.36165  0.36129  0.29267  1.0000
  C   C440      1.0  0.35431  0.37798  0.29269  1.0000
  C   C441      1.0  0.36011  0.39054  0.31384  1.0000
  C   C442      1.0  0.37352  0.38681  0.33505  1.0000
  C   C443      1.0  0.38105  0.37019  0.33468  1.0000
  C   C444      1.0  0.37500  0.35752  0.31397  1.0000
  H   H703      1.0  0.34396  0.38116  0.27675  1.0000
  H   H704      1.0  0.35411  0.40329  0.31382  1.0000
  H   H705      1.0  0.39154  0.36704  0.35029  1.0000
  H   H706      1.0  0.36447  0.39111  0.42823  1.0000
  C   C445      1.0  0.26228  0.34092  0.14702  1.0000
  C   C446      1.0  0.26506  0.35246  0.12250  1.0000
  H   H707      1.0  0.27738  0.35881  0.12034  1.0000
  H   H708      1.0  0.37001  0.61123  0.28737  1.0000
  C   C447      1.0  0.48619  0.41066  0.41603  1.0000
  C   C448      1.0  0.48844  0.40127  0.44354  1.0000
  H   H709      1.0  0.39963  0.39847  0.20200  1.0000
  H   H710      1.0  0.47721  0.39701  0.45638  1.0000
  C   C449      1.0  0.47968  0.57360  0.04035  1.0000
  C   C450      1.0  0.47761  0.58384  0.06678  1.0000
  H   H711      1.0  0.49101  0.59857  0.10120  1.0000
  H   H712      1.0  0.46845  0.56816  0.02944  1.0000
  C   C451      1.0  0.36673  0.42957  0.02367  1.0000
  C   C452      1.0  0.39585  0.36704  0.17674  1.0000
  N   N44       1.0  0.35718  0.62918  0.04728  1.0000
  C   C453      1.0  0.35374  0.64012  0.01970  1.0000
  C   C454      1.0  0.35598  0.61078  0.03866  1.0000
  C   C455      1.0  0.34435  0.63314  0.07186  1.0000
  C   C456      1.0  0.37475  0.63258  0.05890  1.0000
  H   H713      1.0  0.35463  0.65412  0.02520  1.0000
  S   S190      1.0  0.38524  0.59021  0.47073  1.0000
  H   H714      1.0  0.36176  0.56149  0.46341  1.0000
  H   H715      1.0  0.34487  0.64692  0.07902  1.0000
  H   H716      1.0  0.34312  0.60781  0.02871  1.0000
  H   H717      1.0  0.33389  0.43688  0.04040  1.0000
  H   H718      1.0  0.34681  0.62505  0.09297  1.0000
  C   C457      1.0  0.36340  0.38096  0.44655  1.0000
  H   H719      1.0  0.39992  0.53189  0.45696  1.0000
  H   H720      1.0  0.37383  0.43930  0.03736  1.0000
  H   H721      1.0  0.37611  0.64631  0.06592  1.0000
  H   H722      1.0  0.44534  0.64179  0.03155  1.0000
  C   C458      1.0  0.35530  0.35995  0.40840  1.0000
  C   C459      1.0  0.40171  0.38720  0.21779  1.0000
  C   C460      1.0  0.26668  0.65540  0.38483  1.0000
  H   H723      1.0  0.35626  0.53036  0.42183  1.0000
  C   C461      1.0  0.39023  0.54111  0.46699  1.0000
  H   H724      1.0  0.36963  0.38818  0.19254  1.0000
  Fe  Fe95      1.0  0.34334  0.65733  0.35136  1.0000
  C   C462      1.0  0.25165  0.35623  0.10122  1.0000
  H   H725      1.0  0.36721  0.46123  0.99665  1.0000
  C   C463      1.0  0.25337  0.65849  0.40681  1.0000
  H   H726      1.0  0.47460  0.61506  0.03430  1.0000
  H   H727      1.0  0.39104  0.36148  0.25436  1.0000
  H   H728      1.0  0.37872  0.52460  0.41676  1.0000
  H   H729      1.0  0.38863  0.64586  0.33534  1.0000
  C   C464      1.0  0.36009  0.54850  0.47423  1.0000
  H   H730      1.0  0.39355  0.37770  0.15972  1.0000
  H   H731      1.0  0.48200  0.61715  0.99511  1.0000
  C   C465      1.0  0.40673  0.48180  0.48588  1.0000
  C   C466      1.0  0.45055  0.60330  0.99484  1.0000
  H   H732      1.0  0.39478  0.36510  0.44098  1.0000
  C   C467      1.0  0.36955  0.51854  0.47567  1.0000
  H   H733      1.0  0.25654  0.66405  0.42896  1.0000
  C   C468      1.0  0.38422  0.63848  0.31483  1.0000
  C   C469      1.0  0.38512  0.61170  0.34365  1.0000
  H   H734      1.0  0.35791  0.60216  0.05914  1.0000
  H   H735      1.0  0.38969  0.61845  0.36477  1.0000
  H   H736      1.0  0.38587  0.34657  0.22442  1.0000
  C   C470      1.0  0.40100  0.47859  0.99552  1.0000
  H   H737      1.0  0.37252  0.38425  0.46545  1.0000
  H   H738      1.0  0.36120  0.41998  0.04016  1.0000
  H   H739      1.0  0.40243  0.46501  0.00132  1.0000
  H   H740      1.0  0.32974  0.45281  0.01071  1.0000
  N   N45       1.0  0.45460  0.62149  0.00155  1.0000
  C   C471      1.0  0.49244  0.59062  0.08077  1.0000
  C   C472      1.0  0.38444  0.61126  0.28773  1.0000
  C   C473      1.0  0.49634  0.57045  0.02790  1.0000
  H   H741      1.0  0.40969  0.36299  0.17506  1.0000
  H   H742      1.0  0.40786  0.35319  0.22949  1.0000
  H   H743      1.0  0.37073  0.61142  0.34498  1.0000
  H   H744      1.0  0.47633  0.63613  0.01718  1.0000
  H   H745      1.0  0.36071  0.59514  0.42192  1.0000
  C   C474      1.0  0.37864  0.60914  0.45008  1.0000
  H   H746      1.0  0.36985  0.63876  0.31525  1.0000
  H   H747      1.0  0.33095  0.63053  0.06408  1.0000
  C   C475      1.0  0.44274  0.62806  0.02590  1.0000
  N   N46       1.0  0.37236  0.53561  0.46101  1.0000
  H   H748      1.0  0.38734  0.37336  0.40439  1.0000
  N   N47       1.0  0.36735  0.36359  0.43397  1.0000
  H   H749      1.0  0.37638  0.42242  0.00920  1.0000
  N   N48       1.0  0.39108  0.37240  0.20850  1.0000
  H   H750      1.0  0.38794  0.35595  0.16901  1.0000
  C   C476      1.0  0.38529  0.36307  0.42207  1.0000
  N   N49       1.0  0.39098  0.62050  0.31509  1.0000
  C   C477      1.0  0.41010  0.62061  0.31417  1.0000
  S   S191      1.0  0.27831  0.33626  0.17564  1.0000
  H   H751      1.0  0.38911  0.59758  0.28716  1.0000
  H   H752      1.0  0.35646  0.36973  0.38944  1.0000
  H   H753      1.0  0.41566  0.60723  0.31429  1.0000
  H   H754      1.0  0.34161  0.36022  0.41647  1.0000
  H   H755      1.0  0.41543  0.62750  0.33451  1.0000
  H   H756      1.0  0.42897  0.62723  0.01857  1.0000
  H   H757      1.0  0.36415  0.36664  0.20349  1.0000
  H   H758      1.0  0.37450  0.35308  0.47838  1.0000
  H   H759      1.0  0.33945  0.41378  0.00061  1.0000
  H   H760      1.0  0.38824  0.64556  0.29350  1.0000
  C   C478      1.0  0.34014  0.44635  0.02455  1.0000
  H   H761      1.0  0.25383  0.36553  0.08284  1.0000
  H   H762      1.0  0.34619  0.45642  0.03914  1.0000
  H   H763      1.0  0.37781  0.62439  0.07956  1.0000
  H   H764      1.0  0.38088  0.34471  0.31420  1.0000
  H   H765      1.0  0.36324  0.63726  0.00079  1.0000
  H   H766      1.0  0.35008  0.38180  0.45631  1.0000
  H   H767      1.0  0.45177  0.59513  0.01600  1.0000
  H   H768      1.0  0.35633  0.51373  0.47108  1.0000
  Fe  Fe96      1.0  0.30788  0.33927  0.17703  1.0000
  H   H769      1.0  0.38475  0.62975  0.04088  1.0000
  H   H770      1.0  0.37194  0.54698  0.41553  1.0000
  H   H771      1.0  0.39276  0.55412  0.45692  1.0000
  C   C479      1.0  0.36967  0.53434  0.42725  1.0000
  C   C480      1.0  0.41487  0.49791  0.48341  1.0000
  H   H772      1.0  0.44418  0.62041  0.04773  1.0000
  H   H773      1.0  0.35803  0.34704  0.39800  1.0000
  H   H774      1.0  0.35214  0.35059  0.46856  1.0000
  C   C481      1.0  0.47268  0.62254  0.01242  1.0000
  H   H775      1.0  0.49776  0.56266  0.00728  1.0000
  N   N50       1.0  0.35311  0.43775  0.00435  1.0000
  S   S192      1.0  0.31453  0.66610  0.27950  1.0000
  H   H776      1.0  0.49935  0.42318  0.37818  1.0000
  H   H777      1.0  0.28570  0.59101  0.86327  1.0000
  H   H778      1.0  0.37116  0.44470  0.96854  1.0000
  Fe  Fe97      1.0  0.33628  0.34657  0.71066  1.0000
  S   S193      1.0  0.34144  0.35849  0.75862  1.0000
  Fe  Fe98      1.0  0.34087  0.34717  0.64004  1.0000
  S   S194      1.0  0.34840  0.36836  0.60560  1.0000
  S   S195      1.0  0.32105  0.35934  0.67229  1.0000
  Fe  Fe99      1.0  0.33252  0.64206  0.84563  1.0000
  S   S196      1.0  0.31504  0.63008  0.81024  1.0000
  S   S197      1.0  0.33686  0.62305  0.88600  1.0000
  Fe  Fe100     1.0  0.29915  0.65460  0.81421  1.0000
  H   H779      1.0  0.43008  0.46635  0.90692  1.0000
  Fe  Fe101     1.0  0.33122  0.64296  0.77360  1.0000
  S   S198      1.0  0.33610  0.63168  0.72469  1.0000
  S   S199      1.0  0.40961  0.42362  0.97398  1.0000
  Fe  Fe102     1.0  0.42952  0.41273  0.94036  1.0000
  S   S200      1.0  0.42014  0.42880  0.90015  1.0000
  S   S201      1.0  0.45705  0.41546  0.95930  1.0000
  Fe  Fe103     1.0  0.39229  0.40247  0.95779  1.0000
  S   S202      1.0  0.38083  0.41866  0.91898  1.0000
  H   H780      1.0  0.30448  0.60431  0.86725  1.0000
  Fe  Fe104     1.0  0.40191  0.40692  0.88933  1.0000
  S   S203      1.0  0.39920  0.39737  0.83879  1.0000
  Fe  Fe105     1.0  0.39988  0.43894  0.93335  1.0000
  S   S204      1.0  0.39437  0.46818  0.93486  1.0000
  S   S205      1.0  0.41290  0.38998  0.92767  1.0000
  H   H781      1.0  0.28141  0.64061  0.90613  1.0000
  Fe  Fe106     1.0  0.40130  0.58843  0.58692  1.0000
  S   S206      1.0  0.41669  0.60176  0.54914  1.0000
  S   S207      1.0  0.39560  0.60007  0.63534  1.0000
  Fe  Fe107     1.0  0.40442  0.55277  0.55297  1.0000
  S   S208      1.0  0.41998  0.56382  0.51404  1.0000
  S   S209      1.0  0.39576  0.52471  0.55789  1.0000
  Fe  Fe108     1.0  0.43477  0.57832  0.55024  1.0000
  S   S210      1.0  0.46365  0.57390  0.56030  1.0000
  Fe  Fe109     1.0  0.40063  0.58612  0.51557  1.0000
  H   H782      1.0  0.46108  0.62734  0.95422  1.0000
  S   S211      1.0  0.42005  0.56587  0.58923  1.0000
  S   S212      1.0  0.38436  0.57424  0.55342  1.0000
  C   C482      1.0  0.39719  0.48356  0.96506  1.0000
  H   H783      1.0  0.35655  0.39641  0.72959  1.0000
  C   C483      1.0  0.39359  0.49162  0.53433  1.0000
  C   C484      1.0  0.40140  0.50788  0.53137  1.0000
  H   H784      1.0  0.33977  0.41056  0.71516  1.0000
  C   C485      1.0  0.39539  0.50133  0.95818  1.0000
  H   H785      1.0  0.33860  0.38765  0.70933  1.0000
  H   H786      1.0  0.38501  0.48920  0.55368  1.0000
  H   H787      1.0  0.33733  0.41631  0.65861  1.0000
  H   H788      1.0  0.39237  0.50537  0.93476  1.0000
  C   C486      1.0  0.35294  0.62285  0.70047  1.0000
  C   C487      1.0  0.37016  0.62115  0.71011  1.0000
  C   C488      1.0  0.38294  0.61425  0.68983  1.0000
  C   C489      1.0  0.37879  0.60896  0.65958  1.0000
  C   C490      1.0  0.36157  0.61066  0.64995  1.0000
  C   C491      1.0  0.34879  0.61756  0.67022  1.0000
  H   H789      1.0  0.37365  0.62509  0.73321  1.0000
  H   H790      1.0  0.39619  0.61302  0.69767  1.0000
  H   H791      1.0  0.35808  0.60673  0.62684  1.0000
  H   H792      1.0  0.33555  0.61880  0.66238  1.0000
  C   C492      1.0  0.35444  0.62008  0.91204  1.0000
  C   C493      1.0  0.36846  0.63127  0.91279  1.0000
  C   C494      1.0  0.38196  0.62843  0.93423  1.0000
  C   C495      1.0  0.38166  0.61434  0.95502  1.0000
  C   C496      1.0  0.36763  0.60315  0.95428  1.0000
  C   C497      1.0  0.35408  0.60608  0.93302  1.0000
  H   H793      1.0  0.36890  0.64211  0.89686  1.0000
  C   C498      1.0  0.49692  0.40380  0.89966  1.0000
  H   H794      1.0  0.25661  0.60263  0.88178  1.0000
  H   H795      1.0  0.34335  0.59728  0.93254  1.0000
  H   H796      1.0  0.43421  0.44935  0.95450  1.0000
  H   H797      1.0  0.39581  0.52758  0.97566  1.0000
  S   S213      1.0  0.35668  0.33543  0.67914  1.0000
  C   C499      1.0  0.36439  0.37037  0.57617  1.0000
  C   C500      1.0  0.36483  0.38579  0.55869  1.0000
  C   C501      1.0  0.37742  0.38821  0.53539  1.0000
  C   C502      1.0  0.38976  0.37522  0.52937  1.0000
  C   C503      1.0  0.38925  0.35975  0.54671  1.0000
  C   C504      1.0  0.37665  0.35732  0.57000  1.0000
  H   H798      1.0  0.35539  0.39596  0.56323  1.0000
  H   H799      1.0  0.36250  0.42741  0.68734  1.0000
  H   H800      1.0  0.39875  0.34962  0.54221  1.0000
  H   H801      1.0  0.37649  0.34540  0.58324  1.0000
  C   C505      1.0  0.35785  0.36909  0.78049  1.0000
  C   C506      1.0  0.37428  0.37260  0.76836  1.0000
  C   C507      1.0  0.38667  0.38117  0.78654  1.0000
  C   C508      1.0  0.38300  0.38624  0.81727  1.0000
  C   C509      1.0  0.36666  0.38251  0.82950  1.0000
  C   C510      1.0  0.35422  0.37406  0.81123  1.0000
  H   H802      1.0  0.37747  0.36874  0.74500  1.0000
  H   H803      1.0  0.39927  0.38389  0.77679  1.0000
  H   H804      1.0  0.36355  0.38625  0.85301  1.0000
  H   H805      1.0  0.34163  0.37141  0.82108  1.0000
  C   C511      1.0  0.29018  0.60460  0.86376  1.0000
  H   H806      1.0  0.45500  0.44537  0.91130  1.0000
  C   C512      1.0  0.49912  0.57186  0.55699  1.0000
  C   C513      1.0  0.48012  0.40586  0.91223  1.0000
  C   C514      1.0  0.47783  0.41289  0.94175  1.0000
  H   H807      1.0  0.25536  0.62384  0.89868  1.0000
  H   H808      1.0  0.46898  0.40176  0.89925  1.0000
  H   H809      1.0  0.27761  0.61373  0.93746  1.0000
  C   C515      1.0  0.26152  0.33359  0.63462  1.0000
  C   C516      1.0  0.48416  0.58053  0.54607  1.0000
  C   C517      1.0  0.48607  0.59432  0.52529  1.0000
  S   S214      1.0  0.26956  0.65233  0.81288  1.0000
  H   H810      1.0  0.47471  0.60114  0.51675  1.0000
  H   H811      1.0  0.39383  0.57159  0.68489  1.0000
  C   C518      1.0  0.46269  0.45622  0.92063  1.0000
  H   H812      1.0  0.37394  0.38505  0.65117  1.0000
  H   H813      1.0  0.27993  0.33829  0.59814  1.0000
  H   H814      1.0  0.42984  0.48571  0.92935  1.0000
  S   S215      1.0  0.39888  0.61155  0.98187  1.0000
  H   H815      1.0  0.35150  0.40500  0.63203  1.0000
  C   C519      1.0  0.41250  0.51072  0.50625  1.0000
  H   H816      1.0  0.27903  0.59295  0.91903  1.0000
  C   C520      1.0  0.46241  0.48243  0.95084  1.0000
  C   C521      1.0  0.34761  0.39874  0.70982  1.0000
  H   H817      1.0  0.33376  0.42985  0.97178  1.0000
  N   N51       1.0  0.35715  0.40053  0.68023  1.0000
  H   H818      1.0  0.37681  0.41659  0.66047  1.0000
  H   H819      1.0  0.33526  0.39348  0.65271  1.0000
  N   N52       1.0  0.28125  0.61472  0.88818  1.0000
  C   C522      1.0  0.28414  0.60632  0.91857  1.0000
  C   C523      1.0  0.25349  0.65549  0.84217  1.0000
  C   C524      1.0  0.26249  0.61566  0.88153  1.0000
  C   C525      1.0  0.28826  0.63236  0.88881  1.0000
  C   C526      1.0  0.43853  0.47639  0.91693  1.0000
  H   H820      1.0  0.47279  0.45024  0.93578  1.0000
  H   H821      1.0  0.43464  0.46851  0.97755  1.0000
  S   S216      1.0  0.34990  0.65333  0.80860  1.0000
  C   C527      1.0  0.44280  0.45951  0.96351  1.0000
  H   H822      1.0  0.25999  0.62144  0.85826  1.0000
  H   H823      1.0  0.28703  0.63880  0.86583  1.0000
  C   C528      1.0  0.25371  0.33808  0.58043  1.0000
  H   H824      1.0  0.25765  0.34058  0.55679  1.0000
  C   C529      1.0  0.26640  0.33678  0.60387  1.0000
  H   H825      1.0  0.46933  0.48956  0.93220  1.0000
  H   H826      1.0  0.46935  0.46250  0.90077  1.0000
  H   H827      1.0  0.35805  0.37320  0.67208  1.0000
  H   H828      1.0  0.36560  0.66228  0.72605  1.0000
  C   C530      1.0  0.36939  0.41495  0.68244  1.0000
  H   H829      1.0  0.38973  0.46641  0.51387  1.0000
  H   H830      1.0  0.36730  0.59213  0.96980  1.0000
  C   C531      1.0  0.34477  0.40406  0.65486  1.0000
  C   C532      1.0  0.39630  0.47862  0.51184  1.0000
  H   H831      1.0  0.37766  0.40018  0.52229  1.0000
  H   H832      1.0  0.35389  0.41811  0.96927  1.0000
  S   S217      1.0  0.40585  0.37746  0.50019  1.0000
  H   H833      1.0  0.39273  0.63718  0.93457  1.0000
  H   H834      1.0  0.37893  0.41266  0.70137  1.0000
  C   C533      1.0  0.36689  0.38433  0.67372  1.0000
  H   H835      1.0  0.49091  0.42366  0.98102  1.0000
  H   H836      1.0  0.39270  0.54188  0.49230  1.0000
  H   H837      1.0  0.37650  0.38129  0.69214  1.0000
  H   H838      1.0  0.29823  0.60546  0.92406  1.0000
  N   N53       1.0  0.45162  0.46864  0.93794  1.0000
  H   H839      1.0  0.28770  0.61032  0.84043  1.0000
  C   C534      1.0  0.34462  0.42435  0.98573  1.0000
  H   H840      1.0  0.30223  0.63225  0.89477  1.0000
  H   H841      1.0  0.35122  0.45681  0.96783  1.0000
  C   C535      1.0  0.49252  0.41815  0.95820  1.0000
  H   H842      1.0  0.44465  0.48341  0.89731  1.0000
  N   N54       1.0  0.38567  0.54938  0.65921  1.0000
  C   C536      1.0  0.37422  0.54299  0.68412  1.0000
  C   C537      1.0  0.37539  0.56003  0.63726  1.0000
  C   C538      1.0  0.39363  0.53454  0.64262  1.0000
  C   C539      1.0  0.39938  0.56003  0.67284  1.0000
  H   H843      1.0  0.38155  0.53491  0.70116  1.0000
  H   H844      1.0  0.36367  0.53498  0.67462  1.0000
  H   H845      1.0  0.36804  0.55393  0.69702  1.0000
  H   H846      1.0  0.36510  0.55242  0.62601  1.0000
  H   H847      1.0  0.36913  0.57134  0.64895  1.0000
  H   H848      1.0  0.38373  0.56532  0.61860  1.0000
  H   H849      1.0  0.40237  0.53891  0.62366  1.0000
  H   H850      1.0  0.38370  0.52636  0.63156  1.0000
  H   H851      1.0  0.40149  0.52617  0.65838  1.0000
  H   H852      1.0  0.40832  0.56505  0.65472  1.0000
  H   H853      1.0  0.40734  0.55254  0.68978  1.0000
  H   H854      1.0  0.43707  0.60205  0.98618  1.0000
  H   H855      1.0  0.45222  0.45293  0.97929  1.0000
  H   H856      1.0  0.47231  0.47699  0.96700  1.0000
  H   H857      1.0  0.41898  0.52295  0.50398  1.0000
  S   S218      1.0  0.37225  0.38704  0.98496  1.0000
  C   C540      1.0  0.39735  0.51399  0.98134  1.0000
  C   C541      1.0  0.36097  0.45069  0.98349  1.0000
  H   H858      1.0  0.37116  0.51916  0.50125  1.0000
  H   H859      1.0  0.45438  0.49202  0.96399  1.0000
  C   C542      1.0  0.25747  0.66187  0.87150  1.0000
  H   H860      1.0  0.34577  0.66048  0.68141  1.0000
  H   H861      1.0  0.49779  0.56113  0.57298  1.0000
  Fe  Fe110     1.0  0.30631  0.33481  0.66602  1.0000
  H   H862      1.0  0.45519  0.64584  0.97727  1.0000
  H   H863      1.0  0.45946  0.59770  0.97709  1.0000
  H   H864      1.0  0.49854  0.39809  0.87698  1.0000
  H   H865      1.0  0.43879  0.63133  0.96440  1.0000
  C   C543      1.0  0.45234  0.63199  0.97309  1.0000
  H   H866      1.0  0.36220  0.55009  0.49957  1.0000
  H   H867      1.0  0.37234  0.33457  0.79592  1.0000
  H   H868      1.0  0.37726  0.33482  0.75539  1.0000
  H   H869      1.0  0.27038  0.66632  0.87614  1.0000
  S   S219      1.0  0.31591  0.66633  0.85078  1.0000
  Fe  Fe111     1.0  0.32608  0.68585  0.31119  1.0000
  H   H870      1.0  0.26979  0.86272  0.42633  1.0000
  S   S220      1.0  0.31609  0.71387  0.30989  1.0000
  H   H871      1.0  0.37085  0.90011  0.46357  1.0000
  Fe  Fe112     1.0  0.33788  0.81458  0.30973  1.0000
  S   S221      1.0  0.31771  0.82256  0.27471  1.0000
  S   S222      1.0  0.35163  0.78809  0.31026  1.0000
  Fe  Fe113     1.0  0.33653  0.85004  0.34176  1.0000
  S   S223      1.0  0.31576  0.85964  0.30912  1.0000
  S   S224      1.0  0.34342  0.87165  0.37532  1.0000
  Fe  Fe114     1.0  0.30330  0.83389  0.31595  1.0000
  S   S225      1.0  0.27510  0.82655  0.32662  1.0000
  Fe  Fe115     1.0  0.33222  0.84781  0.27101  1.0000
  S   S226      1.0  0.33680  0.86615  0.22919  1.0000
  S   S227      1.0  0.32308  0.82488  0.35091  1.0000
  S   S228      1.0  0.35331  0.83915  0.30360  1.0000
  Fe  Fe116     1.0  0.43684  0.91528  0.05255  1.0000
  S   S229      1.0  0.41717  0.92804  0.08413  1.0000
  S   S230      1.0  0.46459  0.92353  0.06333  1.0000
  Fe  Fe117     1.0  0.40757  0.89856  0.01505  1.0000
  S   S231      1.0  0.38636  0.91118  0.04336  1.0000
  N   N55       1.0  0.45017  0.97359  0.04258  1.0000
  Fe  Fe118     1.0  0.40304  0.93511  0.04005  1.0000
  S   S232      1.0  0.39431  0.96365  0.03616  1.0000
  Fe  Fe119     1.0  0.40230  0.90311  0.08500  1.0000
  S   S233      1.0  0.39439  0.88542  0.12630  1.0000
  H   H872      1.0  0.49851  0.93544  0.07806  1.0000
  S   S234      1.0  0.42320  0.88997  0.05648  1.0000
  C   C544      1.0  0.34525  0.73225  0.38676  1.0000
  H   H873      1.0  0.35967  0.86794  0.04798  1.0000
  C   C545      1.0  0.25545  0.85280  0.35516  1.0000
  H   H874      1.0  0.38296  0.84529  0.00673  1.0000
  C   C546      1.0  0.35762  0.70658  0.36332  1.0000
  C   C547      1.0  0.35768  0.87199  0.40749  1.0000
  C   C548      1.0  0.35883  0.88728  0.42486  1.0000
  C   C549      1.0  0.37005  0.88826  0.45047  1.0000
  C   C550      1.0  0.38030  0.87393  0.45894  1.0000
  C   C551      1.0  0.37909  0.85863  0.44157  1.0000
  C   C552      1.0  0.36784  0.85763  0.41602  1.0000
  H   H875      1.0  0.35105  0.89849  0.41845  1.0000
  H   H876      1.0  0.27440  0.84065  0.41655  1.0000
  H   H877      1.0  0.38699  0.84748  0.44790  1.0000
  H   H878      1.0  0.36715  0.84579  0.40289  1.0000
  C   C553      1.0  0.35285  0.87086  0.20021  1.0000
  C   C554      1.0  0.36844  0.86145  0.19743  1.0000
  C   C555      1.0  0.38090  0.86614  0.17482  1.0000
  C   C556      1.0  0.37803  0.88023  0.15445  1.0000
  C   C557      1.0  0.36239  0.88955  0.15707  1.0000
  C   C558      1.0  0.34997  0.88491  0.17976  1.0000
  H   H879      1.0  0.37094  0.85057  0.21271  1.0000
  H   H880      1.0  0.39289  0.85877  0.17313  1.0000
  H   H881      1.0  0.35988  0.90041  0.14173  1.0000
  H   H882      1.0  0.33802  0.89234  0.18152  1.0000
  H   H883      1.0  0.47692  0.89535  0.02254  1.0000
  H   H884      1.0  0.34643  0.70543  0.34740  1.0000
  H   H885      1.0  0.28700  0.69808  0.27140  1.0000
  H   H886      1.0  0.36759  0.71433  0.35111  1.0000
  H   H887      1.0  0.36312  0.69332  0.36709  1.0000
  C   C559      1.0  0.32632  0.73434  0.30842  1.0000
  C   C560      1.0  0.34422  0.73599  0.30467  1.0000
  C   C561      1.0  0.35174  0.75252  0.30522  1.0000
  C   C562      1.0  0.34147  0.76760  0.30897  1.0000
  C   C563      1.0  0.32356  0.76593  0.31231  1.0000
  C   C564      1.0  0.31607  0.74941  0.31213  1.0000
  H   H888      1.0  0.35227  0.72462  0.30100  1.0000
  H   H889      1.0  0.36559  0.75369  0.30230  1.0000
  H   H890      1.0  0.31548  0.77739  0.31520  1.0000
  H   H891      1.0  0.30221  0.74836  0.31497  1.0000
  H   H892      1.0  0.26753  0.70848  0.25745  1.0000
  C   C565      1.0  0.36743  0.71560  0.41348  1.0000
  H   H893      1.0  0.27984  0.71813  0.28787  1.0000
  C   C566      1.0  0.48555  0.91610  0.05132  1.0000
  C   C567      1.0  0.48802  0.90210  0.03126  1.0000
  H   H894      1.0  0.44450  0.97649  0.09114  1.0000
  H   H895      1.0  0.26493  0.86175  0.34654  1.0000
  N   N56       1.0  0.26507  0.69605  0.30198  1.0000
  H   H896      1.0  0.47395  0.95999  0.05304  1.0000
  H   H897      1.0  0.33469  0.70946  0.43042  1.0000
  C   C568      1.0  0.27524  0.70560  0.27859  1.0000
  H   H898      1.0  0.39816  0.96247  0.48107  1.0000
  S   S235      1.0  0.35213  0.67259  0.30984  1.0000
  H   H899      1.0  0.40623  0.83839  0.06272  1.0000
  N   N57       1.0  0.38128  0.85051  0.05549  1.0000
  C   C569      1.0  0.37397  0.86810  0.05069  1.0000
  C   C570      1.0  0.40025  0.85142  0.05907  1.0000
  C   C571      1.0  0.37728  0.83973  0.02836  1.0000
  C   C572      1.0  0.37366  0.84292  0.08384  1.0000
  H   H900      1.0  0.36308  0.83885  0.02473  1.0000
  C   C573      1.0  0.30904  0.84213  0.42326  1.0000
  H   H901      1.0  0.25391  0.71909  0.32195  1.0000
  H   H902      1.0  0.25090  0.68181  0.26799  1.0000
  H   H903      1.0  0.40644  0.85716  0.03814  1.0000
  N   N58       1.0  0.35227  0.71464  0.39284  1.0000
  C   C574      1.0  0.25717  0.83520  0.34811  1.0000
  H   H904      1.0  0.45008  0.99600  0.01272  1.0000
  H   H905      1.0  0.42723  0.96768  0.06876  1.0000
  H   H906      1.0  0.42989  0.99192  0.03164  1.0000
  H   H907      1.0  0.35933  0.84212  0.08213  1.0000
  C   C575      1.0  0.44418  0.99134  0.03473  1.0000
  N   N59       1.0  0.29679  0.85679  0.41854  1.0000
  H   H908      1.0  0.30471  0.83036  0.41092  1.0000
  C   C576      1.0  0.30287  0.87197  0.43580  1.0000
  H   H909      1.0  0.37943  0.87422  0.02950  1.0000
  C   C577      1.0  0.29590  0.86111  0.38524  1.0000
  H   H910      1.0  0.31603  0.87583  0.42781  1.0000
  H   H911      1.0  0.37891  0.82966  0.08836  1.0000
  H   H912      1.0  0.44584  0.95453  0.07808  1.0000
  H   H913      1.0  0.29405  0.88336  0.43253  1.0000
  H   H914      1.0  0.43149  0.96094  0.01435  1.0000
  H   H915      1.0  0.40375  0.85951  0.07930  1.0000
  H   H916      1.0  0.34147  0.73894  0.40856  1.0000
  H   H917      1.0  0.31034  0.83873  0.44821  1.0000
  H   H918      1.0  0.37684  0.87664  0.07060  1.0000
  H   H919      1.0  0.30373  0.86921  0.46107  1.0000
  H   H920      1.0  0.28663  0.87198  0.38073  1.0000
  H   H921      1.0  0.29183  0.84981  0.37135  1.0000
  N   N60       1.0  0.37138  0.89102  0.29457  1.0000
  C   C578      1.0  0.37780  0.88285  0.32347  1.0000
  C   C579      1.0  0.35226  0.89082  0.29432  1.0000
  C   C580      1.0  0.37815  0.88134  0.26755  1.0000
  C   C581      1.0  0.37724  0.90910  0.29286  1.0000
  H   H922      1.0  0.39218  0.88264  0.32444  1.0000
  H   H923      1.0  0.37343  0.86926  0.32572  1.0000
  H   H924      1.0  0.37289  0.88983  0.34433  1.0000
  H   H925      1.0  0.34691  0.89684  0.27282  1.0000
  H   H926      1.0  0.34749  0.87736  0.29507  1.0000
  H   H927      1.0  0.34660  0.89767  0.31468  1.0000
  H   H928      1.0  0.37377  0.88740  0.24540  1.0000
  H   H929      1.0  0.37349  0.86778  0.26753  1.0000
  H   H930      1.0  0.39254  0.88083  0.26717  1.0000
  H   H931      1.0  0.37255  0.91563  0.27133  1.0000
  H   H932      1.0  0.39162  0.90973  0.29286  1.0000
  H   H933      1.0  0.37232  0.91676  0.31292  1.0000
  H   H934      1.0  0.30866  0.86515  0.37615  1.0000
  H   H935      1.0  0.47299  0.98198  0.06612  1.0000
  H   H936      1.0  0.45078  0.94846  0.02157  1.0000
  H   H937      1.0  0.32706  0.70335  0.39290  1.0000
  C   C582      1.0  0.44574  0.96180  0.01711  1.0000
  S   S236      1.0  0.42300  0.92294  0.00862  1.0000
  C   C583      1.0  0.27600  0.69233  0.32927  1.0000
  H   H938      1.0  0.33354  0.73190  0.37184  1.0000
  H   H939      1.0  0.45123  0.96617  0.99460  1.0000
  C   C584      1.0  0.46913  0.97328  0.04701  1.0000
  H   H940      1.0  0.39451  0.98684  0.44366  1.0000
  H   H941      1.0  0.36391  0.72161  0.43605  1.0000
  H   H942      1.0  0.28131  0.70437  0.33922  1.0000
  H   H943      1.0  0.27947  0.84841  0.45460  1.0000
  H   H944      1.0  0.37786  0.72347  0.40284  1.0000
  H   H945      1.0  0.25166  0.67197  0.30580  1.0000
  H   H946      1.0  0.26863  0.68558  0.34779  1.0000
  H   H947      1.0  0.37298  0.70246  0.41842  1.0000
  H   H948      1.0  0.38264  0.82636  0.03103  1.0000
  C   C585      1.0  0.27937  0.85194  0.42960  1.0000
  H   H949      1.0  0.35485  0.74048  0.37451  1.0000
  H   H950      1.0  0.32222  0.84527  0.41440  1.0000
  H   H951      1.0  0.37655  0.85092  0.10457  1.0000
  C   C586      1.0  0.44157  0.96785  0.07142  1.0000
  C   C587      1.0  0.33880  0.70402  0.40770  1.0000
  H   H952      1.0  0.34352  0.69048  0.41176  1.0000
  H   H953      1.0  0.28717  0.68380  0.32299  1.0000
  C   C588      1.0  0.25921  0.67959  0.28863  1.0000
  C   C589      1.0  0.39968  0.98930  0.46642  1.0000
  H   H954      1.0  0.47604  0.97735  0.02560  1.0000
  C   C590      1.0  0.39828  0.97973  0.00718  1.0000
  S   S237      1.0  0.31818  0.67220  0.35498  1.0000
  H   H955      1.0  0.45481  0.99343  0.41707  1.0000
  H   H956      1.0  0.46075  0.99685  0.37723  1.0000
  C   C591      1.0  0.39465  0.99723  0.01396  1.0000
  H   H957      1.0  0.27040  0.67123  0.28138  1.0000
  C   C592      1.0  0.40172  0.97541  0.48764  1.0000
  Fe  Fe120     1.0  0.33183  0.67681  0.81085  1.0000
  C   C593      1.0  0.42533  0.87209  0.64554  1.0000
  S   S238      1.0  0.34290  0.70322  0.79762  1.0000
  C   C594      1.0  0.42006  0.87801  0.69958  1.0000
  Fe  Fe121     1.0  0.32989  0.80778  0.82962  1.0000
  S   S239      1.0  0.31632  0.81684  0.78635  1.0000
  S   S240      1.0  0.32871  0.78000  0.84865  1.0000
  Fe  Fe122     1.0  0.33582  0.84542  0.85096  1.0000
  S   S241      1.0  0.32241  0.85646  0.80870  1.0000
  S   S242      1.0  0.34062  0.86568  0.88826  1.0000
  Fe  Fe123     1.0  0.30241  0.83603  0.81713  1.0000
  S   S243      1.0  0.27339  0.84246  0.81357  1.0000
  Fe  Fe124     1.0  0.33769  0.83658  0.78157  1.0000
  S   S244      1.0  0.35023  0.84038  0.73296  1.0000
  S   S245      1.0  0.31485  0.82628  0.86042  1.0000
  S   S246      1.0  0.35220  0.82631  0.82367  1.0000
  Fe  Fe125     1.0  0.43264  0.90270  0.56798  1.0000
  S   S247      1.0  0.41665  0.92206  0.59443  1.0000
  S   S248      1.0  0.45965  0.89897  0.58917  1.0000
  Fe  Fe126     1.0  0.40143  0.89485  0.52669  1.0000
  S   S249      1.0  0.38381  0.91422  0.55112  1.0000
  H   H958      1.0  0.42011  0.86393  0.70515  1.0000
  Fe  Fe127     1.0  0.40704  0.93189  0.54830  1.0000
  H   H959      1.0  0.29837  0.86430  0.66504  1.0000
  Fe  Fe128     1.0  0.39507  0.90285  0.59543  1.0000
  S   S250      1.0  0.38170  0.89940  0.64337  1.0000
  S   S251      1.0  0.42400  0.91305  0.52167  1.0000
  S   S252      1.0  0.41159  0.88293  0.57119  1.0000
  C   C595      1.0  0.46109  0.97225  0.55242  1.0000
  C   C596      1.0  0.36518  0.68900  0.68585  1.0000
  H   H960      1.0  0.42566  0.85790  0.64992  1.0000
  S   S253      1.0  0.41057  0.96151  0.54575  1.0000
  H   H961      1.0  0.48715  0.95868  0.58629  1.0000
  C   C597      1.0  0.35839  0.86839  0.91361  1.0000
  C   C598      1.0  0.35806  0.88247  0.93416  1.0000
  C   C599      1.0  0.37187  0.88527  0.95465  1.0000
  C   C600      1.0  0.38620  0.87398  0.95478  1.0000
  C   C601      1.0  0.38645  0.85978  0.93452  1.0000
  C   C602      1.0  0.37263  0.85699  0.91400  1.0000
  H   H962      1.0  0.34714  0.89141  0.93398  1.0000
  C   C603      1.0  0.45678  0.94255  0.53814  1.0000
  H   H963      1.0  0.39749  0.85098  0.93445  1.0000
  H   H964      1.0  0.37307  0.84610  0.89837  1.0000
  C   C604      1.0  0.35921  0.85703  0.70876  1.0000
  C   C605      1.0  0.35976  0.87441  0.71769  1.0000
  C   C606      1.0  0.36653  0.88708  0.69733  1.0000
  C   C607      1.0  0.37296  0.88268  0.66770  1.0000
  C   C608      1.0  0.37253  0.86529  0.65885  1.0000
  C   C609      1.0  0.36567  0.85263  0.67915  1.0000
  H   H965      1.0  0.35497  0.87812  0.74032  1.0000
  H   H966      1.0  0.36683  0.90043  0.70466  1.0000
  H   H967      1.0  0.37738  0.86157  0.63626  1.0000
  H   H968      1.0  0.36536  0.83928  0.67181  1.0000
  C   C610      1.0  0.26264  0.83145  0.87212  1.0000
  C   C611      1.0  0.25797  0.83914  0.84387  1.0000
  H   H969      1.0  0.45811  0.87948  0.65961  1.0000
  H   H970      1.0  0.27571  0.82661  0.87532  1.0000
  H   H971      1.0  0.45439  0.88382  0.69998  1.0000
  C   C612      1.0  0.33776  0.72450  0.81120  1.0000
  C   C613      1.0  0.32856  0.72743  0.83869  1.0000
  C   C614      1.0  0.32576  0.74448  0.84948  1.0000
  C   C615      1.0  0.33179  0.75889  0.83271  1.0000
  C   C616      1.0  0.34064  0.75598  0.80480  1.0000
  C   C617      1.0  0.34374  0.73890  0.79432  1.0000
  H   H972      1.0  0.32395  0.71656  0.85207  1.0000
  H   H973      1.0  0.31898  0.74653  0.87115  1.0000
  H   H974      1.0  0.34551  0.76686  0.79177  1.0000
  H   H975      1.0  0.35099  0.73685  0.77316  1.0000
  H   H976      1.0  0.47095  0.90264  0.52426  1.0000
  H   H977      1.0  0.45056  0.86260  0.68484  1.0000
  H   H978      1.0  0.41726  0.99793  0.54843  1.0000
  C   C618      1.0  0.48034  0.90094  0.57105  1.0000
  C   C619      1.0  0.48222  0.90299  0.53900  1.0000
  H   H979      1.0  0.36712  0.68234  0.74726  1.0000
  N   N61       1.0  0.28973  0.87169  0.91121  1.0000
  C   C620      1.0  0.29636  0.85511  0.92410  1.0000
  C   C621      1.0  0.27112  0.87374  0.91874  1.0000
  C   C622      1.0  0.29204  0.87177  0.87721  1.0000
  C   C623      1.0  0.29942  0.88612  0.92471  1.0000
  H   H980      1.0  0.29499  0.85464  0.94973  1.0000
  H   H981      1.0  0.33318  0.67915  0.66955  1.0000
  H   H982      1.0  0.33566  0.70681  0.69844  1.0000
  H   H983      1.0  0.26879  0.87335  0.94419  1.0000
  H   H984      1.0  0.26573  0.88622  0.90975  1.0000
  H   H985      1.0  0.26340  0.86325  0.90829  1.0000
  H   H986      1.0  0.30594  0.87060  0.87063  1.0000
  H   H987      1.0  0.36013  0.69628  0.66542  1.0000
  H   H988      1.0  0.45436  0.93758  0.59945  1.0000
  H   H989      1.0  0.46472  0.94335  0.51666  1.0000
  H   H990      1.0  0.28535  0.86077  0.86636  1.0000
  H   H991      1.0  0.29795  0.88650  0.95034  1.0000
  N   N62       1.0  0.29985  0.85505  0.71195  1.0000
  C   C624      1.0  0.28984  0.86201  0.68546  1.0000
  C   C625      1.0  0.28811  0.85209  0.73852  1.0000
  C   C626      1.0  0.31316  0.86761  0.72076  1.0000
  C   C627      1.0  0.30831  0.83850  0.70308  1.0000
  C   C628      1.0  0.35834  0.67414  0.73343  1.0000
  H   H992      1.0  0.28335  0.87454  0.69135  1.0000
  H   H993      1.0  0.27961  0.85290  0.67829  1.0000
  H   H994      1.0  0.29876  0.82893  0.69500  1.0000
  H   H995      1.0  0.27797  0.84253  0.73303  1.0000
  H   H996      1.0  0.28145  0.86424  0.74608  1.0000
  H   H997      1.0  0.32094  0.86278  0.74070  1.0000
  H   H998      1.0  0.30730  0.88027  0.72757  1.0000
  H   H999      1.0  0.32243  0.86997  0.70142  1.0000
  H   H1000     1.0  0.29531  0.84692  0.75889  1.0000
  H   H1001     1.0  0.31812  0.84035  0.68441  1.0000
  H   H1002     1.0  0.31528  0.83248  0.72299  1.0000
  C   C629      1.0  0.34144  0.69922  0.71785  1.0000
  H   H1003     1.0  0.41696  0.90490  0.66026  1.0000
  H   H1004     1.0  0.45770  0.95967  0.61039  1.0000
  H   H1005     1.0  0.48966  0.95146  0.54693  1.0000
  N   N63       1.0  0.46322  0.95405  0.56257  1.0000
  C   C630      1.0  0.49530  0.90102  0.58960  1.0000
  H   H1006     1.0  0.43916  0.95417  0.58777  1.0000
  H   H1007     1.0  0.43868  0.90388  0.64543  1.0000
  N   N64       1.0  0.35099  0.68371  0.70672  1.0000
  H   H1008     1.0  0.28682  0.88388  0.86652  1.0000
  H   H1009     1.0  0.40774  0.96226  0.97213  1.0000
  H   H1010     1.0  0.31353  0.88485  0.91952  1.0000
  H   H1011     1.0  0.44719  0.97555  0.54801  1.0000
  S   S254      1.0  0.39488  0.87434  0.49069  1.0000
  H   H1012     1.0  0.37444  0.69747  0.69803  1.0000
  H   H1013     1.0  0.49408  0.89942  0.61440  1.0000
  H   H1014     1.0  0.44317  0.94589  0.53186  1.0000
  H   H1015     1.0  0.46834  0.97474  0.53059  1.0000
  H   H1016     1.0  0.48362  0.93652  0.57666  1.0000
  C   C631      1.0  0.40503  0.97563  0.97794  1.0000
  H   H1017     1.0  0.45698  0.92883  0.54594  1.0000
  H   H1018     1.0  0.31034  0.85307  0.91851  1.0000
  H   H1019     1.0  0.34795  0.66988  0.74934  1.0000
  H   H1020     1.0  0.28934  0.84393  0.91452  1.0000
  C   C632      1.0  0.45319  0.95126  0.59135  1.0000
  H   H1021     1.0  0.43361  0.87464  0.62485  1.0000
  H   H1022     1.0  0.40637  0.88198  0.69496  1.0000
  H   H1023     1.0  0.41301  0.98544  0.93323  1.0000
  C   C633      1.0  0.43043  0.90058  0.66575  1.0000
  H   H1024     1.0  0.43484  0.90836  0.68571  1.0000
  H   H1025     1.0  0.42424  0.88503  0.72061  1.0000
  C   C634      1.0  0.40798  0.98883  0.95586  1.0000
  H   H1026     1.0  0.29493  0.89883  0.91524  1.0000
  C   C635      1.0  0.40800  0.97837  0.51746  1.0000
  C   C636      1.0  0.44939  0.87670  0.67965  1.0000
  N   N65       1.0  0.43130  0.88184  0.67268  1.0000
  C   C637      1.0  0.48172  0.95007  0.56835  1.0000
  H   H1027     1.0  0.37152  0.89625  0.97006  1.0000
  H   H1028     1.0  0.41175  0.87575  0.63946  1.0000
  H   H1029     1.0  0.35002  0.70795  0.73104  1.0000
  H   H1030     1.0  0.33073  0.69565  0.73391  1.0000
  H   H1031     1.0  0.46575  0.98134  0.57031  1.0000
  C   C638      1.0  0.33903  0.67242  0.68986  1.0000
  H   H1032     1.0  0.32825  0.66809  0.70512  1.0000
  H   H1033     1.0  0.25430  0.82442  0.91825  1.0000
  H   H1034     1.0  0.37262  0.67754  0.67713  1.0000
  S   S255      1.0  0.40395  0.87686  0.98010  1.0000
  C   C639      1.0  0.49878  0.90524  0.52581  1.0000
  C   C640      1.0  0.25040  0.83008  0.89634  1.0000
  C   C641      1.0  0.41249  0.99539  0.52542  1.0000
  S   S256      1.0  0.31381  0.66665  0.77473  1.0000
  Fe  Fe129     1.0  0.65714  0.31333  0.16219  1.0000
  H   H1035     1.0  0.66054  0.30553  0.04155  1.0000
  S   S257      1.0  0.65067  0.28675  0.14233  1.0000
  H   H1036     1.0  0.61020  0.12935  0.17572  1.0000
  Fe  Fe130     1.0  0.65021  0.15508  0.14793  1.0000
  S   S258      1.0  0.66970  0.13624  0.16823  1.0000
  S   S259      1.0  0.62779  0.14723  0.11699  1.0000
  Fe  Fe131     1.0  0.66163  0.18489  0.18931  1.0000
  S   S260      1.0  0.68086  0.16723  0.21330  1.0000
  S   S261      1.0  0.66232  0.21276  0.20708  1.0000
  Fe  Fe132     1.0  0.68846  0.15846  0.16537  1.0000
  S   S262      1.0  0.71779  0.16196  0.15847  1.0000
  Fe  Fe133     1.0  0.66045  0.14674  0.21440  1.0000
  S   S263      1.0  0.65658  0.12685  0.25419  1.0000
  S   S264      1.0  0.66951  0.17657  0.14146  1.0000
  S   S265      1.0  0.64063  0.16514  0.19421  1.0000
  Fe  Fe134     1.0  0.56568  0.08355  0.45017  1.0000
  S   S266      1.0  0.57223  0.06835  0.40761  1.0000
  S   S267      1.0  0.53805  0.08934  0.46745  1.0000
  C   C642      1.0  0.63026  0.32189  0.09117  1.0000
  S   S268      1.0  0.61274  0.06948  0.42785  1.0000
  H   H1037     1.0  0.65939  0.30329  0.08292  1.0000
  Fe  Fe135     1.0  0.59459  0.08667  0.40018  1.0000
  S   S269      1.0  0.60015  0.10308  0.35609  1.0000
  Fe  Fe136     1.0  0.58981  0.05270  0.43949  1.0000
  S   S270      1.0  0.58537  0.02329  0.43948  1.0000
  S   S271      1.0  0.58656  0.10309  0.44112  1.0000
  H   H1038     1.0  0.68403  0.21827  0.14154  1.0000
  C   C643      1.0  0.51762  0.08408  0.45112  1.0000
  H   H1039     1.0  0.50211  0.08769  0.99718  1.0000
  C   C644      1.0  0.51618  0.07569  0.42264  1.0000
  H   H1040     1.0  0.61609  0.32460  0.09078  1.0000
  H   H1041     1.0  0.52774  0.07251  0.40948  1.0000
  H   H1042     1.0  0.61744  0.12468  0.21469  1.0000
  H   H1043     1.0  0.66642  0.12340  0.43598  1.0000
  H   H1044     1.0  0.59641  0.10054  0.17395  1.0000
  H   H1045     1.0  0.63486  0.09825  0.22541  1.0000
  C   C645      1.0  0.59149  0.01731  0.99279  1.0000
  C   C646      1.0  0.62526  0.11242  0.03075  1.0000
  C   C647      1.0  0.64126  0.11547  0.04502  1.0000
  C   C648      1.0  0.64233  0.12610  0.07138  1.0000
  C   C649      1.0  0.62736  0.13389  0.08364  1.0000
  C   C650      1.0  0.61136  0.13081  0.06941  1.0000
  C   C651      1.0  0.61029  0.12014  0.04311  1.0000
  H   H1046     1.0  0.65293  0.10953  0.03567  1.0000
  H   H1047     1.0  0.65472  0.12831  0.08209  1.0000
  H   H1048     1.0  0.59970  0.13676  0.07873  1.0000
  H   H1049     1.0  0.59789  0.11794  0.03240  1.0000
  C   C652      1.0  0.64068  0.12069  0.28254  1.0000
  C   C653      1.0  0.64466  0.10710  0.30341  1.0000
  C   C654      1.0  0.63254  0.10150  0.32591  1.0000
  C   C655      1.0  0.61610  0.10937  0.32792  1.0000
  C   C656      1.0  0.61212  0.12295  0.30702  1.0000
  C   C657      1.0  0.62428  0.12861  0.28461  1.0000
  H   H1050     1.0  0.65723  0.10076  0.30207  1.0000
  H   H1051     1.0  0.63586  0.09092  0.34138  1.0000
  H   H1052     1.0  0.59952  0.12924  0.30826  1.0000
  H   H1053     1.0  0.62094  0.13915  0.26905  1.0000
  H   H1054     1.0  0.61276  0.12597  0.41269  1.0000
  C   C658      1.0  0.73107  0.14565  0.10543  1.0000
  C   C659      1.0  0.73362  0.15753  0.12925  1.0000
  H   H1055     1.0  0.64442  0.14696  0.39366  1.0000
  H   H1056     1.0  0.71890  0.13901  0.10388  1.0000
  H   H1057     1.0  0.73696  0.21990  0.16911  1.0000
  C   C660      1.0  0.65374  0.26629  0.16090  1.0000
  C   C661      1.0  0.64968  0.25111  0.14477  1.0000
  C   C662      1.0  0.65194  0.23462  0.15861  1.0000
  C   C663      1.0  0.65829  0.23314  0.18883  1.0000
  C   C664      1.0  0.66231  0.24832  0.20493  1.0000
  C   C665      1.0  0.66011  0.26479  0.19108  1.0000
  H   H1058     1.0  0.64469  0.25209  0.12147  1.0000
  H   H1059     1.0  0.64873  0.22309  0.14594  1.0000
  H   H1060     1.0  0.66723  0.24735  0.22831  1.0000
  H   H1061     1.0  0.66325  0.27631  0.20385  1.0000
  N   N66       1.0  0.63643  0.31410  0.06191  1.0000
  H   H1062     1.0  0.61743  0.10921  0.13334  1.0000
  N   N67       1.0  0.71067  0.21602  0.15512  1.0000
  C   C666      1.0  0.69537  0.22658  0.14615  1.0000
  C   C667      1.0  0.71559  0.20441  0.12934  1.0000
  C   C668      1.0  0.70645  0.20558  0.18284  1.0000
  C   C669      1.0  0.72522  0.22750  0.16218  1.0000
  H   H1063     1.0  0.72873  0.23558  0.14175  1.0000
  H   H1064     1.0  0.65724  0.12868  0.38088  1.0000
  H   H1065     1.0  0.70509  0.19516  0.12414  1.0000
  H   H1066     1.0  0.61754  0.32797  0.03445  1.0000
  C   C670      1.0  0.74452  0.14198  0.08398  1.0000
  H   H1067     1.0  0.59446  0.00846  0.04004  1.0000
  H   H1068     1.0  0.65321  0.10009  0.40424  1.0000
  C   C671      1.0  0.54298  0.03999  0.46313  1.0000
  H   H1069     1.0  0.70241  0.21387  0.20271  1.0000
  H   H1070     1.0  0.72187  0.23642  0.18155  1.0000
  H   H1071     1.0  0.72728  0.19648  0.13513  1.0000
  H   H1072     1.0  0.65001  0.10456  0.19629  1.0000
  H   H1073     1.0  0.63983  0.11098  0.14255  1.0000
  H   H1074     1.0  0.63462  0.13004  0.37196  1.0000
  H   H1075     1.0  0.63021  0.08999  0.14083  1.0000
  H   H1076     1.0  0.63258  0.13060  0.18523  1.0000
  S   S272      1.0  0.67156  0.32075  0.20513  1.0000
  H   H1077     1.0  0.63038  0.10100  0.39669  1.0000
  S   S273      1.0  0.62483  0.09914  0.99731  1.0000
  C   C672      1.0  0.62284  0.12889  0.43023  1.0000
  C   C673      1.0  0.65544  0.31170  0.06301  1.0000
  C   C674      1.0  0.64050  0.10462  0.41361  1.0000
  H   H1078     1.0  0.55395  0.04880  0.45891  1.0000
  C   C675      1.0  0.62825  0.29711  0.05790  1.0000
  H   H1079     1.0  0.60376  0.09591  0.21261  1.0000
  H   H1080     1.0  0.63167  0.28813  0.07738  1.0000
  H   H1081     1.0  0.71846  0.21176  0.10777  1.0000
  H   H1082     1.0  0.64035  0.08359  0.19451  1.0000
  H   H1083     1.0  0.65329  0.14156  0.44833  1.0000
  Fe  Fe137     1.0  0.60427  0.08573  0.46884  1.0000
  C   C676      1.0  0.74962  0.16594  0.13082  1.0000
  H   H1084     1.0  0.53127  0.04648  0.45329  1.0000
  C   C677      1.0  0.59166  0.00468  0.01652  1.0000
  N   N68       1.0  0.64024  0.12344  0.41932  1.0000
  C   C678      1.0  0.65315  0.12747  0.44328  1.0000
  H   H1085     1.0  0.63283  0.31314  0.11120  1.0000
  C   C679      1.0  0.64435  0.13271  0.39023  1.0000
  H   H1086     1.0  0.61932  0.12209  0.45215  1.0000
  H   H1087     1.0  0.69552  0.19681  0.17826  1.0000
  C   C680      1.0  0.72768  0.33230  0.11755  1.0000
  H   H1088     1.0  0.63806  0.09722  0.43535  1.0000
  H   H1089     1.0  0.73665  0.32624  0.07133  1.0000
  C   C681      1.0  0.58993  0.00661  0.46727  1.0000
  H   H1090     1.0  0.63256  0.29079  0.03603  1.0000
  H   H1091     1.0  0.69785  0.23441  0.12497  1.0000
  N   N69       1.0  0.62347  0.10481  0.18139  1.0000
  C   C682      1.0  0.60746  0.09518  0.18767  1.0000
  C   C683      1.0  0.63778  0.09741  0.20015  1.0000
  C   C684      1.0  0.62071  0.12315  0.18970  1.0000
  C   C685      1.0  0.62793  0.10361  0.14812  1.0000
  H   H1092     1.0  0.60906  0.08127  0.18162  1.0000
  H   H1093     1.0  0.65023  0.12063  0.46551  1.0000
  S   S274      1.0  0.58286  0.06775  0.48212  1.0000
  H   H1094     1.0  0.69150  0.23569  0.16491  1.0000
  H   H1095     1.0  0.61389  0.29838  0.05742  1.0000
  H   H1096     1.0  0.71760  0.19726  0.19023  1.0000
  H   H1097     1.0  0.62212  0.14302  0.43484  1.0000
  H   H1098     1.0  0.54579  0.02804  0.44960  1.0000
  H   H1099     1.0  0.59413  0.03066  0.99818  1.0000
  H   H1100     1.0  0.63625  0.32032  0.01328  1.0000
  C   C686      1.0  0.63179  0.32573  0.03582  1.0000
  H   H1101     1.0  0.54490  0.03373  0.00499  1.0000
  S   S275      1.0  0.67379  0.32953  0.13092  1.0000
  H   H1102     1.0  0.66204  0.32430  0.06569  1.0000
  H   H1103     1.0  0.74251  0.13252  0.06603  1.0000
  H   H1104     1.0  0.71472  0.32780  0.11357  1.0000
  C   C687      1.0  0.74018  0.33138  0.09364  1.0000
  C   C688      1.0  0.50237  0.08823  0.46767  1.0000
  H   H1105     1.0  0.51365  0.03230  0.99020  1.0000
  Fe  Fe138     1.0  0.66708  0.31303  0.66464  1.0000
  H   H1106     1.0  0.65084  0.10818  0.90398  1.0000
  S   S276      1.0  0.67079  0.28509  0.64793  1.0000
  C   C689      1.0  0.61843  0.13439  0.93085  1.0000
  Fe  Fe139     1.0  0.65362  0.15383  0.64345  1.0000
  S   S277      1.0  0.67142  0.13456  0.66734  1.0000
  S   S278      1.0  0.63371  0.15157  0.60462  1.0000
  Fe  Fe140     1.0  0.66222  0.18302  0.68756  1.0000
  S   S279      1.0  0.68046  0.16600  0.71482  1.0000
  S   S280      1.0  0.65412  0.21020  0.70337  1.0000
  Fe  Fe141     1.0  0.69056  0.15642  0.66870  1.0000
  S   S281      1.0  0.72037  0.15401  0.66888  1.0000
  Fe  Fe142     1.0  0.66057  0.14505  0.71259  1.0000
  S   S282      1.0  0.65775  0.12682  0.75521  1.0000
  S   S283      1.0  0.67350  0.17504  0.64164  1.0000
  S   S284      1.0  0.64156  0.16275  0.68851  1.0000
  Fe  Fe143     1.0  0.56348  0.08690  0.94931  1.0000
  S   S285      1.0  0.57069  0.07332  0.90513  1.0000
  S   S286      1.0  0.53596  0.08937  0.96959  1.0000
  H   H1107     1.0  0.69068  0.10758  0.77307  1.0000
  S   S287      1.0  0.61112  0.07544  0.92586  1.0000
  H   H1108     1.0  0.69305  0.13801  0.75664  1.0000
  Fe  Fe144     1.0  0.59239  0.09258  0.89968  1.0000
  S   S288      1.0  0.59860  0.10954  0.85660  1.0000
  Fe  Fe145     1.0  0.58889  0.05754  0.93544  1.0000
  S   S289      1.0  0.58810  0.02796  0.93125  1.0000
  S   S290      1.0  0.58359  0.10749  0.94209  1.0000
  Fe  Fe146     1.0  0.60200  0.09005  0.96828  1.0000
  C   C690      1.0  0.51490  0.08877  0.95273  1.0000
  C   C691      1.0  0.51230  0.08906  0.92069  1.0000
  H   H1109     1.0  0.70458  0.12230  0.69522  1.0000
  H   H1110     1.0  0.52331  0.08982  0.90522  1.0000
  H   H1111     1.0  0.70326  0.10002  0.70686  1.0000
  C   C692      1.0  0.58823  0.01259  0.96217  1.0000
  H   H1112     1.0  0.68665  0.11509  0.71836  1.0000
  H   H1113     1.0  0.69781  0.28838  0.69795  1.0000
  H   H1114     1.0  0.71177  0.10842  0.79026  1.0000
  S   S291      1.0  0.58138  0.07075  0.97958  1.0000
  C   C693      1.0  0.62801  0.10984  0.52921  1.0000
  C   C694      1.0  0.64302  0.11025  0.54753  1.0000
  C   C695      1.0  0.64485  0.12268  0.57107  1.0000
  C   C696      1.0  0.63176  0.13506  0.57627  1.0000
  C   C697      1.0  0.61679  0.13472  0.55779  1.0000
  C   C698      1.0  0.61485  0.12213  0.53453  1.0000
  H   H1115     1.0  0.65330  0.10084  0.54358  1.0000
  H   H1116     1.0  0.65647  0.12278  0.58494  1.0000
  H   H1117     1.0  0.60658  0.14423  0.56156  1.0000
  H   H1118     1.0  0.60325  0.12203  0.52062  1.0000
  C   C699      1.0  0.64097  0.12215  0.78292  1.0000
  C   C700      1.0  0.64388  0.10904  0.80530  1.0000
  C   C701      1.0  0.63112  0.10484  0.82769  1.0000
  C   C702      1.0  0.61518  0.11378  0.82829  1.0000
  C   C703      1.0  0.61235  0.12698  0.80609  1.0000
  C   C704      1.0  0.62507  0.13111  0.78360  1.0000
  H   H1119     1.0  0.65602  0.10189  0.80507  1.0000
  H   H1120     1.0  0.63356  0.09453  0.84419  1.0000
  H   H1121     1.0  0.60014  0.13403  0.80616  1.0000
  H   H1122     1.0  0.62251  0.14122  0.76673  1.0000
  S   S292      1.0  0.68220  0.32411  0.70395  1.0000
  C   C705      1.0  0.73259  0.14567  0.60961  1.0000
  C   C706      1.0  0.73594  0.15347  0.63810  1.0000
  H   H1123     1.0  0.62982  0.13666  0.87245  1.0000
  H   H1124     1.0  0.71987  0.14064  0.60510  1.0000
  H   H1125     1.0  0.74640  0.28603  0.65042  1.0000
  C   C707      1.0  0.66611  0.26446  0.66415  1.0000
  C   C708      1.0  0.65711  0.26253  0.69209  1.0000
  C   C709      1.0  0.65366  0.24583  0.70376  1.0000
  C   C710      1.0  0.65933  0.23088  0.68793  1.0000
  C   C711      1.0  0.66849  0.23282  0.66015  1.0000
  C   C712      1.0  0.67178  0.24951  0.64831  1.0000
  H   H1126     1.0  0.65267  0.27387  0.70457  1.0000
  H   H1127     1.0  0.64656  0.24449  0.72528  1.0000
  H   H1128     1.0  0.67297  0.22148  0.64771  1.0000
  H   H1129     1.0  0.67875  0.25083  0.62667  1.0000
  H   H1130     1.0  0.55062  0.01290  0.94601  1.0000
  H   H1131     1.0  0.56074  0.03823  0.97571  1.0000
  N   N70       1.0  0.71051  0.11746  0.74310  1.0000
  C   C713      1.0  0.72924  0.11493  0.73722  1.0000
  C   C714      1.0  0.70708  0.13561  0.75209  1.0000
  C   C715      1.0  0.70482  0.10582  0.76831  1.0000
  C   C716      1.0  0.70085  0.11354  0.71462  1.0000
  H   H1132     1.0  0.73370  0.12362  0.71815  1.0000
  H   H1133     1.0  0.73231  0.10138  0.73026  1.0000
  H   H1134     1.0  0.74325  0.13729  0.56570  1.0000
  C   C717      1.0  0.63788  0.11164  0.91362  1.0000
  H   H1135     1.0  0.71416  0.13907  0.77348  1.0000
  C   C718      1.0  0.73620  0.27869  0.66285  1.0000
  C   C719      1.0  0.64875  0.13532  0.94352  1.0000
  H   H1136     1.0  0.65247  0.13718  0.88112  1.0000
  H   H1137     1.0  0.71433  0.27345  0.71094  1.0000
  H   H1138     1.0  0.61662  0.14840  0.93584  1.0000
  N   N71       1.0  0.53498  0.03502  0.95850  1.0000
  H   H1139     1.0  0.55215  0.04123  0.92092  1.0000
  H   H1140     1.0  0.52639  0.05977  0.50506  1.0000
  C   C720      1.0  0.51702  0.03908  0.96827  1.0000
  H   H1141     1.0  0.63610  0.10394  0.93520  1.0000
  S   S293      1.0  0.67689  0.33193  0.62879  1.0000
  C   C721      1.0  0.52568  0.02504  0.50099  1.0000
  H   H1142     1.0  0.60857  0.13086  0.91332  1.0000
  H   H1143     1.0  0.70822  0.28978  0.63050  1.0000
  H   H1144     1.0  0.73122  0.26874  0.64674  1.0000
  H   H1145     1.0  0.72362  0.30701  0.63362  1.0000
  S   S294      1.0  0.64383  0.32976  0.67568  1.0000
  H   H1146     1.0  0.64645  0.12816  0.96567  1.0000
  H   H1147     1.0  0.63820  0.15430  0.89429  1.0000
  C   C722      1.0  0.74592  0.14374  0.58728  1.0000
  H   H1148     1.0  0.53758  0.05847  0.93207  1.0000
  H   H1149     1.0  0.70352  0.30815  0.65409  1.0000
  H   H1150     1.0  0.53634  0.05024  0.53884  1.0000
  N   N72       1.0  0.72209  0.29033  0.67365  1.0000
  C   C723      1.0  0.70890  0.28009  0.69015  1.0000
  H   H1151     1.0  0.66226  0.13233  0.93603  1.0000
  C   C724      1.0  0.63935  0.14009  0.89065  1.0000
  H   H1152     1.0  0.52969  0.04055  0.91050  1.0000
  H   H1153     1.0  0.73538  0.29726  0.71541  1.0000
  C   C725      1.0  0.55651  0.02719  0.50827  1.0000
  H   H1154     1.0  0.50752  0.03536  0.95028  1.0000
  H   H1155     1.0  0.74245  0.27173  0.68260  1.0000
  H   H1156     1.0  0.70705  0.09199  0.76225  1.0000
  C   C726      1.0  0.60110  0.00896  0.49225  1.0000
  S   S295      1.0  0.62682  0.09423  0.49913  1.0000
  H   H1157     1.0  0.70339  0.27000  0.67491  1.0000
  H   H1158     1.0  0.73697  0.11787  0.75816  1.0000
  C   C727      1.0  0.72918  0.30338  0.69480  1.0000
  H   H1159     1.0  0.62802  0.10732  0.89681  1.0000
  H   H1160     1.0  0.73899  0.31152  0.68295  1.0000
  H   H1161     1.0  0.71112  0.14476  0.73348  1.0000
  C   C728      1.0  0.71409  0.29916  0.64671  1.0000
  H   H1162     1.0  0.71887  0.31240  0.70334  1.0000
  N   N73       1.0  0.61468  0.20159  0.63646  1.0000
  C   C729      1.0  0.63312  0.19987  0.62771  1.0000
  C   C730      1.0  0.60624  0.21482  0.61656  1.0000
  C   C731      1.0  0.61329  0.20688  0.66924  1.0000
  C   C732      1.0  0.60614  0.18478  0.63231  1.0000
  H   H1163     1.0  0.63986  0.19029  0.64278  1.0000
  H   H1164     1.0  0.64001  0.21232  0.63025  1.0000
  H   H1165     1.0  0.63478  0.19530  0.60344  1.0000
  H   H1166     1.0  0.59227  0.21645  0.62246  1.0000
  H   H1167     1.0  0.61243  0.22764  0.61922  1.0000
  H   H1168     1.0  0.60717  0.21121  0.59167  1.0000
  H   H1169     1.0  0.59957  0.20845  0.67674  1.0000
  H   H1170     1.0  0.61994  0.21934  0.67335  1.0000
  H   H1171     1.0  0.61953  0.19713  0.68489  1.0000
  H   H1172     1.0  0.59219  0.18550  0.63869  1.0000
  H   H1173     1.0  0.61230  0.17447  0.64687  1.0000
  H   H1174     1.0  0.60715  0.18025  0.60790  1.0000
  N   N74       1.0  0.63613  0.13039  0.91965  1.0000
  H   H1175     1.0  0.64778  0.14937  0.94880  1.0000
  C   C733      1.0  0.54706  0.04067  0.98272  1.0000
  H   H1176     1.0  0.52376  0.02179  0.52590  1.0000
  C   C734      1.0  0.53876  0.04420  0.92920  1.0000
  C   C735      1.0  0.53804  0.05254  0.51358  1.0000
  H   H1177     1.0  0.52820  0.01143  0.93576  1.0000
  H   H1178     1.0  0.55572  0.02471  0.53362  1.0000
  H   H1179     1.0  0.53479  0.00881  0.97552  1.0000
  H   H1180     1.0  0.60738  0.02125  0.49512  1.0000
  C   C736      1.0  0.53718  0.01619  0.95375  1.0000
  H   H1181     1.0  0.54918  0.06135  0.51064  1.0000
  H   H1182     1.0  0.61552  0.12717  0.95262  1.0000
  H   H1183     1.0  0.51362  0.03157  0.49253  1.0000
  H   H1184     1.0  0.56834  0.03485  0.50386  1.0000
  H   H1185     1.0  0.55859  0.01450  0.49666  1.0000
  N   N75       1.0  0.54082  0.03620  0.49651  1.0000
  H   H1186     1.0  0.51516  0.05322  0.97230  1.0000
  H   H1187     1.0  0.50329  0.09475  0.48969  1.0000
  C   C737      1.0  0.50030  0.08787  0.97235  1.0000
  H   H1188     1.0  0.54557  0.05478  0.98729  1.0000
  H   H1189     1.0  0.52732  0.01267  0.48813  1.0000
  Fe  Fe147     1.0  0.65457  0.35114  0.13919  1.0000
  S   S296      1.0  0.66863  0.36105  0.18104  1.0000
  S   S297      1.0  0.65126  0.36900  0.09710  1.0000
  Fe  Fe148     1.0  0.65203  0.34298  0.20917  1.0000
  S   S298      1.0  0.63915  0.34724  0.25716  1.0000
  C   C738      1.0  0.58431  0.48575  0.46940  1.0000
  H   H1190     1.0  0.59086  0.60440  0.30789  1.0000
  C   C739      1.0  0.61529  0.62681  0.29125  1.0000
  Fe  Fe149     1.0  0.59194  0.55548  0.04238  1.0000
  S   S299      1.0  0.57881  0.56947  0.00304  1.0000
  S   S300      1.0  0.59778  0.52620  0.04263  1.0000
  Fe  Fe150     1.0  0.58918  0.58753  0.08585  1.0000
  S   S301      1.0  0.57452  0.60251  0.04906  1.0000
  S   S302      1.0  0.59268  0.60270  0.13153  1.0000
  Fe  Fe151     1.0  0.55961  0.57841  0.03943  1.0000
  S   S303      1.0  0.53173  0.57297  0.02464  1.0000
  Fe  Fe152     1.0  0.59492  0.59231  0.01614  1.0000
  H   H1191     1.0  0.54423  0.47979  0.46928  1.0000
  S   S304      1.0  0.57249  0.56404  0.07864  1.0000
  S   S305      1.0  0.60983  0.57771  0.05312  1.0000
  Fe  Fe153     1.0  0.60512  0.40723  0.45721  1.0000
  S   S306      1.0  0.61121  0.42764  0.42135  1.0000
  H   H1192     1.0  0.62054  0.63852  0.12024  1.0000
  Fe  Fe154     1.0  0.56686  0.40738  0.43900  1.0000
  S   S307      1.0  0.57075  0.42725  0.40187  1.0000
  S   S308      1.0  0.54083  0.39544  0.45057  1.0000
  Fe  Fe155     1.0  0.59493  0.41192  0.38923  1.0000
  S   S309      1.0  0.60339  0.40761  0.33865  1.0000
  Fe  Fe156     1.0  0.58669  0.44108  0.43749  1.0000
  S   S310      1.0  0.58059  0.47021  0.43994  1.0000
  S   S311      1.0  0.58989  0.39102  0.42417  1.0000
  N   N76       1.0  0.63284  0.53904  0.47296  1.0000
  Fe  Fe157     1.0  0.65764  0.64752  0.26448  1.0000
  H   H1193     1.0  0.63617  0.61143  0.33263  1.0000
  S   S312      1.0  0.65241  0.63024  0.22188  1.0000
  H   H1194     1.0  0.64198  0.54017  0.42593  1.0000
  H   H1195     1.0  0.54088  0.49724  0.02411  1.0000
  Fe  Fe158     1.0  0.64874  0.65433  0.33211  1.0000
  S   S313      1.0  0.62643  0.64705  0.36421  1.0000
  S   S314      1.0  0.66566  0.63421  0.30901  1.0000
  H   H1196     1.0  0.52515  0.52747  0.08560  1.0000
  H   H1197     1.0  0.62289  0.65916  0.10171  1.0000
  C   C740      1.0  0.53122  0.53363  0.06502  1.0000
  H   H1198     1.0  0.61087  0.54047  0.44251  1.0000
  H   H1199     1.0  0.52625  0.49969  0.05638  1.0000
  C   C741      1.0  0.51999  0.40219  0.43748  1.0000
  C   C742      1.0  0.51777  0.41188  0.41028  1.0000
  H   H1200     1.0  0.62347  0.38764  0.38418  1.0000
  H   H1201     1.0  0.52894  0.41587  0.39708  1.0000
  H   H1202     1.0  0.59503  0.46594  0.00626  1.0000
  H   H1203     1.0  0.52428  0.37753  0.35180  1.0000
  H   H1204     1.0  0.62089  0.61153  0.08799  1.0000
  H   H1205     1.0  0.53846  0.54506  0.07320  1.0000
  H   H1206     1.0  0.65873  0.54021  0.45469  1.0000
  H   H1207     1.0  0.52038  0.59266  0.07950  1.0000
  C   C743      1.0  0.62617  0.60978  0.44777  1.0000
  C   C744      1.0  0.61110  0.61865  0.43871  1.0000
  C   C745      1.0  0.61148  0.63007  0.41319  1.0000
  C   C746      1.0  0.62689  0.63279  0.39651  1.0000
  C   C747      1.0  0.64195  0.62388  0.40553  1.0000
  C   C748      1.0  0.64158  0.61245  0.43109  1.0000
  H   H1208     1.0  0.59913  0.61670  0.45126  1.0000
  H   H1209     1.0  0.59975  0.63689  0.40631  1.0000
  H   H1210     1.0  0.65390  0.62584  0.39290  1.0000
  H   H1211     1.0  0.65333  0.60568  0.43795  1.0000
  C   C749      1.0  0.60963  0.61025  0.15607  1.0000
  C   C750      1.0  0.62683  0.60438  0.15357  1.0000
  C   C751      1.0  0.63966  0.61079  0.17361  1.0000
  C   C752      1.0  0.63563  0.62324  0.19641  1.0000
  C   C753      1.0  0.61848  0.62930  0.19859  1.0000
  C   C754      1.0  0.60561  0.62276  0.17878  1.0000
  H   H1212     1.0  0.63023  0.59468  0.13655  1.0000
  H   H1213     1.0  0.65283  0.60592  0.17161  1.0000
  H   H1214     1.0  0.61514  0.63914  0.21535  1.0000
  H   H1215     1.0  0.59242  0.62756  0.18088  1.0000
  H   H1216     1.0  0.62771  0.63357  0.29409  1.0000
  C   C755      1.0  0.59611  0.49256  0.02170  1.0000
  C   C756      1.0  0.59518  0.51020  0.01336  1.0000
  H   H1217     1.0  0.50800  0.43959  0.45322  1.0000
  S   S315      1.0  0.58850  0.38212  0.00347  1.0000
  H   H1218     1.0  0.54932  0.39649  0.34475  1.0000
  H   H1219     1.0  0.59849  0.48901  0.04560  1.0000
  C   C757      1.0  0.63056  0.60113  0.27399  1.0000
  H   H1220     1.0  0.57155  0.50625  0.44370  1.0000
  H   H1221     1.0  0.71650  0.38692  0.06120  1.0000
  C   C758      1.0  0.62899  0.36427  0.27896  1.0000
  C   C759      1.0  0.62834  0.38148  0.26872  1.0000
  C   C760      1.0  0.62037  0.39445  0.28718  1.0000
  C   C761      1.0  0.61293  0.39049  0.31617  1.0000
  C   C762      1.0  0.61335  0.37323  0.32625  1.0000
  C   C763      1.0  0.62142  0.36029  0.30789  1.0000
  H   H1222     1.0  0.63402  0.38482  0.24658  1.0000
  H   H1223     1.0  0.62004  0.40769  0.27891  1.0000
  H   H1224     1.0  0.60734  0.36977  0.34799  1.0000
  H   H1225     1.0  0.62171  0.34701  0.31597  1.0000
  C   C764      1.0  0.63343  0.37269  0.07190  1.0000
  C   C765      1.0  0.63583  0.38303  0.04535  1.0000
  C   C766      1.0  0.62219  0.38618  0.02436  1.0000
  C   C767      1.0  0.60598  0.37891  0.02959  1.0000
  C   C768      1.0  0.60358  0.36851  0.05609  1.0000
  C   C769      1.0  0.61716  0.36554  0.07729  1.0000
  H   H1226     1.0  0.64832  0.38869  0.04099  1.0000
  H   H1227     1.0  0.73663  0.66380  0.42343  1.0000
  H   H1228     1.0  0.59104  0.36298  0.06053  1.0000
  H   H1229     1.0  0.61494  0.35799  0.09803  1.0000
  N   N77       1.0  0.52825  0.45814  0.45849  1.0000
  C   C770      1.0  0.62746  0.61925  0.06974  1.0000
  H   H1230     1.0  0.63180  0.36592  0.38916  1.0000
  N   N78       1.0  0.65086  0.38581  0.39148  1.0000
  C   C771      1.0  0.66311  0.37571  0.41092  1.0000
  C   C772      1.0  0.65547  0.38373  0.35840  1.0000
  C   C773      1.0  0.65160  0.40430  0.39984  1.0000
  C   C774      1.0  0.63315  0.37954  0.39685  1.0000
  H   H1231     1.0  0.66276  0.36167  0.40537  1.0000
  H   H1232     1.0  0.65461  0.36999  0.35095  1.0000
  S   S316      1.0  0.68035  0.66534  0.26715  1.0000
  H   H1233     1.0  0.69856  0.40483  0.13445  1.0000
  H   H1234     1.0  0.57029  0.38986  0.35851  1.0000
  H   H1235     1.0  0.64574  0.51438  0.47938  1.0000
  H   H1236     1.0  0.64256  0.41230  0.38544  1.0000
  H   H1237     1.0  0.55098  0.50804  0.08956  1.0000
  H   H1238     1.0  0.64791  0.40635  0.42456  1.0000
  H   H1239     1.0  0.65989  0.37711  0.43603  1.0000
  C   C775      1.0  0.62371  0.60484  0.32826  1.0000
  H   H1240     1.0  0.54779  0.36942  0.31413  1.0000
  N   N79       1.0  0.54270  0.52139  0.04814  1.0000
  H   H1241     1.0  0.55083  0.34879  0.33297  1.0000
  H   H1242     1.0  0.59789  0.65229  0.06814  1.0000
  C   C776      1.0  0.53251  0.50671  0.03687  1.0000
  C   C777      1.0  0.55644  0.51487  0.06910  1.0000
  H   H1243     1.0  0.55900  0.52139  0.00760  1.0000
  H   H1244     1.0  0.64325  0.60761  0.27640  1.0000
  H   H1245     1.0  0.59605  0.60158  0.26759  1.0000
  H   H1246     1.0  0.64659  0.39145  0.34323  1.0000
  S   S317      1.0  0.60695  0.61455  0.98887  1.0000
  H   H1247     1.0  0.68124  0.39173  0.12025  1.0000
  H   H1248     1.0  0.50679  0.38931  0.47495  1.0000
  C   C778      1.0  0.50097  0.41597  0.39956  1.0000
  S   S318      1.0  0.63670  0.33446  0.16748  1.0000
  Fe  Fe159     1.0  0.68692  0.33835  0.17380  1.0000
  H   H1249     1.0  0.70978  0.35836  0.08457  1.0000
  H   H1250     1.0  0.52064  0.53874  0.04992  1.0000
  C   C779      1.0  0.63271  0.51992  0.47398  1.0000
  H   H1251     1.0  0.67664  0.38006  0.40754  1.0000
  H   H1252     1.0  0.62634  0.60328  0.24963  1.0000
  C   C780      1.0  0.73195  0.33921  0.14635  1.0000
  H   H1253     1.0  0.64434  0.64641  0.04630  1.0000
  H   H1254     1.0  0.52700  0.35655  0.36955  1.0000
  H   H1255     1.0  0.62424  0.39418  0.00409  1.0000
  N   N80       1.0  0.61763  0.60801  0.29628  1.0000
  C   C781      1.0  0.60093  0.59938  0.29157  1.0000
  H   H1256     1.0  0.66887  0.38806  0.35351  1.0000
  H   H1257     1.0  0.54072  0.53614  0.00577  1.0000
  H   H1258     1.0  0.52835  0.37570  0.39254  1.0000
  H   H1259     1.0  0.63287  0.58700  0.27723  1.0000
  H   H1260     1.0  0.55395  0.44939  0.47006  1.0000
  C   C782      1.0  0.62679  0.64527  0.10040  1.0000
  H   H1261     1.0  0.62959  0.38001  0.42181  1.0000
  H   H1262     1.0  0.55897  0.54104  0.02918  1.0000
  C   C783      1.0  0.51116  0.57729  0.04183  1.0000
  N   N81       1.0  0.70684  0.38291  0.10734  1.0000
  C   C784      1.0  0.69473  0.39134  0.12939  1.0000
  C   C785      1.0  0.70079  0.36532  0.10060  1.0000
  C   C786      1.0  0.72432  0.38182  0.12112  1.0000
  C   C787      1.0  0.70746  0.39304  0.07826  1.0000
  C   C788      1.0  0.54026  0.44541  0.47288  1.0000
  H   H1263     1.0  0.62577  0.59081  0.33301  1.0000
  H   H1264     1.0  0.69439  0.38418  0.15184  1.0000
  H   H1265     1.0  0.68777  0.36561  0.08973  1.0000
  H   H1266     1.0  0.60219  0.58516  0.29521  1.0000
  H   H1267     1.0  0.69978  0.35749  0.12217  1.0000
  H   H1268     1.0  0.73361  0.37459  0.10594  1.0000
  S   S319      1.0  0.71618  0.34258  0.17612  1.0000
  H   H1269     1.0  0.72966  0.39486  0.12533  1.0000
  C   C789      1.0  0.73191  0.65216  0.34785  1.0000
  H   H1270     1.0  0.71194  0.40643  0.08242  1.0000
  H   H1271     1.0  0.69444  0.39400  0.06733  1.0000
  H   H1272     1.0  0.56449  0.52560  0.07782  1.0000
  H   H1273     1.0  0.61428  0.61000  0.34563  1.0000
  H   H1274     1.0  0.62636  0.64151  0.02190  1.0000
  N   N82       1.0  0.62175  0.63758  0.07056  1.0000
  C   C790      1.0  0.53173  0.37006  0.36954  1.0000
  H   H1275     1.0  0.64166  0.61782  0.07332  1.0000
  C   C791      1.0  0.60272  0.63867  0.06731  1.0000
  C   C792      1.0  0.50913  0.58730  0.06850  1.0000
  H   H1276     1.0  0.66483  0.40946  0.39647  1.0000
  Fe  Fe160     1.0  0.68697  0.65377  0.31356  1.0000
  H   H1277     1.0  0.61511  0.56008  0.46316  1.0000
  H   H1278     1.0  0.72411  0.37491  0.14382  1.0000
  H   H1279     1.0  0.62846  0.51439  0.45156  1.0000
  H   H1280     1.0  0.62591  0.66095  0.04446  1.0000
  H   H1281     1.0  0.59609  0.63137  0.08612  1.0000
  C   C793      1.0  0.52525  0.35732  0.99014  1.0000
  H   H1282     1.0  0.56543  0.50572  0.05702  1.0000
  C   C794      1.0  0.51021  0.45258  0.46338  1.0000
  H   H1283     1.0  0.61052  0.62980  0.26754  1.0000
  H   H1284     1.0  0.64104  0.64433  0.10403  1.0000
  C   C795      1.0  0.53192  0.45931  0.42492  1.0000
  C   C796      1.0  0.57834  0.50288  0.46482  1.0000
  N   N83       1.0  0.55059  0.37066  0.36359  1.0000
  C   C797      1.0  0.55613  0.38885  0.36307  1.0000
  C   C798      1.0  0.74033  0.65995  0.40024  1.0000
  C   C799      1.0  0.55985  0.36117  0.38848  1.0000
  H   H1285     1.0  0.55330  0.39521  0.38559  1.0000
  S   S320      1.0  0.71622  0.64854  0.31844  1.0000
  C   C800      1.0  0.55466  0.36260  0.33339  1.0000
  H   H1286     1.0  0.55591  0.34740  0.38974  1.0000
  H   H1287     1.0  0.52214  0.51122  0.02078  1.0000
  H   H1288     1.0  0.53025  0.44663  0.41342  1.0000
  H   H1289     1.0  0.55711  0.36701  0.41160  1.0000
  H   H1290     1.0  0.57412  0.36134  0.38480  1.0000
  C   C801      1.0  0.53072  0.47527  0.47275  1.0000
  C   C802      1.0  0.62997  0.64707  0.04473  1.0000
  H   H1291     1.0  0.55994  0.35578  0.99551  1.0000
  C   C803      1.0  0.55066  0.53033  0.02145  1.0000
  H   H1292     1.0  0.71389  0.65972  0.38360  1.0000
  H   H1293     1.0  0.56880  0.36306  0.32813  1.0000
  H   H1294     1.0  0.60601  0.63264  0.30821  1.0000
  H   H1295     1.0  0.62443  0.61327  0.04708  1.0000
  H   H1296     1.0  0.59850  0.63314  0.04489  1.0000
  S   S321      1.0  0.58165  0.42172  0.47551  1.0000
  H   H1297     1.0  0.54546  0.46340  0.42042  1.0000
  H   H1298     1.0  0.64568  0.55935  0.44815  1.0000
  H   H1299     1.0  0.52312  0.46883  0.41329  1.0000
  H   H1300     1.0  0.57625  0.52880  0.48340  1.0000
  C   C804      1.0  0.50525  0.39693  0.45401  1.0000
  H   H1301     1.0  0.52955  0.35792  0.01468  1.0000
  C   C805      1.0  0.72738  0.65765  0.37767  1.0000
  C   C806      1.0  0.64538  0.54493  0.44937  1.0000
  C   C807      1.0  0.61539  0.54570  0.46495  1.0000
  C   C808      1.0  0.74958  0.64949  0.34078  1.0000
  H   H1302     1.0  0.53904  0.43240  0.46229  1.0000
  S   S322      1.0  0.62643  0.59541  0.47994  1.0000
  H   H1303     1.0  0.60577  0.54201  0.48290  1.0000
  H   H1304     1.0  0.52185  0.48524  0.46254  1.0000
  H   H1305     1.0  0.63687  0.33426  0.09583  1.0000
  S   S323      1.0  0.62896  0.39530  0.48047  1.0000
  H   H1306     1.0  0.54666  0.38440  0.00112  1.0000
  C   C809      1.0  0.59415  0.47941  0.99941  1.0000
  H   H1307     1.0  0.50075  0.46174  0.45245  1.0000
  C   C810      1.0  0.74905  0.34459  0.15118  1.0000
  H   H1308     1.0  0.63777  0.33867  0.03849  1.0000
  H   H1309     1.0  0.51251  0.36425  0.98856  1.0000
  C   C811      1.0  0.58104  0.51574  0.48729  1.0000
  H   H1310     1.0  0.73708  0.64738  0.91637  1.0000
  S   S324      1.0  0.67047  0.36279  0.68041  1.0000
  C   C812      1.0  0.59147  0.48374  0.96826  1.0000
  S   S325      1.0  0.67059  0.66349  0.84538  1.0000
  H   H1311     1.0  0.60557  0.38308  0.65328  1.0000
  H   H1312     1.0  0.74107  0.33946  0.55855  1.0000
  C   C813      1.0  0.72843  0.65400  0.87019  1.0000
  H   H1313     1.0  0.58622  0.38229  0.67636  1.0000
  Fe  Fe161     1.0  0.58928  0.55681  0.54142  1.0000
  C   C814      1.0  0.74500  0.34048  0.58249  1.0000
  S   S326      1.0  0.59479  0.52760  0.54284  1.0000
  Fe  Fe162     1.0  0.59278  0.59076  0.57996  1.0000
  S   S327      1.0  0.58587  0.60697  0.53822  1.0000
  S   S328      1.0  0.59475  0.60592  0.62573  1.0000
  Fe  Fe163     1.0  0.56495  0.58750  0.52963  1.0000
  S   S329      1.0  0.53845  0.59867  0.51631  1.0000
  Fe  Fe164     1.0  0.60329  0.58923  0.51071  1.0000
  C   C815      1.0  0.53724  0.62555  0.63865  1.0000
  S   S330      1.0  0.57098  0.57199  0.57252  1.0000
  S   S331      1.0  0.61156  0.57412  0.55301  1.0000
  Fe  Fe165     1.0  0.58783  0.40112  0.96273  1.0000
  S   S332      1.0  0.60786  0.41824  0.94059  1.0000
  H   H1314     1.0  0.62690  0.45202  0.93477  1.0000
  Fe  Fe166     1.0  0.55966  0.41143  0.91708  1.0000
  S   S333      1.0  0.57742  0.42911  0.89114  1.0000
  S   S334      1.0  0.53251  0.40524  0.89966  1.0000
  Fe  Fe167     1.0  0.59817  0.40831  0.89460  1.0000
  S   S335      1.0  0.61719  0.40612  0.85301  1.0000
  Fe  Fe168     1.0  0.58630  0.43835  0.93791  1.0000
  S   S336      1.0  0.58999  0.46782  0.93856  1.0000
  S   S337      1.0  0.57966  0.38980  0.91709  1.0000
  S   S338      1.0  0.56694  0.42201  0.96349  1.0000
  Fe  Fe169     1.0  0.65898  0.64799  0.76128  1.0000
  S   S339      1.0  0.63877  0.65519  0.79699  1.0000
  S   S340      1.0  0.65491  0.63426  0.71421  1.0000
  C   C816      1.0  0.63273  0.61796  0.55973  1.0000
  H   H1315     1.0  0.53772  0.44393  0.49813  1.0000
  Fe  Fe170     1.0  0.65546  0.64027  0.83087  1.0000
  S   S341      1.0  0.64511  0.61689  0.85739  1.0000
  S   S342      1.0  0.67535  0.63252  0.79494  1.0000
  H   H1316     1.0  0.65033  0.64497  0.58146  1.0000
  Fe  Fe171     1.0  0.65963  0.34262  0.71264  1.0000
  H   H1317     1.0  0.50408  0.61028  0.50013  1.0000
  H   H1318     1.0  0.61718  0.62949  0.50793  1.0000
  H   H1319     1.0  0.63395  0.37916  0.67716  1.0000
  C   C817      1.0  0.51162  0.40896  0.91616  1.0000
  H   H1320     1.0  0.65790  0.43912  0.89557  1.0000
  C   C818      1.0  0.50930  0.41636  0.94541  1.0000
  H   H1321     1.0  0.62661  0.61944  0.80103  1.0000
  H   H1322     1.0  0.52042  0.42059  0.95826  1.0000
  C   C819      1.0  0.51770  0.59078  0.52689  1.0000
  H   H1323     1.0  0.61591  0.58747  0.94378  1.0000
  H   H1324     1.0  0.65801  0.46971  0.87721  1.0000
  H   H1325     1.0  0.52708  0.56989  0.55577  1.0000
  H   H1326     1.0  0.55291  0.59660  0.61830  1.0000
  C   C820      1.0  0.61733  0.61482  0.95207  1.0000
  C   C821      1.0  0.62018  0.59978  0.93480  1.0000
  C   C822      1.0  0.62871  0.60067  0.90588  1.0000
  C   C823      1.0  0.63443  0.61657  0.89391  1.0000
  C   C824      1.0  0.63152  0.63161  0.91113  1.0000
  C   C825      1.0  0.62304  0.63071  0.94007  1.0000
  H   H1327     1.0  0.51951  0.37204  0.93395  1.0000
  H   H1328     1.0  0.63095  0.58896  0.89282  1.0000
  H   H1329     1.0  0.63582  0.64392  0.90220  1.0000
  C   C826      1.0  0.55475  0.35546  0.97148  1.0000
  C   C827      1.0  0.61177  0.61372  0.64984  1.0000
  C   C828      1.0  0.60746  0.62416  0.67552  1.0000
  C   C829      1.0  0.62037  0.63069  0.69526  1.0000
  C   C830      1.0  0.63789  0.62687  0.68969  1.0000
  C   C831      1.0  0.64219  0.61641  0.66402  1.0000
  C   C832      1.0  0.62928  0.60983  0.64434  1.0000
  H   H1330     1.0  0.59401  0.62732  0.68014  1.0000
  H   H1331     1.0  0.61674  0.63884  0.71459  1.0000
  H   H1332     1.0  0.65566  0.61322  0.65953  1.0000
  H   H1333     1.0  0.63290  0.60155  0.62522  1.0000
  C   C833      1.0  0.58988  0.51165  0.51466  1.0000
  C   C834      1.0  0.59574  0.49448  0.51933  1.0000
  S   S343      1.0  0.64508  0.34684  0.75930  1.0000
  H   H1334     1.0  0.63585  0.37375  0.71723  1.0000
  H   H1335     1.0  0.64565  0.46366  0.84391  1.0000
  H   H1336     1.0  0.60829  0.64080  0.54072  1.0000
  H   H1337     1.0  0.60258  0.49113  0.54041  1.0000
  H   H1338     1.0  0.71861  0.34185  0.59980  1.0000
  H   H1339     1.0  0.58851  0.50495  0.93594  1.0000
  H   H1340     1.0  0.61005  0.46555  0.87580  1.0000
  C   C835      1.0  0.63773  0.36360  0.78523  1.0000
  C   C836      1.0  0.64257  0.38092  0.78206  1.0000
  C   C837      1.0  0.63611  0.39363  0.80285  1.0000
  C   C838      1.0  0.62466  0.38936  0.82719  1.0000
  C   C839      1.0  0.61974  0.37207  0.83023  1.0000
  C   C840      1.0  0.62625  0.35935  0.80951  1.0000
  H   H1341     1.0  0.65151  0.38451  0.76389  1.0000
  H   H1342     1.0  0.64014  0.40688  0.80017  1.0000
  H   H1343     1.0  0.61101  0.36844  0.84872  1.0000
  H   H1344     1.0  0.62235  0.34606  0.81237  1.0000
  C   C841      1.0  0.63251  0.37269  0.57934  1.0000
  C   C842      1.0  0.61699  0.38049  0.56890  1.0000
  C   C843      1.0  0.61565  0.38736  0.53868  1.0000
  C   C844      1.0  0.62988  0.38659  0.51860  1.0000
  C   C845      1.0  0.64540  0.37878  0.52901  1.0000
  C   C846      1.0  0.64672  0.37182  0.55920  1.0000
  H   H1345     1.0  0.60592  0.38121  0.58426  1.0000
  H   H1346     1.0  0.60364  0.39332  0.53101  1.0000
  H   H1347     1.0  0.52995  0.59303  0.62084  1.0000
  H   H1348     1.0  0.65873  0.36589  0.56693  1.0000
  C   C847      1.0  0.73219  0.34184  0.60588  1.0000
  H   H1349     1.0  0.50928  0.61573  0.60528  1.0000
  H   H1350     1.0  0.65650  0.37813  0.51368  1.0000
  H   H1351     1.0  0.61782  0.44835  0.85081  1.0000
  H   H1352     1.0  0.62951  0.39530  0.70591  1.0000
  H   H1353     1.0  0.53489  0.63980  0.63897  1.0000
  H   H1354     1.0  0.54029  0.59443  0.58380  1.0000
  H   H1355     1.0  0.52928  0.35089  0.92953  1.0000
  H   H1356     1.0  0.62086  0.64243  0.95318  1.0000
  C   C848      1.0  0.51577  0.57683  0.54731  1.0000
  H   H1357     1.0  0.64532  0.43313  0.86238  1.0000
  H   H1358     1.0  0.61389  0.35408  0.67202  1.0000
  C   C849      1.0  0.61761  0.45316  0.87507  1.0000
  H   H1359     1.0  0.60077  0.40010  0.68026  1.0000
  H   H1360     1.0  0.52713  0.61947  0.65336  1.0000
  H   H1361     1.0  0.62947  0.62287  0.76030  1.0000
  C   C850      1.0  0.53176  0.36438  0.93684  1.0000
  H   H1362     1.0  0.55061  0.62228  0.56379  1.0000
  Fe  Fe172     1.0  0.65493  0.34969  0.64330  1.0000
  H   H1363     1.0  0.66259  0.62949  0.53582  1.0000
  N   N84       1.0  0.60969  0.37625  0.70103  1.0000
  C   C851      1.0  0.60855  0.35749  0.69523  1.0000
  C   C852      1.0  0.62803  0.38138  0.70034  1.0000
  C   C853      1.0  0.60215  0.38021  0.73176  1.0000
  C   C854      1.0  0.60010  0.38589  0.67672  1.0000
  C   C855      1.0  0.61997  0.63947  0.52568  1.0000
  C   C856      1.0  0.51985  0.62244  0.59265  1.0000
  H   H1364     1.0  0.64411  0.61405  0.57401  1.0000
  C   C857      1.0  0.74068  0.65309  0.89438  1.0000
  C   C858      1.0  0.50276  0.59946  0.51590  1.0000
  H   H1365     1.0  0.65091  0.54097  0.51050  1.0000
  H   H1366     1.0  0.62123  0.61854  0.57542  1.0000
  H   H1367     1.0  0.60888  0.37273  0.75038  1.0000
  H   H1368     1.0  0.58822  0.37685  0.73294  1.0000
  H   H1369     1.0  0.65308  0.64555  0.51054  1.0000
  Fe  Fe173     1.0  0.68919  0.65694  0.80700  1.0000
  H   H1370     1.0  0.61599  0.34982  0.71279  1.0000
  C   C859      1.0  0.63414  0.46122  0.91985  1.0000
  H   H1371     1.0  0.63057  0.60746  0.54276  1.0000
  H   H1372     1.0  0.59494  0.35307  0.69601  1.0000
  N   N85       1.0  0.53812  0.36509  0.96905  1.0000
  S   S344      1.0  0.63341  0.36459  0.61789  1.0000
  H   H1373     1.0  0.60327  0.39416  0.73750  1.0000
  N   N86       1.0  0.63525  0.45513  0.88748  1.0000
  C   C860      1.0  0.63865  0.64815  0.56735  1.0000
  H   H1374     1.0  0.63768  0.42827  0.90039  1.0000
  H   H1375     1.0  0.63790  0.48073  0.86873  1.0000
  C   C861      1.0  0.55059  0.62708  0.58807  1.0000
  H   H1376     1.0  0.52824  0.47486  0.49816  1.0000
  H   H1377     1.0  0.62753  0.64947  0.58376  1.0000
  H   H1378     1.0  0.64717  0.46280  0.93017  1.0000
  C   C862      1.0  0.59052  0.50139  0.95993  1.0000
  N   N87       1.0  0.53694  0.61876  0.60674  1.0000
  C   C863      1.0  0.59297  0.48160  0.49690  1.0000
  H   H1379     1.0  0.64069  0.66102  0.55635  1.0000
  H   H1380     1.0  0.54131  0.36992  0.92025  1.0000
  S   S345      1.0  0.72140  0.34616  0.66741  1.0000
  C   C864      1.0  0.65062  0.63316  0.52295  1.0000
  C   C865      1.0  0.73696  0.34369  0.63690  1.0000
  H   H1381     1.0  0.61029  0.44365  0.88896  1.0000
  H   H1382     1.0  0.51673  0.63653  0.59240  1.0000
  H   H1383     1.0  0.71558  0.64897  0.87368  1.0000
  N   N88       1.0  0.63550  0.63470  0.54393  1.0000
  C   C866      1.0  0.64464  0.46788  0.86847  1.0000
  Fe  Fe174     1.0  0.69174  0.34322  0.66819  1.0000
  H   H1384     1.0  0.61093  0.58967  0.74123  1.0000
  H   H1385     1.0  0.55341  0.34169  0.96473  1.0000
  H   H1386     1.0  0.62709  0.47389  0.92146  1.0000
  H   H1387     1.0  0.54945  0.38979  0.96107  1.0000
  C   C867      1.0  0.64451  0.43823  0.88645  1.0000
  S   S346      1.0  0.58191  0.57124  0.49805  1.0000
  H   H1388     1.0  0.56370  0.62432  0.59779  1.0000
  H   H1389     1.0  0.59761  0.46849  0.50086  1.0000
  H   H1390     1.0  0.62166  0.65195  0.51313  1.0000
  H   H1391     1.0  0.63086  0.59712  0.72493  1.0000
  H   H1392     1.0  0.62985  0.57576  0.74111  1.0000
  C   C868      1.0  0.54071  0.38331  0.97778  1.0000
  H   H1393     1.0  0.64860  0.62311  0.50496  1.0000
  S   S347      1.0  0.71847  0.66169  0.80945  1.0000
  N   N89       1.0  0.63031  0.59621  0.77462  1.0000
  C   C869      1.0  0.62305  0.58538  0.79967  1.0000
  C   C870      1.0  0.64939  0.59609  0.77687  1.0000
  C   C871      1.0  0.62360  0.61412  0.77782  1.0000
  C   C872      1.0  0.62523  0.58935  0.74416  1.0000
  H   H1394     1.0  0.60866  0.58530  0.79885  1.0000
  H   H1395     1.0  0.62672  0.59033  0.82292  1.0000
  H   H1396     1.0  0.62788  0.57178  0.79819  1.0000
  H   H1397     1.0  0.65529  0.60447  0.75872  1.0000
  H   H1398     1.0  0.65367  0.60100  0.79973  1.0000
  H   H1399     1.0  0.65497  0.58283  0.77418  1.0000
  H   H1400     1.0  0.60932  0.61490  0.77501  1.0000
  H   H1401     1.0  0.56483  0.36124  0.95627  1.0000
  H   H1402     1.0  0.52307  0.34351  0.98443  1.0000
  H   H1403     1.0  0.59156  0.52800  0.97539  1.0000
  H   H1404     1.0  0.55002  0.62294  0.64979  1.0000
  C   C873      1.0  0.54017  0.59987  0.60756  1.0000
  H   H1405     1.0  0.54868  0.64136  0.58706  1.0000
  H   H1406     1.0  0.51946  0.61795  0.56821  1.0000
  C   C874      1.0  0.73297  0.66105  0.84144  1.0000
  C   C875      1.0  0.59224  0.51453  0.98229  1.0000
  C   C876      1.0  0.63779  0.54570  0.50364  1.0000
  H   H1407     1.0  0.52829  0.39078  0.97786  1.0000
  H   H1408     1.0  0.63786  0.56011  0.50375  1.0000
  H   H1409     1.0  0.62856  0.54147  0.52198  1.0000
  H   H1410     1.0  0.62365  0.51516  0.49214  1.0000
  H   H1411     1.0  0.50693  0.45168  0.48846  1.0000
  C   C877      1.0  0.69205  0.86812  0.17503  1.0000
  Fe  Fe175     1.0  0.66343  0.68415  0.29369  1.0000
  S   S348      1.0  0.66865  0.71205  0.27813  1.0000
  C   C878      1.0  0.68410  0.88331  0.22181  1.0000
  Fe  Fe176     1.0  0.58874  0.94209  0.03984  1.0000
  H   H1412     1.0  0.63343  0.91723  0.42888  1.0000
  S   S349      1.0  0.58982  0.97172  0.04072  1.0000
  Fe  Fe177     1.0  0.59873  0.90909  0.07827  1.0000
  S   S350      1.0  0.59017  0.89141  0.03975  1.0000
  S   S351      1.0  0.60905  0.90260  0.12747  1.0000
  Fe  Fe178     1.0  0.60332  0.90992  0.00707  1.0000
  C   C879      1.0  0.63474  0.95637  0.46450  1.0000
  Fe  Fe179     1.0  0.56681  0.90943  0.03517  1.0000
  S   S352      1.0  0.54067  0.89779  0.02254  1.0000
  S   S353      1.0  0.61339  0.92650  0.04557  1.0000
  S   S354      1.0  0.57446  0.92604  0.07534  1.0000
  Fe  Fe180     1.0  0.65421  0.85184  0.33030  1.0000
  S   S355      1.0  0.67214  0.86164  0.29276  1.0000
  S   S356      1.0  0.63632  0.87022  0.35738  1.0000
  Fe  Fe181     1.0  0.66014  0.81392  0.31249  1.0000
  S   S357      1.0  0.67808  0.82097  0.27354  1.0000
  S   S358      1.0  0.65075  0.78774  0.33064  1.0000
  Fe  Fe182     1.0  0.68998  0.83956  0.30730  1.0000
  S   S359      1.0  0.71970  0.84032  0.30460  1.0000
  Fe  Fe183     1.0  0.65913  0.84267  0.26142  1.0000
  S   S360      1.0  0.65229  0.84697  0.20981  1.0000
  S   S361      1.0  0.67301  0.83129  0.34716  1.0000
  S   S362      1.0  0.64033  0.83409  0.29792  1.0000
  C   C880      1.0  0.62936  0.81925  0.38239  1.0000
  C   C881      1.0  0.73562  0.84352  0.33384  1.0000
  C   C882      1.0  0.73131  0.84941  0.36352  1.0000
  C   C883      1.0  0.71753  0.72241  0.30125  1.0000
  C   C884      1.0  0.58497  0.97689  0.48558  1.0000
  H   H1413     1.0  0.71788  0.85184  0.36949  1.0000
  C   C885      1.0  0.51960  0.90525  0.03390  1.0000
  C   C886      1.0  0.51710  0.91933  0.05374  1.0000
  H   H1414     1.0  0.68786  0.84864  0.22603  1.0000
  H   H1415     1.0  0.52821  0.92599  0.06269  1.0000
  H   H1416     1.0  0.64332  0.85705  0.46885  1.0000
  C   C887      1.0  0.62284  0.87584  0.46099  1.0000
  C   C888      1.0  0.61381  0.88535  0.43847  1.0000
  C   C889      1.0  0.61822  0.88351  0.40692  1.0000
  C   C890      1.0  0.63162  0.87212  0.39751  1.0000
  C   C891      1.0  0.64062  0.86258  0.42003  1.0000
  C   C892      1.0  0.63621  0.86442  0.45159  1.0000
  H   H1417     1.0  0.58662  0.81202  0.39433  1.0000
  H   H1418     1.0  0.61111  0.89087  0.38962  1.0000
  H   H1419     1.0  0.65109  0.85394  0.41317  1.0000
  C   C893      1.0  0.63117  0.96882  0.99777  1.0000
  C   C894      1.0  0.62109  0.88683  0.14977  1.0000
  C   C895      1.0  0.62296  0.88933  0.18194  1.0000
  C   C896      1.0  0.63228  0.87732  0.20068  1.0000
  C   C897      1.0  0.63998  0.86255  0.18755  1.0000
  C   C898      1.0  0.63828  0.86012  0.15535  1.0000
  C   C899      1.0  0.62889  0.87209  0.13664  1.0000
  H   H1420     1.0  0.61701  0.90062  0.19250  1.0000
  H   H1421     1.0  0.63338  0.87949  0.22530  1.0000
  H   H1422     1.0  0.64413  0.84879  0.14476  1.0000
  H   H1423     1.0  0.62765  0.86989  0.11205  1.0000
  C   C900      1.0  0.70707  0.69831  0.33116  1.0000
  C   C901      1.0  0.58846  0.98719  0.01008  1.0000
  H   H1424     1.0  0.69353  0.70156  0.32433  1.0000
  H   H1425     1.0  0.70402  0.85878  0.24912  1.0000
  H   H1426     1.0  0.71855  0.88493  0.22942  1.0000
  C   C902      1.0  0.66364  0.73288  0.29368  1.0000
  C   C903      1.0  0.65382  0.73518  0.32071  1.0000
  C   C904      1.0  0.65009  0.75202  0.33174  1.0000
  C   C905      1.0  0.65619  0.76677  0.31608  1.0000
  C   C906      1.0  0.66620  0.76445  0.28930  1.0000
  C   C907      1.0  0.66985  0.74763  0.27818  1.0000
  H   H1427     1.0  0.64893  0.72401  0.33290  1.0000
  H   H1428     1.0  0.64233  0.75363  0.35246  1.0000
  H   H1429     1.0  0.67093  0.77562  0.27689  1.0000
  H   H1430     1.0  0.67737  0.74606  0.25717  1.0000
  H   H1431     1.0  0.61247  0.84079  0.34337  1.0000
  H   H1432     1.0  0.61368  0.79296  0.35430  1.0000
  H   H1433     1.0  0.70258  0.69709  0.26945  1.0000
  H   H1434     1.0  0.71698  0.67992  0.28147  1.0000
  H   H1435     1.0  0.62792  0.96267  0.48437  1.0000
  N   N90       1.0  0.62840  0.93867  0.45938  1.0000
  H   H1436     1.0  0.63877  0.93471  0.99745  1.0000
  C   C908      1.0  0.60969  0.93950  0.45252  1.0000
  H   H1437     1.0  0.70955  0.70488  0.35350  1.0000
  C   C909      1.0  0.73727  0.69941  0.31723  1.0000
  H   H1438     1.0  0.64330  0.97344  0.00843  1.0000
  H   H1439     1.0  0.74094  0.85769  0.40784  1.0000
  H   H1440     1.0  0.70789  0.68412  0.33554  1.0000
  H   H1441     1.0  0.60450  0.92644  0.44785  1.0000
  H   H1442     1.0  0.60227  0.94496  0.47242  1.0000
  H   H1443     1.0  0.50667  0.88580  0.00738  1.0000
  H   H1444     1.0  0.60688  0.94785  0.43201  1.0000
  H   H1445     1.0  0.70414  0.72583  0.29339  1.0000
  C   C910      1.0  0.74445  0.85273  0.38525  1.0000
  H   H1446     1.0  0.71994  0.72993  0.32264  1.0000
  C   C911      1.0  0.58190  0.99048  0.46414  1.0000
  H   H1447     1.0  0.57316  0.98851  0.44504  1.0000
  H   H1448     1.0  0.61684  0.81004  0.32714  1.0000
  H   H1449     1.0  0.60494  0.79972  0.40845  1.0000
  C   C912      1.0  0.70000  0.85615  0.22488  1.0000
  H   H1450     1.0  0.67153  0.87655  0.22346  1.0000
  C   C913      1.0  0.71402  0.88172  0.20569  1.0000
  C   C914      1.0  0.60488  0.83595  0.36351  1.0000
  H   H1451     1.0  0.60174  0.82186  0.42006  1.0000
  H   H1452     1.0  0.63130  0.82812  0.40222  1.0000
  S   S363      1.0  0.67055  0.67293  0.34031  1.0000
  H   H1453     1.0  0.60331  0.89395  0.44530  1.0000
  H   H1454     1.0  0.59104  0.83597  0.35655  1.0000
  H   H1455     1.0  0.72443  0.87382  0.19444  1.0000
  H   H1456     1.0  0.59534  0.80532  0.34013  1.0000
  S   S364      1.0  0.64014  0.66725  0.28736  1.0000
  H   H1457     1.0  0.71010  0.84756  0.21441  1.0000
  C   C915      1.0  0.60059  0.81276  0.40028  1.0000
  N   N91       1.0  0.69754  0.87232  0.20684  1.0000
  H   H1458     1.0  0.63464  0.80623  0.38882  1.0000
  C   C916      1.0  0.60903  0.80619  0.34769  1.0000
  N   N92       1.0  0.61096  0.81854  0.37344  1.0000
  H   H1459     1.0  0.62394  0.96164  0.01602  1.0000
  H   H1460     1.0  0.68785  0.88689  0.24576  1.0000
  H   H1461     1.0  0.60633  0.84562  0.38230  1.0000
  H   H1462     1.0  0.67964  0.86098  0.17512  1.0000
  C   C917      1.0  0.50494  0.89672  0.02268  1.0000
  H   H1463     1.0  0.70181  0.85980  0.16300  1.0000
  C   C918      1.0  0.71589  0.69419  0.27798  1.0000
  H   H1464     1.0  0.63743  0.82404  0.36295  1.0000
  H   H1465     1.0  0.62314  0.98042  0.99159  1.0000
  H   H1466     1.0  0.68989  0.88001  0.16081  1.0000
  H   H1467     1.0  0.71264  0.89406  0.19246  1.0000
  H   H1468     1.0  0.63569  0.93817  0.41125  1.0000
  H   H1469     1.0  0.68165  0.89547  0.20850  1.0000
  C   C919      1.0  0.63779  0.93068  0.43304  1.0000
  N   N93       1.0  0.71947  0.70360  0.30690  1.0000
  S   S365      1.0  0.57952  0.92659  0.99976  1.0000
  H   H1470     1.0  0.65198  0.92997  0.43733  1.0000
  H   H1471     1.0  0.63256  0.96480  0.44385  1.0000
  H   H1472     1.0  0.73904  0.68524  0.32131  1.0000
  H   H1473     1.0  0.72661  0.72691  0.28298  1.0000
  H   H1474     1.0  0.72506  0.69775  0.25918  1.0000
  H   H1475     1.0  0.58451  0.86145  0.99016  1.0000
  H   H1476     1.0  0.57848  0.96470  0.48296  1.0000
  H   H1477     1.0  0.62620  0.91482  0.48499  1.0000
  H   H1478     1.0  0.65804  0.94665  0.98967  1.0000
  H   H1479     1.0  0.74034  0.70598  0.33935  1.0000
  H   H1480     1.0  0.64882  0.95629  0.46980  1.0000
  H   H1481     1.0  0.74703  0.70331  0.29963  1.0000
  H   H1482     1.0  0.56379  0.86869  0.00449  1.0000
  C   C920      1.0  0.50020  0.92467  0.06239  1.0000
  C   C921      1.0  0.63130  0.92813  0.48760  1.0000
  H   H1483     1.0  0.62037  0.94276  0.93797  1.0000
  Fe  Fe184     1.0  0.65568  0.67801  0.80828  1.0000
  S   S366      1.0  0.64625  0.70487  0.82362  1.0000
  H   H1484     1.0  0.61346  0.99713  0.53207  1.0000
  Fe  Fe185     1.0  0.59241  0.93430  0.54456  1.0000
  S   S367      1.0  0.58162  0.91787  0.50682  1.0000
  S   S368      1.0  0.60227  0.96191  0.53631  1.0000
  Fe  Fe186     1.0  0.59083  0.90432  0.59320  1.0000
  S   S369      1.0  0.57916  0.88654  0.55791  1.0000
  S   S370      1.0  0.59464  0.89197  0.64180  1.0000
  Fe  Fe187     1.0  0.59921  0.89667  0.52482  1.0000
  C   C922      1.0  0.63953  0.84136  0.58375  1.0000
  Fe  Fe188     1.0  0.56232  0.90922  0.54329  1.0000
  S   S371      1.0  0.53423  0.90835  0.52599  1.0000
  S   S372      1.0  0.61149  0.91354  0.56058  1.0000
  S   S373      1.0  0.57252  0.92661  0.58052  1.0000
  Fe  Fe189     1.0  0.65400  0.83585  0.84013  1.0000
  S   S374      1.0  0.67123  0.85564  0.81760  1.0000
  S   S375      1.0  0.63815  0.83890  0.88478  1.0000
  Fe  Fe190     1.0  0.66332  0.80749  0.79349  1.0000
  S   S376      1.0  0.68077  0.82571  0.76786  1.0000
  S   S377      1.0  0.66368  0.78043  0.77172  1.0000
  Fe  Fe191     1.0  0.69088  0.83369  0.81435  1.0000
  S   S378      1.0  0.72070  0.83383  0.81547  1.0000
  Fe  Fe192     1.0  0.65990  0.84622  0.77238  1.0000
  S   S379      1.0  0.65669  0.86475  0.73019  1.0000
  S   S380      1.0  0.67445  0.81446  0.83966  1.0000
  S   S381      1.0  0.64160  0.82750  0.79519  1.0000
  H   H1485     1.0  0.61598  0.87831  0.59436  1.0000
  C   C923      1.0  0.73653  0.83901  0.84372  1.0000
  C   C924      1.0  0.73218  0.84643  0.87223  1.0000
  H   H1486     1.0  0.58200  0.96920  0.97436  1.0000
  C   C925      1.0  0.69760  0.70014  0.85921  1.0000
  H   H1487     1.0  0.71872  0.84890  0.87800  1.0000
  C   C926      1.0  0.51375  0.90535  0.54431  1.0000
  C   C927      1.0  0.51189  0.90324  0.57637  1.0000
  H   H1488     1.0  0.70290  0.68697  0.85407  1.0000
  H   H1489     1.0  0.52325  0.90326  0.59093  1.0000
  H   H1490     1.0  0.70232  0.70384  0.88250  1.0000
  C   C928      1.0  0.62523  0.88754  0.94240  1.0000
  C   C929      1.0  0.62162  0.87102  0.95377  1.0000
  C   C930      1.0  0.62585  0.85629  0.93594  1.0000
  C   C931      1.0  0.63382  0.85788  0.90670  1.0000
  C   C932      1.0  0.63763  0.87441  0.89554  1.0000
  C   C933      1.0  0.63335  0.88914  0.91331  1.0000
  C   C934      1.0  0.57036  0.86143  0.98540  1.0000
  H   H1491     1.0  0.62302  0.84354  0.94489  1.0000
  H   H1492     1.0  0.64372  0.87583  0.87308  1.0000
  H   H1493     1.0  0.63626  0.90186  0.90433  1.0000
  C   C935      1.0  0.61212  0.88500  0.66649  1.0000
  C   C936      1.0  0.60855  0.87404  0.69189  1.0000
  C   C937      1.0  0.62190  0.86764  0.71144  1.0000
  C   C938      1.0  0.63913  0.87222  0.70615  1.0000
  C   C939      1.0  0.64269  0.88324  0.68080  1.0000
  C   C940      1.0  0.62935  0.88957  0.66116  1.0000
  H   H1494     1.0  0.59532  0.87041  0.69647  1.0000
  H   H1495     1.0  0.61883  0.85926  0.73078  1.0000
  H   H1496     1.0  0.65590  0.88704  0.67648  1.0000
  H   H1497     1.0  0.63238  0.89819  0.64217  1.0000
  H   H1498     1.0  0.71973  0.90759  0.76918  1.0000
  C   C941      1.0  0.58487  0.99513  0.95574  1.0000
  C   C942      1.0  0.69651  0.70706  0.80473  1.0000
  C   C943      1.0  0.58482  0.98253  0.97957  1.0000
  H   H1499     1.0  0.71750  0.89122  0.81886  1.0000
  C   C944      1.0  0.65100  0.72578  0.80853  1.0000
  C   C945      1.0  0.65877  0.72812  0.77952  1.0000
  C   C946      1.0  0.66262  0.74492  0.76883  1.0000
  C   C947      1.0  0.65884  0.75960  0.78697  1.0000
  C   C948      1.0  0.65118  0.75726  0.81608  1.0000
  C   C949      1.0  0.64716  0.74046  0.82664  1.0000
  H   H1500     1.0  0.66159  0.71703  0.76508  1.0000
  H   H1501     1.0  0.66841  0.74659  0.74619  1.0000
  H   H1502     1.0  0.64809  0.76841  0.83022  1.0000
  H   H1503     1.0  0.64107  0.73885  0.84906  1.0000
  H   H1504     1.0  0.68072  0.72928  0.84432  1.0000
  N   N94       1.0  0.71429  0.88049  0.77337  1.0000
  C   C950      1.0  0.71181  0.89749  0.75804  1.0000
  C   C951      1.0  0.70335  0.86763  0.75803  1.0000
  C   C952      1.0  0.70930  0.88188  0.80637  1.0000
  C   C953      1.0  0.73267  0.87497  0.77101  1.0000
  S   S382      1.0  0.67467  0.67203  0.77005  1.0000
  H   H1505     1.0  0.70512  0.85457  0.76857  1.0000
  H   H1506     1.0  0.61048  0.94491  0.97533  1.0000
  H   H1507     1.0  0.58655  0.88796  0.95884  1.0000
  H   H1508     1.0  0.68935  0.87115  0.75993  1.0000
  H   H1509     1.0  0.70645  0.86642  0.73296  1.0000
  H   H1510     1.0  0.74134  0.88435  0.78238  1.0000
  C   C954      1.0  0.61820  0.95188  0.95753  1.0000
  H   H1511     1.0  0.63621  0.97959  0.93935  1.0000
  S   S383      1.0  0.61987  0.90658  0.96345  1.0000
  C   C955      1.0  0.57242  0.88729  0.95418  1.0000
  H   H1512     1.0  0.71073  0.86920  0.81854  1.0000
  H   H1513     1.0  0.63833  0.87429  0.60321  1.0000
  C   C956      1.0  0.54747  0.86914  0.94981  1.0000
  H   H1514     1.0  0.57112  0.84552  0.93018  1.0000
  H   H1515     1.0  0.68237  0.70476  0.80536  1.0000
  H   H1516     1.0  0.57255  0.86482  0.90689  1.0000
  N   N95       1.0  0.62391  0.85161  0.59217  1.0000
  H   H1517     1.0  0.61233  0.84980  0.54710  1.0000
  H   H1518     1.0  0.69895  0.71686  0.78631  1.0000
  H   H1519     1.0  0.63731  0.82724  0.58635  1.0000
  H   H1520     1.0  0.60645  0.83289  0.57383  1.0000
  C   C957      1.0  0.62749  0.87020  0.58822  1.0000
  H   H1521     1.0  0.59739  0.85427  0.57802  1.0000
  C   C958      1.0  0.69507  0.72992  0.84252  1.0000
  H   H1522     1.0  0.72615  0.72322  0.81628  1.0000
  H   H1523     1.0  0.61687  0.83406  0.62891  1.0000
  H   H1524     1.0  0.64344  0.84387  0.55929  1.0000
  H   H1525     1.0  0.64821  0.93402  0.95973  1.0000
  H   H1526     1.0  0.63099  0.87339  0.56384  1.0000
  C   C959      1.0  0.61919  0.84805  0.62479  1.0000
  H   H1527     1.0  0.60713  0.85521  0.63154  1.0000
  H   H1528     1.0  0.73686  0.87360  0.74646  1.0000
  H   H1529     1.0  0.72793  0.70105  0.82883  1.0000
  N   N96       1.0  0.63472  0.95786  0.97045  1.0000
  C   C960      1.0  0.57524  0.85924  0.93023  1.0000
  H   H1530     1.0  0.69554  0.88615  0.80905  1.0000
  H   H1531     1.0  0.71554  0.89691  0.73313  1.0000
  H   H1532     1.0  0.69799  0.90184  0.75913  1.0000
  H   H1533     1.0  0.68323  0.69918  0.86068  1.0000
  C   C961      1.0  0.60451  0.99522  0.51324  1.0000
  H   H1534     1.0  0.56563  0.89526  0.97201  1.0000
  S   S384      1.0  0.61787  0.87764  0.50104  1.0000
  C   C962      1.0  0.64547  0.94271  0.97973  1.0000
  H   H1535     1.0  0.61013  0.96288  0.94879  1.0000
  H   H1536     1.0  0.54243  0.85575  0.95025  1.0000
  H   H1537     1.0  0.73494  0.86219  0.78250  1.0000
  H   H1538     1.0  0.58952  0.85918  0.93327  1.0000
  H   H1539     1.0  0.72708  0.71804  0.85697  1.0000
  C   C963      1.0  0.74531  0.85087  0.89328  1.0000
  C   C964      1.0  0.60940  0.84688  0.57186  1.0000
  H   H1540     1.0  0.58220  0.99134  0.93219  1.0000
  H   H1541     1.0  0.69800  0.73968  0.82422  1.0000
  H   H1542     1.0  0.65066  0.84466  0.59880  1.0000
  C   C965      1.0  0.72184  0.71387  0.83430  1.0000
  H   H1543     1.0  0.70291  0.69473  0.79748  1.0000
  H   H1544     1.0  0.69985  0.73490  0.86496  1.0000
  H   H1545     1.0  0.62954  0.85207  0.64100  1.0000
  N   N97       1.0  0.70277  0.71277  0.83521  1.0000
  N   N98       1.0  0.56638  0.86926  0.95488  1.0000
  H   H1546     1.0  0.54042  0.87656  0.96815  1.0000
  H   H1547     1.0  0.65656  0.97268  0.95561  1.0000
  H   H1548     1.0  0.54396  0.87514  0.92716  1.0000
  C   C966      1.0  0.59655  0.97906  0.51007  1.0000
  H   H1549     1.0  0.62472  0.93410  0.50801  1.0000
  H   H1550     1.0  0.74179  0.85677  0.91513  1.0000
  H   H1551     1.0  0.64671  0.96013  0.92567  1.0000
  C   C967      1.0  0.64398  0.96801  0.94671  1.0000
  H   H1552     1.0  0.64530  0.92687  0.49322  1.0000
  H   H1553     1.0  0.57004  0.89356  0.93132  1.0000
  H   H1554     1.0  0.61573  0.86956  0.97637  1.0000
  H   H1555     1.0  0.56602  0.84780  0.98685  1.0000
  C   C968      1.0  0.74977  0.66754  0.83750  1.0000
  H   H1556     1.0  0.50006  0.90670  0.50097  1.0000
  H   H1557     1.0  0.89577  0.04322  0.35982  1.0000
  C   C969      1.0  0.86057  0.20280  0.00065  1.0000
  Fe  Fe193     1.0  0.83560  0.31819  0.06897  1.0000
  S   S385      1.0  0.84884  0.29212  0.07970  1.0000
  H   H1558     1.0  0.84037  0.13154  0.44022  1.0000
  Fe  Fe194     1.0  0.82625  0.18873  0.05729  1.0000
  S   S386      1.0  0.81598  0.17121  0.02036  1.0000
  S   S387      1.0  0.81998  0.21726  0.04638  1.0000
  Fe  Fe195     1.0  0.83835  0.15713  0.09634  1.0000
  S   S388      1.0  0.82912  0.13798  0.06106  1.0000
  S   S389      1.0  0.84562  0.15012  0.14625  1.0000
  Fe  Fe196     1.0  0.84090  0.15581  0.02491  1.0000
  H   H1559     1.0  0.89294  0.11988  0.46549  1.0000
  Fe  Fe197     1.0  0.80509  0.15518  0.05919  1.0000
  S   S390      1.0  0.77749  0.14463  0.05925  1.0000
  S   S391      1.0  0.85161  0.17405  0.06093  1.0000
  S   S392      1.0  0.81379  0.17346  0.09558  1.0000
  Fe  Fe198     1.0  0.89768  0.09415  0.32447  1.0000
  S   S393      1.0  0.91811  0.10851  0.29704  1.0000
  S   S394      1.0  0.87640  0.10507  0.35758  1.0000
  Fe  Fe199     1.0  0.90640  0.05952  0.29065  1.0000
  S   S395      1.0  0.92738  0.07128  0.26194  1.0000
  S   S396      1.0  0.89675  0.03169  0.28964  1.0000
  Fe  Fe200     1.0  0.93545  0.08497  0.30519  1.0000
  S   S397      1.0  0.96293  0.08334  0.32501  1.0000
  Fe  Fe201     1.0  0.90862  0.09379  0.25537  1.0000
  S   S398      1.0  0.90510  0.10191  0.20480  1.0000
  S   S399      1.0  0.91550  0.07156  0.33494  1.0000
  S   S400      1.0  0.88722  0.08111  0.28166  1.0000
  C   C970      1.0  0.98333  0.08554  0.30607  1.0000
  H   H1560     1.0  0.81156  0.15776  0.16718  1.0000
  C   C971      1.0  0.98540  0.09578  0.27952  1.0000
  H   H1561     1.0  0.86146  0.30170  0.21060  1.0000
  H   H1562     1.0  0.97419  0.10195  0.26901  1.0000
  C   C972      1.0  0.90254  0.01572  0.26156  1.0000
  C   C973      1.0  0.91388  0.01921  0.23702  1.0000
  H   H1563     1.0  0.84523  0.18713  0.45983  1.0000
  H   H1564     1.0  0.92010  0.03161  0.23574  1.0000
  H   H1565     1.0  0.87679  0.06668  0.33905  1.0000
  C   C974      1.0  0.86216  0.13641  0.16174  1.0000
  C   C975      1.0  0.86265  0.13364  0.19398  1.0000
  C   C976      1.0  0.87563  0.12306  0.20755  1.0000
  C   C977      1.0  0.88837  0.11525  0.18898  1.0000
  C   C978      1.0  0.88777  0.11786  0.15671  1.0000
  C   C979      1.0  0.87470  0.12833  0.14311  1.0000
  H   H1566     1.0  0.85309  0.13991  0.20865  1.0000
  H   H1567     1.0  0.87595  0.12121  0.23239  1.0000
  H   H1568     1.0  0.89759  0.11191  0.14215  1.0000
  H   H1569     1.0  0.87452  0.13037  0.11831  1.0000
  C   C980      1.0  0.86618  0.12659  0.45686  1.0000
  C   C981      1.0  0.85316  0.12665  0.43438  1.0000
  C   C982      1.0  0.85661  0.12015  0.40430  1.0000
  C   C983      1.0  0.87313  0.11362  0.39589  1.0000
  C   C984      1.0  0.88619  0.11367  0.41831  1.0000
  C   C985      1.0  0.88271  0.12005  0.44847  1.0000
  C   C986      1.0  0.86476  0.30582  0.18658  1.0000
  H   H1570     1.0  0.84634  0.12019  0.38735  1.0000
  H   H1571     1.0  0.89896  0.10872  0.41250  1.0000
  S   S401      1.0  0.81782  0.32582  0.02978  1.0000
  C   C987      1.0  0.76054  0.15034  0.08569  1.0000
  C   C988      1.0  0.76286  0.16261  0.10893  1.0000
  H   H1572     1.0  0.87851  0.02837  0.35641  1.0000
  H   H1573     1.0  0.77489  0.16948  0.11005  1.0000
  C   C989      1.0  0.84055  0.27136  0.07065  1.0000
  C   C990      1.0  0.84961  0.25635  0.08049  1.0000
  C   C991      1.0  0.84348  0.23967  0.07370  1.0000
  C   C992      1.0  0.82821  0.23782  0.05681  1.0000
  C   C993      1.0  0.81925  0.25283  0.04679  1.0000
  C   C994      1.0  0.82531  0.26948  0.05375  1.0000
  H   H1574     1.0  0.86144  0.25763  0.09353  1.0000
  H   H1575     1.0  0.85055  0.22829  0.08153  1.0000
  H   H1576     1.0  0.80744  0.25159  0.03368  1.0000
  H   H1577     1.0  0.81818  0.28085  0.04599  1.0000
  H   H1578     1.0  0.87085  0.07547  0.40677  1.0000
  H   H1579     1.0  0.87904  0.30744  0.18536  1.0000
  H   H1580     1.0  0.90615  0.06117  0.21098  1.0000
  H   H1581     1.0  0.88756  0.05683  0.13240  1.0000
  H   H1582     1.0  0.90899  0.06672  0.17117  1.0000
  C   C995      1.0  0.88286  0.04728  0.14980  1.0000
  H   H1583     1.0  0.86898  0.04489  0.14493  1.0000
  N   N99       1.0  0.88528  0.05361  0.18169  1.0000
  H   H1584     1.0  0.88600  0.16085  0.46280  1.0000
  H   H1585     1.0  0.78938  0.16133  0.15693  1.0000
  H   H1586     1.0  0.89121  0.07094  0.38869  1.0000
  N   N100      1.0  0.79642  0.13468  0.16522  1.0000
  C   C996      1.0  0.80820  0.12462  0.18562  1.0000
  C   C997      1.0  0.79813  0.15333  0.17174  1.0000
  C   C998      1.0  0.77834  0.12949  0.17086  1.0000
  C   C999      1.0  0.80105  0.13130  0.13255  1.0000
  H   H1587     1.0  0.82193  0.12839  0.18192  1.0000
  H   H1588     1.0  0.80744  0.11051  0.18104  1.0000
  H   H1589     1.0  0.80509  0.12680  0.21048  1.0000
  H   H1590     1.0  0.79499  0.15634  0.19630  1.0000
  H   H1591     1.0  0.87309  0.20934  0.00436  1.0000
  H   H1592     1.0  0.92545  0.00970  0.19455  1.0000
  H   H1593     1.0  0.76920  0.13660  0.15526  1.0000
  H   H1594     1.0  0.77421  0.13219  0.19509  1.0000
  H   H1595     1.0  0.77661  0.11545  0.16651  1.0000
  H   H1596     1.0  0.79296  0.13925  0.11658  1.0000
  H   H1597     1.0  0.79925  0.11752  0.12628  1.0000
  H   H1598     1.0  0.81476  0.13449  0.12762  1.0000
  N   N101      1.0  0.87170  0.05200  0.38012  1.0000
  C   C1000     1.0  0.85668  0.04452  0.39636  1.0000
  C   C1001     1.0  0.86578  0.06072  0.35145  1.0000
  C   C1002     1.0  0.88427  0.03806  0.37217  1.0000
  C   C1003     1.0  0.88001  0.06476  0.40042  1.0000
  H   H1599     1.0  0.86068  0.03786  0.41817  1.0000
  H   H1600     1.0  0.85010  0.03487  0.38163  1.0000
  H   H1601     1.0  0.86484  0.03850  0.20160  1.0000
  H   H1602     1.0  0.88483  0.05870  0.42221  1.0000
  H   H1603     1.0  0.85630  0.07137  0.35644  1.0000
  H   H1604     1.0  0.87783  0.18046  0.41931  1.0000
  H   H1605     1.0  0.87994  0.08014  0.16935  1.0000
  H   H1606     1.0  0.86788  0.20118  0.42718  1.0000
  H   H1607     1.0  0.86320  0.18859  0.00089  1.0000
  H   H1608     1.0  0.84695  0.05473  0.40257  1.0000
  H   H1609     1.0  0.88904  0.03111  0.39317  1.0000
  H   H1610     1.0  0.89040  0.19747  0.43569  1.0000
  H   H1611     1.0  0.85973  0.05151  0.33519  1.0000
  S   S402      1.0  0.81873  0.33014  0.10611  1.0000
  N   N102      1.0  0.87275  0.18542  0.46743  1.0000
  H   H1612     1.0  0.91177  0.04455  0.18366  1.0000
  C   C1004     1.0  0.90387  0.05658  0.18703  1.0000
  H   H1613     1.0  0.89014  0.03490  0.14592  1.0000
  H   H1614     1.0  0.87734  0.07531  0.20960  1.0000
  H   H1615     1.0  0.86139  0.06837  0.18233  1.0000
  C   C1005     1.0  0.87896  0.04057  0.20405  1.0000
  H   H1616     1.0  0.88137  0.04456  0.22840  1.0000
  H   H1617     1.0  0.85215  0.20587  0.02092  1.0000
  H   H1618     1.0  0.88556  0.02780  0.20065  1.0000
  C   C1006     1.0  0.87549  0.07003  0.18591  1.0000
  C   C1007     1.0  0.85547  0.17757  0.46666  1.0000
  C   C1008     1.0  0.91696  0.00672  0.21377  1.0000
  H   H1619     1.0  0.85511  0.16645  0.45039  1.0000
  C   C1009     1.0  0.87744  0.19142  0.43599  1.0000
  H   H1620     1.0  0.84027  0.23087  0.99179  1.0000
  H   H1621     1.0  0.83240  0.30898  0.16388  1.0000
  H   H1622     1.0  0.85664  0.31640  0.12915  1.0000
  H   H1623     1.0  0.86143  0.29504  0.17074  1.0000
  H   H1624     1.0  0.75180  0.17515  0.14909  1.0000
  C   C1010     1.0  0.88563  0.17238  0.47818  1.0000
  H   H1625     1.0  0.89888  0.17775  0.47895  1.0000
  H   H1626     1.0  0.82922  0.33136  0.17380  1.0000
  C   C1011     1.0  0.99812  0.07778  0.31951  1.0000
  H   H1627     1.0  0.99667  0.06977  0.33995  1.0000
  C   C1012     1.0  0.86012  0.32674  0.14577  1.0000
  H   H1628     1.0  0.87425  0.32894  0.14326  1.0000
  H   H1629     1.0  0.86270  0.21032  0.48164  1.0000
  N   N103      1.0  0.85547  0.32198  0.17789  1.0000
  H   H1630     1.0  0.83260  0.31552  0.20381  1.0000
  C   C1013     1.0  0.83660  0.31931  0.17998  1.0000
  H   H1631     1.0  0.85748  0.33273  0.22364  1.0000
  H   H1632     1.0  0.80539  0.11989  0.70834  1.0000
  H   H1633     1.0  0.79977  0.12613  0.61052  1.0000
  Fe  Fe202     1.0  0.83869  0.31461  0.56606  1.0000
  S   S403      1.0  0.84329  0.28718  0.58529  1.0000
  H   H1634     1.0  0.85189  0.17246  0.48981  1.0000
  Fe  Fe203     1.0  0.83190  0.18505  0.54901  1.0000
  S   S404      1.0  0.81985  0.16500  0.51828  1.0000
  S   S405      1.0  0.83310  0.21203  0.52662  1.0000
  Fe  Fe204     1.0  0.84095  0.15745  0.59862  1.0000
  S   S406      1.0  0.82998  0.13592  0.57044  1.0000
  S   S407      1.0  0.84904  0.15396  0.64922  1.0000
  Fe  Fe205     1.0  0.84322  0.14817  0.52896  1.0000
  H   H1635     1.0  0.75672  0.28378  0.54436  1.0000
  Fe  Fe206     1.0  0.80762  0.15464  0.56219  1.0000
  S   S408      1.0  0.77937  0.14582  0.56470  1.0000
  S   S409      1.0  0.85572  0.16865  0.55831  1.0000
  S   S410      1.0  0.81804  0.17573  0.59180  1.0000
  Fe  Fe207     1.0  0.89722  0.08940  0.83400  1.0000
  S   S411      1.0  0.91544  0.10542  0.80472  1.0000
  S   S412      1.0  0.88139  0.09621  0.87835  1.0000
  Fe  Fe208     1.0  0.90660  0.05571  0.79673  1.0000
  S   S413      1.0  0.92567  0.06947  0.76654  1.0000
  S   S414      1.0  0.89939  0.02709  0.79480  1.0000
  Fe  Fe209     1.0  0.93459  0.08305  0.80956  1.0000
  S   S415      1.0  0.96156  0.08499  0.83157  1.0000
  Fe  Fe210     1.0  0.90502  0.09062  0.76369  1.0000
  S   S416      1.0  0.89927  0.09779  0.71309  1.0000
  S   S417      1.0  0.91671  0.06768  0.84010  1.0000
  S   S418      1.0  0.88560  0.07615  0.79248  1.0000
  C   C1014     1.0  0.98265  0.08710  0.81503  1.0000
  C   C1015     1.0  0.98527  0.09114  0.78374  1.0000
  H   H1636     1.0  0.79769  0.28466  0.59031  1.0000
  H   H1637     1.0  0.97423  0.09275  0.76861  1.0000
  H   H1638     1.0  0.77596  0.28976  0.49963  1.0000
  C   C1016     1.0  0.90508  0.01085  0.76722  1.0000
  C   C1017     1.0  0.91783  0.01337  0.74461  1.0000
  H   H1639     1.0  0.83139  0.11970  0.67488  1.0000
  H   H1640     1.0  0.92513  0.02517  0.74461  1.0000
  H   H1641     1.0  0.78423  0.12220  0.69148  1.0000
  C   C1018     1.0  0.86297  0.13811  0.66644  1.0000
  C   C1019     1.0  0.87219  0.12590  0.64886  1.0000
  C   C1020     1.0  0.88317  0.11366  0.66360  1.0000
  C   C1021     1.0  0.88492  0.11333  0.69605  1.0000
  C   C1022     1.0  0.87540  0.12529  0.71367  1.0000
  C   C1023     1.0  0.86455  0.13765  0.69890  1.0000
  H   H1642     1.0  0.87114  0.12611  0.62388  1.0000
  H   H1643     1.0  0.89055  0.10455  0.64970  1.0000
  H   H1644     1.0  0.87663  0.12523  0.73862  1.0000
  H   H1645     1.0  0.85749  0.14704  0.71274  1.0000
  C   C1024     1.0  0.86420  0.13678  0.95248  1.0000
  C   C1025     1.0  0.85858  0.11965  0.95380  1.0000
  C   C1026     1.0  0.86388  0.10757  0.93091  1.0000
  C   C1027     1.0  0.87482  0.11232  0.90615  1.0000
  C   C1028     1.0  0.88049  0.12944  0.90484  1.0000
  C   C1029     1.0  0.87525  0.14150  0.92781  1.0000
  H   H1646     1.0  0.83770  0.18506  0.96762  1.0000
  H   H1647     1.0  0.85938  0.09441  0.93238  1.0000
  H   H1648     1.0  0.88883  0.13344  0.88605  1.0000
  H   H1649     1.0  0.87973  0.15466  0.92634  1.0000
  C   C1030     1.0  0.76269  0.14991  0.59270  1.0000
  C   C1031     1.0  0.76587  0.15826  0.62073  1.0000
  H   H1650     1.0  0.82270  0.10274  0.65150  1.0000
  H   H1651     1.0  0.77854  0.16344  0.62496  1.0000
  C   C1032     1.0  0.84016  0.26645  0.56843  1.0000
  C   C1033     1.0  0.84074  0.25165  0.58759  1.0000
  C   C1034     1.0  0.83842  0.23495  0.57535  1.0000
  C   C1035     1.0  0.83562  0.23280  0.54364  1.0000
  C   C1036     1.0  0.83498  0.24761  0.52446  1.0000
  C   C1037     1.0  0.83717  0.26433  0.53674  1.0000
  H   H1652     1.0  0.84312  0.25310  0.61210  1.0000
  H   H1653     1.0  0.83902  0.22373  0.59043  1.0000
  S   S419      1.0  0.85805  0.15280  0.98074  1.0000
  H   H1654     1.0  0.83690  0.27553  0.52160  1.0000
  H   H1655     1.0  0.82934  0.12269  0.63406  1.0000
  C   C1038     1.0  0.82291  0.11699  0.65474  1.0000
  H   H1656     1.0  0.78105  0.12556  0.63488  1.0000
  H   H1657     1.0  0.79365  0.10616  0.62841  1.0000
  H   H1658     1.0  0.79669  0.10259  0.68584  1.0000
  C   C1039     1.0  0.76709  0.28851  0.55982  1.0000
  H   H1659     1.0  0.76472  0.30265  0.56328  1.0000
  C   C1040     1.0  0.78586  0.29420  0.51627  1.0000
  H   H1660     1.0  0.81520  0.14696  0.68171  1.0000
  N   N104      1.0  0.88994  0.04701  0.68887  1.0000
  C   C1041     1.0  0.88436  0.05049  0.72102  1.0000
  C   C1042     1.0  0.88664  0.02872  0.68134  1.0000
  C   C1043     1.0  0.90864  0.05044  0.68573  1.0000
  C   C1044     1.0  0.88014  0.05848  0.66752  1.0000
  H   H1661     1.0  0.89196  0.04256  0.73782  1.0000
  H   H1662     1.0  0.87049  0.04747  0.72479  1.0000
  H   H1663     1.0  0.88619  0.06427  0.72720  1.0000
  H   H1664     1.0  0.89124  0.02538  0.65763  1.0000
  H   H1665     1.0  0.79583  0.30569  0.57246  1.0000
  H   H1666     1.0  0.87262  0.02576  0.68288  1.0000
  H   H1667     1.0  0.85011  0.11568  0.97246  1.0000
  H   H1668     1.0  0.85814  0.20792  0.92266  1.0000
  H   H1669     1.0  0.83292  0.24613  0.49987  1.0000
  H   H1670     1.0  0.88400  0.05620  0.64300  1.0000
  H   H1671     1.0  0.88250  0.07237  0.67264  1.0000
  H   H1672     1.0  0.86597  0.05642  0.66958  1.0000
  N   N105      1.0  0.93311  0.10339  0.91231  1.0000
  C   C1045     1.0  0.95156  0.10625  0.91919  1.0000
  C   C1046     1.0  0.92865  0.11202  0.88273  1.0000
  C   C1047     1.0  0.92211  0.11060  0.93737  1.0000
  C   C1048     1.0  0.93012  0.08463  0.90974  1.0000
  H   H1673     1.0  0.95550  0.09975  0.94118  1.0000
  H   H1674     1.0  0.95430  0.12028  0.92134  1.0000
  H   H1675     1.0  0.96007  0.10100  0.90037  1.0000
  H   H1676     1.0  0.91487  0.11003  0.87661  1.0000
  H   H1677     1.0  0.93067  0.12621  0.88374  1.0000
  H   H1678     1.0  0.93669  0.10685  0.86332  1.0000
  H   H1679     1.0  0.92355  0.12484  0.93939  1.0000
  H   H1680     1.0  0.92535  0.10464  0.96018  1.0000
  H   H1681     1.0  0.90816  0.10814  0.93302  1.0000
  H   H1682     1.0  0.91634  0.08201  0.90399  1.0000
  H   H1683     1.0  0.93311  0.07769  0.93175  1.0000
  H   H1684     1.0  0.93839  0.07873  0.89126  1.0000
  H   H1685     1.0  0.86869  0.19621  0.51278  1.0000
  S   S420      1.0  0.82212  0.32139  0.52507  1.0000
  H   H1686     1.0  0.91158  0.06407  0.69179  1.0000
  H   H1687     1.0  0.79343  0.14935  0.66744  1.0000
  H   H1688     1.0  0.78408  0.30846  0.51892  1.0000
  C   C1049     1.0  0.80634  0.14336  0.66261  1.0000
  C   C1050     1.0  0.79755  0.11691  0.68751  1.0000
  H   H1689     1.0  0.79882  0.29192  0.50545  1.0000
  H   H1690     1.0  0.99541  0.08209  0.85855  1.0000
  H   H1691     1.0  0.91332  0.04814  0.66168  1.0000
  H   H1692     1.0  0.89339  0.01975  0.69773  1.0000
  C   C1051     1.0  0.79449  0.12033  0.63217  1.0000
  H   H1693     1.0  0.91645  0.04196  0.70137  1.0000
  H   H1694     1.0  0.81146  0.14950  0.64115  1.0000
  C   C1052     1.0  0.79773  0.29164  0.56771  1.0000
  S   S421      1.0  0.86272  0.13453  0.49554  1.0000
  C   C1053     1.0  0.86393  0.20395  0.94519  1.0000
  N   N106      1.0  0.78445  0.28516  0.54642  1.0000
  C   C1054     1.0  0.78719  0.26635  0.54189  1.0000
  C   C1055     1.0  0.83575  0.19938  0.96761  1.0000
  H   H1695     1.0  0.87663  0.21039  0.94734  1.0000
  H   H1696     1.0  0.81089  0.28988  0.55770  1.0000
  N   N107      1.0  0.80532  0.12439  0.65923  1.0000
  H   H1697     1.0  0.77739  0.26092  0.52603  1.0000
  H   H1698     1.0  0.80019  0.26349  0.53168  1.0000
  H   H1699     1.0  0.86650  0.18970  0.94424  1.0000
  H   H1700     1.0  0.88242  0.16756  0.50186  1.0000
  H   H1701     1.0  0.82927  0.20305  0.94555  1.0000
  N   N108      1.0  0.85233  0.20838  0.97138  1.0000
  H   H1702     1.0  0.84275  0.23198  0.95051  1.0000
  H   H1703     1.0  0.76565  0.28202  0.58271  1.0000
  H   H1704     1.0  0.78653  0.25911  0.56421  1.0000
  H   H1705     1.0  0.86505  0.33035  0.84468  1.0000
  H   H1706     1.0  0.88521  0.20653  0.49029  1.0000
  H   H1707     1.0  0.86123  0.23451  0.97529  1.0000
  H   H1708     1.0  0.75548  0.16582  0.66532  1.0000
  S   S422      1.0  0.82394  0.33213  0.59903  1.0000
  C   C1056     1.0  0.75270  0.15971  0.64347  1.0000
  C   C1057     1.0  0.92118  0.00055  0.72206  1.0000
  C   C1058     1.0  0.84904  0.22727  0.97216  1.0000
  C   C1059     1.0  0.99723  0.08517  0.83430  1.0000
  H   H1709     1.0  0.93088  0.00274  0.70440  1.0000
  H   H1710     1.0  0.82656  0.20261  0.98673  1.0000
  C   C1060     1.0  0.87239  0.20027  0.48889  1.0000
  Fe  Fe211     1.0  0.83318  0.35055  0.02660  1.0000
  S   S423      1.0  0.85148  0.34651  0.46495  1.0000
  H   H1711     1.0  0.77466  0.34775  0.13141  1.0000
  H   H1712     1.0  0.92206  0.42098  0.44537  1.0000
  Fe  Fe212     1.0  0.83390  0.35433  0.09727  1.0000
  S   S424      1.0  0.83983  0.37410  0.13458  1.0000
  S   S425      1.0  0.81545  0.36400  0.06076  1.0000
  Fe  Fe213     1.0  0.92611  0.59490  0.18250  1.0000
  S   S426      1.0  0.91938  0.57514  0.14687  1.0000
  S   S427      1.0  0.95267  0.60748  0.18476  1.0000
  Fe  Fe214     1.0  0.88903  0.59693  0.20743  1.0000
  S   S428      1.0  0.88024  0.57663  0.17404  1.0000
  S   S429      1.0  0.86667  0.61112  0.23197  1.0000
  Fe  Fe215     1.0  0.90480  0.56201  0.18570  1.0000
  S   S430      1.0  0.90654  0.53229  0.18316  1.0000
  Fe  Fe216     1.0  0.89514  0.59105  0.13755  1.0000
  S   S431      1.0  0.88194  0.59266  0.08959  1.0000
  S   S432      1.0  0.91268  0.58125  0.22214  1.0000
  S   S433      1.0  0.90295  0.61194  0.17032  1.0000
  Fe  Fe217     1.0  0.90845  0.40480  0.26070  1.0000
  S   S434      1.0  0.88751  0.42060  0.28471  1.0000
  S   S435      1.0  0.90613  0.38717  0.21845  1.0000
  Fe  Fe218     1.0  0.93692  0.41565  0.30546  1.0000
  S   S436      1.0  0.91765  0.43204  0.33189  1.0000
  S   S437      1.0  0.96392  0.41575  0.32791  1.0000
  Fe  Fe219     1.0  0.89903  0.40995  0.32931  1.0000
  S   S438      1.0  0.88467  0.40495  0.37595  1.0000
  Fe  Fe220     1.0  0.90767  0.44158  0.28585  1.0000
  S   S439      1.0  0.90214  0.47099  0.28413  1.0000
  S   S440      1.0  0.91889  0.39296  0.30515  1.0000
  S   S441      1.0  0.92801  0.42639  0.25948  1.0000
  Fe  Fe221     1.0  0.83912  0.64998  0.39807  1.0000
  S   S442      1.0  0.82241  0.63894  0.43620  1.0000
  S   S443      1.0  0.86065  0.63508  0.37276  1.0000
  H   H1713     1.0  0.84280  0.61239  0.09836  1.0000
  H   H1714     1.0  0.87441  0.33893  0.19733  1.0000
  C   C1061     1.0  0.86201  0.61561  0.45580  1.0000
  C   C1062     1.0  0.99953  0.41491  0.33140  1.0000
  C   C1063     1.0  0.86629  0.41126  0.08067  1.0000
  H   H1715     1.0  0.91530  0.38249  0.39590  1.0000
  H   H1716     1.0  0.82134  0.61596  0.11320  1.0000
  C   C1064     1.0  0.98508  0.41156  0.31272  1.0000
  H   H1717     1.0  0.94887  0.38112  0.43300  1.0000
  C   C1065     1.0  0.98790  0.40469  0.28319  1.0000
  H   H1718     1.0  0.86143  0.42489  0.08040  1.0000
  H   H1719     1.0  0.97694  0.40197  0.26857  1.0000
  C   C1066     1.0  0.97304  0.59639  0.18609  1.0000
  H   H1720     1.0  0.85717  0.38410  0.47260  1.0000
  C   C1067     1.0  0.97434  0.57852  0.19109  1.0000
  H   H1721     1.0  0.90344  0.60835  0.43196  1.0000
  H   H1722     1.0  0.96271  0.57105  0.19376  1.0000
  C   C1068     1.0  0.86533  0.61771  0.27120  1.0000
  C   C1069     1.0  0.87883  0.61468  0.29209  1.0000
  C   C1070     1.0  0.87711  0.62004  0.32310  1.0000
  C   C1071     1.0  0.86192  0.62847  0.33355  1.0000
  C   C1072     1.0  0.84849  0.63169  0.31261  1.0000
  C   C1073     1.0  0.85021  0.62632  0.28159  1.0000
  H   H1723     1.0  0.89052  0.60807  0.28439  1.0000
  H   H1724     1.0  0.88760  0.61752  0.33909  1.0000
  H   H1725     1.0  0.83669  0.63807  0.32036  1.0000
  H   H1726     1.0  0.83967  0.62866  0.26563  1.0000
  C   C1074     1.0  0.87403  0.61008  0.06550  1.0000
  C   C1075     1.0  0.86436  0.60620  0.03887  1.0000
  C   C1076     1.0  0.85731  0.61944  0.01968  1.0000
  C   C1077     1.0  0.85972  0.63688  0.02687  1.0000
  C   C1078     1.0  0.86941  0.64076  0.05348  1.0000
  C   C1079     1.0  0.87662  0.62753  0.07248  1.0000
  H   H1727     1.0  0.86224  0.59282  0.03300  1.0000
  H   H1728     1.0  0.88115  0.38309  0.05454  1.0000
  H   H1729     1.0  0.87152  0.65415  0.05930  1.0000
  H   H1730     1.0  0.88431  0.63087  0.09235  1.0000
  C   C1080     1.0  0.90572  0.51554  0.21191  1.0000
  C   C1081     1.0  0.90901  0.49826  0.20299  1.0000
  C   C1082     1.0  0.90819  0.48450  0.22467  1.0000
  C   C1083     1.0  0.90391  0.48780  0.25565  1.0000
  C   C1084     1.0  0.90063  0.50507  0.26453  1.0000
  C   C1085     1.0  0.90159  0.51885  0.24292  1.0000
  H   H1731     1.0  0.91222  0.49547  0.17913  1.0000
  H   H1732     1.0  0.91072  0.47133  0.21740  1.0000
  H   H1733     1.0  0.89727  0.50782  0.28837  1.0000
  H   H1734     1.0  0.89897  0.53199  0.25026  1.0000
  C   C1086     1.0  0.86108  0.36297  0.44104  1.0000
  C   C1087     1.0  0.86763  0.35847  0.41153  1.0000
  C   C1088     1.0  0.87498  0.37097  0.39146  1.0000
  C   C1089     1.0  0.87575  0.38834  0.40036  1.0000
  C   C1090     1.0  0.86932  0.39283  0.42995  1.0000
  C   C1091     1.0  0.86214  0.38030  0.45015  1.0000
  H   H1735     1.0  0.86692  0.34518  0.40404  1.0000
  H   H1736     1.0  0.87979  0.36718  0.36889  1.0000
  H   H1737     1.0  0.86973  0.40618  0.43724  1.0000
  H   H1738     1.0  0.75255  0.34989  0.17338  1.0000
  C   C1092     1.0  0.85861  0.37781  0.15694  1.0000
  C   C1093     1.0  0.85725  0.38883  0.18266  1.0000
  C   C1094     1.0  0.87166  0.39192  0.20163  1.0000
  C   C1095     1.0  0.88765  0.38403  0.19500  1.0000
  C   C1096     1.0  0.88906  0.37314  0.16904  1.0000
  C   C1097     1.0  0.87466  0.37008  0.15000  1.0000
  H   H1739     1.0  0.84492  0.39493  0.18820  1.0000
  H   H1740     1.0  0.87038  0.40034  0.22147  1.0000
  H   H1741     1.0  0.90143  0.36708  0.16364  1.0000
  H   H1742     1.0  0.87603  0.36184  0.12999  1.0000
  H   H1743     1.0  0.85313  0.34828  0.19364  1.0000
  S   S444      1.0  0.85225  0.34191  0.06322  1.0000
  C   C1098     1.0  0.88912  0.60711  0.43207  1.0000
  C   C1099     1.0  0.86036  0.33605  0.19906  1.0000
  N   N109      1.0  0.89986  0.53728  0.08841  1.0000
  C   C1100     1.0  0.91546  0.53026  0.10410  1.0000
  C   C1101     1.0  0.88670  0.54219  0.11184  1.0000
  C   C1102     1.0  0.89275  0.52396  0.06787  1.0000
  C   C1103     1.0  0.90446  0.55270  0.06989  1.0000
  H   H1744     1.0  0.92569  0.52632  0.08725  1.0000
  H   H1745     1.0  0.91237  0.51881  0.11879  1.0000
  H   H1746     1.0  0.92116  0.53996  0.11988  1.0000
  H   H1747     1.0  0.87483  0.54785  0.10101  1.0000
  H   H1748     1.0  0.88293  0.53091  0.12642  1.0000
  H   H1749     1.0  0.89176  0.55201  0.12791  1.0000
  H   H1750     1.0  0.90234  0.51994  0.04988  1.0000
  H   H1751     1.0  0.88093  0.52883  0.05576  1.0000
  H   H1752     1.0  0.88915  0.51218  0.08125  1.0000
  H   H1753     1.0  0.90979  0.56306  0.08471  1.0000
  H   H1754     1.0  0.89294  0.55848  0.05804  1.0000
  H   H1755     1.0  0.91437  0.54956  0.05193  1.0000
  C   C1104     1.0  0.99075  0.57031  0.19311  1.0000
  N   N110      1.0  0.88099  0.61761  0.45686  1.0000
  C   C1105     1.0  0.75799  0.65709  0.39329  1.0000
  H   H1756     1.0  0.99155  0.55652  0.19737  1.0000
  H   H1757     1.0  0.87894  0.64434  0.47018  1.0000
  Fe  Fe222     1.0  0.80163  0.33891  0.06704  1.0000
  C   C1106     1.0  0.98835  0.60587  0.18281  1.0000
  H   H1758     1.0  0.88058  0.64080  0.42923  1.0000
  H   H1759     1.0  0.86258  0.37714  0.07704  1.0000
  S   S445      1.0  0.85079  0.65434  0.00410  1.0000
  Fe  Fe223     1.0  0.83483  0.65830  0.46754  1.0000
  H   H1760     1.0  0.93686  0.38218  0.37959  1.0000
  C   C1107     1.0  0.76254  0.65204  0.36322  1.0000
  Fe  Fe224     1.0  0.80337  0.66056  0.42326  1.0000
  H   H1761     1.0  0.83529  0.41479  0.05266  1.0000
  H   H1762     1.0  0.88611  0.59316  0.43491  1.0000
  H   H1763     1.0  0.99752  0.42014  0.35435  1.0000
  H   H1764     1.0  0.75327  0.64522  0.31783  1.0000
  H   H1765     1.0  0.86138  0.40270  0.00391  1.0000
  H   H1766     1.0  0.88434  0.61123  0.40878  1.0000
  H   H1767     1.0  0.85324  0.33879  0.13837  1.0000
  H   H1768     1.0  0.83589  0.39541  0.07573  1.0000
  H   H1769     1.0  0.85819  0.60209  0.46096  1.0000
  H   H1770     1.0  0.87968  0.66023  0.31985  1.0000
  S   S446      1.0  0.77363  0.65946  0.42326  1.0000
  H   H1771     1.0  0.86184  0.40526  0.10285  1.0000
  H   H1772     1.0  0.77601  0.64968  0.35748  1.0000
  C   C1108     1.0  0.75722  0.33693  0.09833  1.0000
  H   H1773     1.0  0.90670  0.40515  0.43326  1.0000
  H   H1774     1.0  0.85535  0.62418  0.47281  1.0000
  H   H1775     1.0  0.83573  0.39403  0.03414  1.0000
  H   H1776     1.0  0.98748  0.61968  0.17875  1.0000
  C   C1109     1.0  0.84089  0.40146  0.05405  1.0000
  N   N111      1.0  0.93240  0.40138  0.41486  1.0000
  C   C1110     1.0  0.92637  0.39073  0.38891  1.0000
  C   C1111     1.0  0.93811  0.38993  0.44048  1.0000
  C   C1112     1.0  0.91808  0.41279  0.42567  1.0000
  C   C1113     1.0  0.94698  0.41207  0.40421  1.0000
  H   H1777     1.0  0.92175  0.39905  0.36954  1.0000
  H   H1778     1.0  0.85677  0.61909  0.43259  1.0000
  H   H1779     1.0  0.94273  0.39752  0.46055  1.0000
  C   C1114     1.0  0.88520  0.63602  0.45215  1.0000
  H   H1780     1.0  0.88046  0.40983  0.02323  1.0000
  S   S447      1.0  0.77208  0.33639  0.06666  1.0000
  H   H1781     1.0  0.91344  0.42159  0.40679  1.0000
  H   H1782     1.0  0.95206  0.42020  0.42316  1.0000
  H   H1783     1.0  0.94295  0.42094  0.38500  1.0000
  H   H1784     1.0  0.88068  0.41146  0.08131  1.0000
  N   N112      1.0  0.84161  0.61845  0.14684  1.0000
  C   C1115     1.0  0.84141  0.60002  0.15614  1.0000
  C   C1116     1.0  0.85953  0.62477  0.14804  1.0000
  C   C1117     1.0  0.83064  0.62866  0.16836  1.0000
  C   C1118     1.0  0.83495  0.62029  0.11491  1.0000
  H   H1785     1.0  0.82808  0.59482  0.15583  1.0000
  H   H1786     1.0  0.84655  0.59814  0.18002  1.0000
  H   H1787     1.0  0.84954  0.59194  0.14027  1.0000
  H   H1788     1.0  0.86842  0.61651  0.13403  1.0000
  H   H1789     1.0  0.86046  0.63826  0.13916  1.0000
  H   H1790     1.0  0.86461  0.62459  0.17207  1.0000
  H   H1791     1.0  0.83064  0.64266  0.16219  1.0000
  H   H1792     1.0  0.83539  0.62736  0.19265  1.0000
  H   H1793     1.0  0.81699  0.62428  0.16811  1.0000
  H   H1794     1.0  0.83540  0.63395  0.10664  1.0000
  H   H1795     1.0  0.86130  0.42339  0.02260  1.0000
  H   H1796     1.0  0.84992  0.61614  0.99938  1.0000
  H   H1797     1.0  0.89938  0.63812  0.45328  1.0000
  N   N113      1.0  0.86002  0.40156  0.05363  1.0000
  C   C1119     1.0  0.86676  0.38360  0.05521  1.0000
  C   C1120     1.0  0.86608  0.40977  0.02462  1.0000
  H   H1798     1.0  0.95787  0.40395  0.39504  1.0000
  H   H1799     1.0  0.92731  0.38171  0.44884  1.0000
  H   H1800     1.0  0.86203  0.37583  0.03540  1.0000
  C   C1121     1.0  0.76163  0.34340  0.12741  1.0000
  C   C1122     1.0  0.88757  0.61176  0.48735  1.0000
  H   H1801     1.0  0.95139  0.63176  0.70162  1.0000
  S   S448      1.0  0.85230  0.66506  0.91574  1.0000
  H   H1802     1.0  0.97518  0.47604  0.73914  1.0000
  C   C1123     1.0  0.88062  0.35132  0.80370  1.0000
  Fe  Fe225     1.0  0.84214  0.35299  0.58364  1.0000
  S   S449      1.0  0.85329  0.37552  0.61088  1.0000
  S   S450      1.0  0.82517  0.36179  0.54379  1.0000
  Fe  Fe226     1.0  0.93210  0.58432  0.66991  1.0000
  S   S451      1.0  0.91361  0.56718  0.64496  1.0000
  S   S452      1.0  0.95982  0.58735  0.65171  1.0000
  Fe  Fe227     1.0  0.90390  0.59655  0.71433  1.0000
  S   S453      1.0  0.88338  0.58011  0.69297  1.0000
  S   S454      1.0  0.90234  0.61634  0.75338  1.0000
  Fe  Fe228     1.0  0.90403  0.55900  0.69212  1.0000
  S   S455      1.0  0.89761  0.52999  0.69380  1.0000
  Fe  Fe229     1.0  0.89391  0.58903  0.64662  1.0000
  S   S456      1.0  0.87543  0.59184  0.60457  1.0000
  S   S457      1.0  0.92392  0.57486  0.71698  1.0000
  S   S458      1.0  0.91314  0.60686  0.66810  1.0000
  Fe  Fe230     1.0  0.89065  0.40509  0.77613  1.0000
  S   S459      1.0  0.88029  0.42243  0.81423  1.0000
  S   S460      1.0  0.87236  0.38599  0.75332  1.0000
  Fe  Fe231     1.0  0.92873  0.41276  0.79260  1.0000
  S   S461      1.0  0.92072  0.42976  0.83221  1.0000
  S   S462      1.0  0.95610  0.40618  0.77531  1.0000
  Fe  Fe232     1.0  0.90059  0.40977  0.84443  1.0000
  S   S463      1.0  0.89753  0.39714  0.89291  1.0000
  Fe  Fe233     1.0  0.90108  0.44102  0.79861  1.0000
  S   S464      1.0  0.89990  0.47078  0.79857  1.0000
  S   S465      1.0  0.91033  0.39197  0.80691  1.0000
  S   S466      1.0  0.90984  0.42454  0.75839  1.0000
  Fe  Fe234     1.0  0.83516  0.64824  0.88712  1.0000
  S   S467      1.0  0.82046  0.63851  0.92891  1.0000
  S   S468      1.0  0.84061  0.62748  0.85064  1.0000
  H   H1803     1.0  0.89686  0.36574  0.85237  1.0000
  H   H1804     1.0  0.76872  0.62339  0.79643  1.0000
  Fe  Fe235     1.0  0.83649  0.65669  0.95716  1.0000
  H   H1805     1.0  0.93706  0.60458  0.76803  1.0000
  S   S469      1.0  0.85848  0.33494  0.55434  1.0000
  C   C1124     1.0  0.94816  0.62047  0.71652  1.0000
  C   C1125     1.0  0.79917  0.60900  0.81544  1.0000
  C   C1126     1.0  0.97684  0.41237  0.78882  1.0000
  C   C1127     1.0  0.75474  0.34369  0.64414  1.0000
  C   C1128     1.0  0.97887  0.42389  0.81338  1.0000
  C   C1129     1.0  0.86511  0.37372  0.83166  1.0000
  H   H1806     1.0  0.96759  0.42881  0.82558  1.0000
  C   C1130     1.0  0.98035  0.58542  0.67030  1.0000
  C   C1131     1.0  0.98196  0.58130  0.70176  1.0000
  H   H1807     1.0  0.92888  0.47393  0.71797  1.0000
  H   H1808     1.0  0.97054  0.57834  0.71511  1.0000
  C   C1132     1.0  0.95609  0.45122  0.76518  1.0000
  C   C1133     1.0  0.88485  0.61948  0.77977  1.0000
  C   C1134     1.0  0.87072  0.60842  0.78064  1.0000
  C   C1135     1.0  0.85733  0.61112  0.80247  1.0000
  C   C1136     1.0  0.85784  0.62494  0.82353  1.0000
  C   C1137     1.0  0.87190  0.63608  0.82251  1.0000
  C   C1138     1.0  0.88536  0.63331  0.80080  1.0000
  H   H1809     1.0  0.87018  0.59770  0.76471  1.0000
  H   H1810     1.0  0.84657  0.60237  0.80314  1.0000
  H   H1811     1.0  0.87246  0.64676  0.83853  1.0000
  H   H1812     1.0  0.89622  0.64195  0.80030  1.0000
  C   C1139     1.0  0.86816  0.60935  0.58010  1.0000
  C   C1140     1.0  0.85562  0.60613  0.55727  1.0000
  C   C1141     1.0  0.84956  0.61940  0.53712  1.0000
  C   C1142     1.0  0.85608  0.63617  0.53920  1.0000
  C   C1143     1.0  0.86856  0.63938  0.56210  1.0000
  C   C1144     1.0  0.87456  0.62613  0.58236  1.0000
  H   H1813     1.0  0.85042  0.59329  0.55533  1.0000
  H   H1814     1.0  0.87069  0.35145  0.78509  1.0000
  H   H1815     1.0  0.87370  0.65226  0.56417  1.0000
  H   H1816     1.0  0.88415  0.62893  0.59972  1.0000
  C   C1145     1.0  0.89859  0.51377  0.72336  1.0000
  C   C1146     1.0  0.89462  0.49659  0.71568  1.0000
  C   C1147     1.0  0.89492  0.48329  0.73826  1.0000
  C   C1148     1.0  0.89919  0.48699  0.76895  1.0000
  C   C1149     1.0  0.90315  0.50416  0.77663  1.0000
  C   C1150     1.0  0.90295  0.51745  0.75401  1.0000
  H   H1817     1.0  0.89118  0.49356  0.69211  1.0000
  H   H1818     1.0  0.89164  0.47022  0.73199  1.0000
  H   H1819     1.0  0.90635  0.50723  0.80031  1.0000
  H   H1820     1.0  0.90594  0.53058  0.76040  1.0000
  C   C1151     1.0  0.85500  0.37510  0.95796  1.0000
  C   C1152     1.0  0.85043  0.38549  0.93222  1.0000
  C   C1153     1.0  0.86316  0.39248  0.91231  1.0000
  C   C1154     1.0  0.88075  0.38916  0.91774  1.0000
  C   C1155     1.0  0.88533  0.37889  0.94365  1.0000
  C   C1156     1.0  0.87260  0.37188  0.96356  1.0000
  H   H1821     1.0  0.83689  0.38824  0.92771  1.0000
  H   H1822     1.0  0.85934  0.40061  0.89295  1.0000
  H   H1823     1.0  0.89888  0.37620  0.94819  1.0000
  H   H1824     1.0  0.96792  0.45387  0.77881  1.0000
  C   C1157     1.0  0.85934  0.37752  0.65035  1.0000
  C   C1158     1.0  0.86847  0.39224  0.65944  1.0000
  C   C1159     1.0  0.87293  0.39484  0.69070  1.0000
  C   C1160     1.0  0.86801  0.38288  0.71334  1.0000
  C   C1161     1.0  0.85877  0.36820  0.70428  1.0000
  C   C1162     1.0  0.85457  0.36545  0.67294  1.0000
  H   H1825     1.0  0.87220  0.40167  0.64216  1.0000
  H   H1826     1.0  0.87998  0.40621  0.69729  1.0000
  H   H1827     1.0  0.85489  0.35887  0.72160  1.0000
  H   H1828     1.0  0.84755  0.35407  0.66631  1.0000
  H   H1829     1.0  0.93611  0.45170  0.71526  1.0000
  H   H1830     1.0  0.99445  0.59171  0.62864  1.0000
  N   N114      1.0  0.94962  0.46685  0.74882  1.0000
  C   C1163     1.0  0.99841  0.58113  0.71596  1.0000
  Fe  Fe236     1.0  0.84089  0.34302  0.51494  1.0000
  C   C1164     1.0  0.99549  0.58861  0.65304  1.0000
  C   C1165     1.0  0.85957  0.34372  0.84275  1.0000
  H   H1831     1.0  0.99699  0.43801  0.84113  1.0000
  H   H1832     1.0  0.80593  0.62417  0.86931  1.0000
  H   H1833     1.0  0.95729  0.48448  0.78442  1.0000
  H   H1834     1.0  0.78559  0.63520  0.87387  1.0000
  H   H1835     1.0  0.76553  0.61054  0.83083  1.0000
  H   H1836     1.0  0.93985  0.49228  0.76021  1.0000
  C   C1166     1.0  0.79660  0.64014  0.81592  1.0000
  N   N115      1.0  0.78971  0.62393  0.82902  1.0000
  H   H1837     1.0  0.78980  0.65168  0.82563  1.0000
  H   H1838     1.0  0.76352  0.63359  0.83256  1.0000
  H   H1839     1.0  0.95853  0.48482  0.71436  1.0000
  C   C1167     1.0  0.96298  0.47294  0.72692  1.0000
  C   C1168     1.0  0.97442  0.62383  0.74570  1.0000
  H   H1840     1.0  0.81061  0.64148  0.82117  1.0000
  N   N116      1.0  0.80171  0.38986  0.62100  1.0000
  C   C1169     1.0  0.81511  0.39960  0.60405  1.0000
  C   C1170     1.0  0.80994  0.37518  0.63769  1.0000
  C   C1171     1.0  0.78889  0.38327  0.59883  1.0000
  C   C1172     1.0  0.79294  0.40139  0.64353  1.0000
  H   H1841     1.0  0.82171  0.39140  0.58633  1.0000
  H   H1842     1.0  0.82543  0.40410  0.61990  1.0000
  H   H1843     1.0  0.80953  0.41108  0.59183  1.0000
  H   H1844     1.0  0.80026  0.36727  0.65029  1.0000
  H   H1845     1.0  0.81705  0.36650  0.62144  1.0000
  H   H1846     1.0  0.81964  0.37967  0.65475  1.0000
  H   H1847     1.0  0.77821  0.37644  0.61088  1.0000
  H   H1848     1.0  0.79490  0.37388  0.58235  1.0000
  H   H1849     1.0  0.78294  0.39391  0.58482  1.0000
  H   H1850     1.0  0.78286  0.39438  0.65692  1.0000
  H   H1851     1.0  0.78647  0.41257  0.63174  1.0000
  H   H1852     1.0  0.80232  0.40663  0.66045  1.0000
  N   N117      1.0  0.86326  0.54000  0.62170  1.0000
  C   C1173     1.0  0.85976  0.55117  0.64873  1.0000
  C   C1174     1.0  0.88144  0.54186  0.61165  1.0000
  C   C1175     1.0  0.85165  0.54526  0.59609  1.0000
  C   C1176     1.0  0.86024  0.52178  0.63042  1.0000
  H   H1853     1.0  0.84617  0.55011  0.65698  1.0000
  H   H1854     1.0  0.86197  0.56503  0.64306  1.0000
  H   H1855     1.0  0.86833  0.54764  0.66850  1.0000
  H   H1856     1.0  0.88453  0.53370  0.59118  1.0000
  H   H1857     1.0  0.88427  0.55550  0.60524  1.0000
  H   H1858     1.0  0.89058  0.53796  0.63036  1.0000
  H   H1859     1.0  0.83781  0.54413  0.60285  1.0000
  H   H1860     1.0  0.85378  0.55902  0.58926  1.0000
  H   H1861     1.0  0.86286  0.51291  0.61068  1.0000
  H   H1862     1.0  0.84667  0.51986  0.63827  1.0000
  H   H1863     1.0  0.86889  0.51762  0.64983  1.0000
  N   N118      1.0  0.87302  0.35622  0.83396  1.0000
  H   H1864     1.0  0.88136  0.35950  0.88098  1.0000
  H   H1865     1.0  0.88226  0.61994  0.50636  1.0000
  Fe  Fe237     1.0  0.80807  0.33960  0.55769  1.0000
  H   H1866     1.0  0.93382  0.61964  0.71742  1.0000
  C   C1177     1.0  0.94773  0.63741  0.76322  1.0000
  C   C1178     1.0  0.88670  0.35612  0.85778  1.0000
  C   C1179     1.0  0.75758  0.65928  0.89027  1.0000
  C   C1180     1.0  0.76276  0.34078  0.58965  1.0000
  H   H1867     1.0  0.95647  0.60711  0.79014  1.0000
  S   S470      1.0  0.77277  0.65709  0.92109  1.0000
  S   S471      1.0  0.84980  0.65338  0.51322  1.0000
  H   H1868     1.0  0.99033  0.39702  0.75457  1.0000
  H   H1869     1.0  0.85360  0.34706  0.86556  1.0000
  C   C1181     1.0  0.76756  0.34210  0.62077  1.0000
  H   H1870     1.0  0.78653  0.61203  0.87389  1.0000
  C   C1182     1.0  0.94556  0.48056  0.77159  1.0000
  H   H1871     1.0  0.79520  0.64066  0.79031  1.0000
  H   H1872     1.0  0.79452  0.59654  0.82512  1.0000
  C   C1183     1.0  0.79202  0.62379  0.86297  1.0000
  H   H1873     1.0  0.94622  0.44604  0.78152  1.0000
  H   H1874     1.0  0.95941  0.44060  0.74872  1.0000
  H   H1875     1.0  0.85394  0.53717  0.57519  1.0000
  H   H1876     1.0  0.83972  0.61667  0.52020  1.0000
  C   C1184     1.0  0.77107  0.62278  0.82182  1.0000
  H   H1877     1.0  0.96617  0.46290  0.70930  1.0000
  H   H1878     1.0  0.93598  0.47608  0.78912  1.0000
  H   H1879     1.0  0.98044  0.62471  0.76898  1.0000
  H   H1880     1.0  0.92326  0.45873  0.74763  1.0000
  C   C1185     1.0  0.93380  0.46262  0.73156  1.0000
  H   H1881     1.0  0.79769  0.60866  0.78984  1.0000
  H   H1882     1.0  0.81330  0.60961  0.82035  1.0000
  H   H1883     1.0  0.87497  0.38359  0.82620  1.0000
  H   H1884     1.0  0.85875  0.37760  0.85372  1.0000
  N   N119      1.0  0.95543  0.62202  0.74793  1.0000
  H   H1885     1.0  0.87644  0.36389  0.98306  1.0000
  H   H1886     1.0  0.95318  0.60867  0.70462  1.0000
  H   H1887     1.0  0.89073  0.36057  0.79627  1.0000
  C   C1186     1.0  0.95131  0.60637  0.76619  1.0000
  H   H1888     1.0  0.93339  0.63632  0.76536  1.0000
  H   H1889     1.0  0.97796  0.63558  0.73224  1.0000
  H   H1890     1.0  0.95031  0.64943  0.74981  1.0000
  H   H1891     1.0  0.85525  0.37451  0.81295  1.0000
  H   H1892     1.0  0.95293  0.63905  0.78698  1.0000
  H   H1893     1.0  0.98055  0.61257  0.73370  1.0000
  H   H1894     1.0  0.84900  0.34356  0.82532  1.0000
  C   C1187     1.0  0.99173  0.40595  0.77356  1.0000
  S   S472      1.0  0.83816  0.36687  0.98239  1.0000
  C   C1188     1.0  0.99559  0.42907  0.82216  1.0000
  H   H1895     1.0  0.95686  0.59450  0.75531  1.0000
  S   S473      1.0  0.77827  0.33966  0.55883  1.0000
  Fe  Fe238     1.0  0.80215  0.66100  0.91942  1.0000
  H   H1896     1.0  0.88675  0.33821  0.80447  1.0000
  H   H1897     1.0  0.75863  0.34502  0.66803  1.0000
  H   H1898     1.0  0.88392  0.59818  0.49252  1.0000
  H   H1899     1.0  0.78112  0.34212  0.62680  1.0000
  H   H1900     1.0  0.89322  0.34323  0.85980  1.0000
  H   H1901     1.0  0.99947  0.57829  0.74044  1.0000
  H   H1902     1.0  0.90192  0.61251  0.48857  1.0000
  Fe  Fe239     1.0  0.83135  0.68784  0.41728  1.0000
  H   H1903     1.0  0.84424  0.68966  0.34702  1.0000
  S   S474      1.0  0.83977  0.71410  0.39780  1.0000
  C   C1189     1.0  0.77627  0.77939  0.42212  1.0000
  Fe  Fe240     1.0  0.91058  0.94601  0.18635  1.0000
  S   S475      1.0  0.91684  0.93262  0.23099  1.0000
  S   S476      1.0  0.91234  0.97561  0.18393  1.0000
  Fe  Fe241     1.0  0.90582  0.91104  0.15172  1.0000
  S   S477      1.0  0.91278  0.89583  0.19497  1.0000
  S   S478      1.0  0.89979  0.89333  0.10996  1.0000
  Fe  Fe242     1.0  0.89530  0.91461  0.21968  1.0000
  S   S479      1.0  0.87352  0.90809  0.25327  1.0000
  Fe  Fe243     1.0  0.93405  0.91503  0.20237  1.0000
  S   S480      1.0  0.95990  0.90810  0.22573  1.0000
  S   S481      1.0  0.88750  0.92933  0.17657  1.0000
  S   S482      1.0  0.92864  0.92901  0.15756  1.0000
  Fe  Fe244     1.0  0.82951  0.81717  0.43198  1.0000
  S   S483      1.0  0.81346  0.83705  0.45729  1.0000
  S   S484      1.0  0.82459  0.78999  0.45138  1.0000
  Fe  Fe245     1.0  0.84490  0.84551  0.39122  1.0000
  S   S485      1.0  0.82945  0.86709  0.41403  1.0000
  S   S486      1.0  0.86551  0.84755  0.35320  1.0000
  Fe  Fe246     1.0  0.83695  0.85389  0.45915  1.0000
  H   H1904     1.0  0.87807  0.85766  0.02420  1.0000
  Fe  Fe247     1.0  0.80707  0.84854  0.41080  1.0000
  S   S487      1.0  0.77805  0.85518  0.40598  1.0000
  S   S488      1.0  0.85347  0.83317  0.43659  1.0000
  S   S489      1.0  0.82207  0.82782  0.38523  1.0000
  C   C1190     1.0  0.76206  0.85000  0.37790  1.0000
  C   C1191     1.0  0.76637  0.84365  0.34851  1.0000
  H   H1905     1.0  0.77983  0.84164  0.34231  1.0000
  H   H1906     1.0  0.89490  0.67715  0.31308  1.0000
  C   C1192     1.0  0.98096  0.90902  0.20872  1.0000
  C   C1193     1.0  0.98342  0.91147  0.17689  1.0000
  H   H1907     1.0  0.77351  0.76699  0.41032  1.0000
  H   H1908     1.0  0.97230  0.91310  0.16194  1.0000
  H   H1909     1.0  0.81617  0.75613  0.47373  1.0000
  C   C1194     1.0  0.87159  0.89103  0.28065  1.0000
  C   C1195     1.0  0.85835  0.89206  0.30303  1.0000
  C   C1196     1.0  0.85629  0.87887  0.32535  1.0000
  C   C1197     1.0  0.86745  0.86445  0.32544  1.0000
  C   C1198     1.0  0.88063  0.86335  0.30285  1.0000
  C   C1199     1.0  0.88265  0.87653  0.28045  1.0000
  H   H1910     1.0  0.84966  0.90319  0.30328  1.0000
  H   H1911     1.0  0.84609  0.87989  0.34254  1.0000
  H   H1912     1.0  0.88923  0.85216  0.30261  1.0000
  H   H1913     1.0  0.89265  0.87541  0.26296  1.0000
  C   C1200     1.0  0.88397  0.88783  0.08138  1.0000
  C   C1201     1.0  0.88735  0.87372  0.06152  1.0000
  C   C1202     1.0  0.87518  0.86856  0.03904  1.0000
  C   C1203     1.0  0.85931  0.87743  0.03601  1.0000
  C   C1204     1.0  0.85594  0.89156  0.05582  1.0000
  C   C1205     1.0  0.86812  0.89675  0.07824  1.0000
  H   H1914     1.0  0.89950  0.86666  0.06359  1.0000
  C   C1206     1.0  0.79324  0.78949  0.37878  1.0000
  H   H1915     1.0  0.84380  0.89864  0.05369  1.0000
  H   H1916     1.0  0.86527  0.90775  0.09286  1.0000
  H   H1917     1.0  0.91234  0.91749  0.33141  1.0000
  C   C1207     1.0  0.90923  0.99035  0.21523  1.0000
  C   C1208     1.0  0.89840  0.98664  0.24041  1.0000
  H   H1918     1.0  0.90809  0.91514  0.29085  1.0000
  H   H1919     1.0  0.89226  0.97418  0.24183  1.0000
  C   C1209     1.0  0.83507  0.73510  0.41281  1.0000
  C   C1210     1.0  0.82607  0.73757  0.44066  1.0000
  C   C1211     1.0  0.82299  0.75445  0.45199  1.0000
  C   C1212     1.0  0.82877  0.76907  0.43564  1.0000
  C   C1213     1.0  0.83756  0.76664  0.40757  1.0000
  C   C1214     1.0  0.84072  0.74975  0.39630  1.0000
  H   H1920     1.0  0.86513  0.71268  0.33923  1.0000
  H   H1921     1.0  0.87716  0.71265  0.02128  1.0000
  H   H1922     1.0  0.84214  0.77773  0.39473  1.0000
  H   H1923     1.0  0.84770  0.74803  0.37476  1.0000
  C   C1215     1.0  0.78210  0.80977  0.41639  1.0000
  H   H1924     1.0  0.93561  0.89909  0.35608  1.0000
  N   N120      1.0  0.77852  0.79366  0.39960  1.0000
  H   H1925     1.0  0.78821  0.77725  0.43618  1.0000
  S   S490      1.0  0.81478  0.67942  0.45743  1.0000
  C   C1216     1.0  0.75323  0.84055  0.32661  1.0000
  C   C1217     1.0  0.85231  0.68095  0.33218  1.0000
  S   S491      1.0  0.84329  0.87167  0.00799  1.0000
  H   H1926     1.0  0.85030  0.66744  0.34033  1.0000
  C   C1218     1.0  0.87267  0.70378  0.32374  1.0000
  H   H1927     1.0  0.75124  0.79938  0.39613  1.0000
  H   H1928     1.0  0.78490  0.82048  0.40000  1.0000
  H   H1929     1.0  0.88624  0.99638  0.28211  1.0000
  H   H1930     1.0  0.82165  0.72647  0.45366  1.0000
  H   H1931     1.0  0.79126  0.77716  0.36624  1.0000
  N   N121      1.0  0.85787  0.87740  0.17354  1.0000
  C   C1219     1.0  0.84482  0.87408  0.19791  1.0000
  C   C1220     1.0  0.85809  0.89612  0.16654  1.0000
  C   C1221     1.0  0.85356  0.86780  0.14515  1.0000
  C   C1222     1.0  0.87511  0.87170  0.18463  1.0000
  H   H1932     1.0  0.84786  0.88119  0.21961  1.0000
  H   H1933     1.0  0.84431  0.86008  0.20395  1.0000
  H   H1934     1.0  0.83165  0.87836  0.19045  1.0000
  H   H1935     1.0  0.84551  0.90083  0.15703  1.0000
  H   H1936     1.0  0.86073  0.90377  0.18774  1.0000
  H   H1937     1.0  0.86829  0.89918  0.14914  1.0000
  H   H1938     1.0  0.86341  0.86991  0.12661  1.0000
  H   H1939     1.0  0.84081  0.87204  0.13560  1.0000
  H   H1940     1.0  0.85309  0.85363  0.14958  1.0000
  H   H1941     1.0  0.88528  0.87405  0.16675  1.0000
  H   H1942     1.0  0.87546  0.85765  0.19028  1.0000
  H   H1943     1.0  0.87877  0.87880  0.20594  1.0000
  N   N122      1.0  0.87076  0.68556  0.33353  1.0000
  H   H1944     1.0  0.92178  0.87824  0.28340  1.0000
  H   H1945     1.0  0.94384  0.88399  0.27530  1.0000
  H   H1946     1.0  0.99395  0.90487  0.25230  1.0000
  H   H1947     1.0  0.79349  0.80819  0.43182  1.0000
  H   H1948     1.0  0.88643  0.70777  0.32452  1.0000
  H   H1949     1.0  0.77093  0.81407  0.43096  1.0000
  H   H1950     1.0  0.75676  0.83610  0.30370  1.0000
  H   H1951     1.0  0.90330  0.89788  0.31715  1.0000
  H   H1952     1.0  0.85094  0.69753  0.00129  1.0000
  H   H1953     1.0  0.87855  0.68182  0.00489  1.0000
  H   H1954     1.0  0.79518  0.79991  0.36122  1.0000
  H   H1955     1.0  0.76546  0.78225  0.43852  1.0000
  H   H1956     1.0  0.87475  0.72950  0.99268  1.0000
  H   H1957     1.0  0.89090  0.68692  0.36763  1.0000
  H   H1958     1.0  0.92651  0.89641  0.25884  1.0000
  H   H1959     1.0  0.80555  0.78809  0.39196  1.0000
  N   N123      1.0  0.93045  0.90083  0.30730  1.0000
  C   C1223     1.0  0.94280  0.91498  0.30210  1.0000
  C   C1224     1.0  0.93561  0.89080  0.33509  1.0000
  C   C1225     1.0  0.93061  0.88931  0.28010  1.0000
  C   C1226     1.0  0.91281  0.90816  0.31190  1.0000
  H   H1960     1.0  0.93932  0.92280  0.28127  1.0000
  H   H1961     1.0  0.95617  0.90987  0.29794  1.0000
  H   H1962     1.0  0.94316  0.92394  0.32213  1.0000
  H   H1963     1.0  0.92656  0.87999  0.33961  1.0000
  H   H1964     1.0  0.94884  0.88506  0.33234  1.0000
  H   H1965     1.0  0.86790  0.70592  0.29973  1.0000
  H   H1966     1.0  0.87579  0.66982  0.37377  1.0000
  C   C1227     1.0  0.88042  0.71635  0.99702  1.0000
  H   H1967     1.0  0.86954  0.69182  0.38194  1.0000
  C   C1228     1.0  0.87705  0.68343  0.36562  1.0000
  H   H1968     1.0  0.89474  0.71736  0.99527  1.0000
  C   C1229     1.0  0.99565  0.90684  0.22767  1.0000
  H   H1969     1.0  0.75947  0.78428  0.36788  1.0000
  C   C1230     1.0  0.88089  0.67405  0.31278  1.0000
  S   S492      1.0  0.81925  0.66991  0.38284  1.0000
  H   H1970     1.0  0.76389  0.80697  0.36423  1.0000
  C   C1231     1.0  0.76258  0.79611  0.38114  1.0000
  S   S493      1.0  0.85209  0.66847  0.42988  1.0000
  H   H1971     1.0  0.84717  0.68195  0.30821  1.0000
  H   H1972     1.0  0.87635  0.67512  0.28841  1.0000
  C   C1232     1.0  0.89498  0.99930  0.26323  1.0000
  Fe  Fe248     1.0  0.83185  0.68605  0.90931  1.0000
  C   C1233     1.0  0.89320  0.90108  0.93380  1.0000
  S   S494      1.0  0.84085  0.71337  0.89703  1.0000
  H   H1973     1.0  0.84434  0.79963  0.57635  1.0000
  Fe  Fe249     1.0  0.91030  0.94064  0.69136  1.0000
  S   S495      1.0  0.91793  0.92255  0.73025  1.0000
  S   S496      1.0  0.91580  0.96980  0.69168  1.0000
  Fe  Fe250     1.0  0.90101  0.90980  0.64688  1.0000
  S   S497      1.0  0.90785  0.89033  0.68402  1.0000
  S   S498      1.0  0.89805  0.90058  0.59604  1.0000
  Fe  Fe251     1.0  0.89385  0.90806  0.71741  1.0000
  S   S499      1.0  0.87201  0.90068  0.75084  1.0000
  Fe  Fe252     1.0  0.93131  0.90658  0.69329  1.0000
  S   S500      1.0  0.95775  0.89264  0.69391  1.0000
  S   S501      1.0  0.88558  0.92695  0.67957  1.0000
  S   S502      1.0  0.92508  0.92537  0.65525  1.0000
  Fe  Fe253     1.0  0.83034  0.81577  0.94116  1.0000
  S   S503      1.0  0.81392  0.83548  0.96685  1.0000
  S   S504      1.0  0.82533  0.78777  0.95685  1.0000
  Fe  Fe254     1.0  0.84577  0.84427  0.90051  1.0000
  S   S505      1.0  0.82955  0.86526  0.92256  1.0000
  S   S506      1.0  0.86845  0.84984  0.86806  1.0000
  Fe  Fe255     1.0  0.83718  0.85275  0.96802  1.0000
  S   S507      1.0  0.84119  0.86588  0.50764  1.0000
  Fe  Fe256     1.0  0.80760  0.84640  0.91974  1.0000
  S   S508      1.0  0.77890  0.85400  0.91362  1.0000
  S   S509      1.0  0.85412  0.83217  0.94609  1.0000
  S   S510      1.0  0.82329  0.82620  0.89395  1.0000
  C   C1234     1.0  0.76292  0.84779  0.88634  1.0000
  C   C1235     1.0  0.76726  0.84022  0.85792  1.0000
  H   H1974     1.0  0.78073  0.83799  0.85199  1.0000
  H   H1975     1.0  0.83401  0.83698  0.55565  1.0000
  C   C1236     1.0  0.97809  0.90283  0.69005  1.0000
  C   C1237     1.0  0.97955  0.92082  0.68961  1.0000
  C   C1238     1.0  0.99316  0.89252  0.68640  1.0000
  H   H1976     1.0  0.96808  0.92893  0.69220  1.0000
  H   H1977     1.0  0.88902  0.86724  0.92172  1.0000
  C   C1239     1.0  0.87144  0.88645  0.78336  1.0000
  C   C1240     1.0  0.85582  0.88480  0.79996  1.0000
  C   C1241     1.0  0.85462  0.87360  0.82578  1.0000
  C   C1242     1.0  0.86907  0.86386  0.83528  1.0000
  C   C1243     1.0  0.88474  0.86560  0.81887  1.0000
  C   C1244     1.0  0.88594  0.87681  0.79305  1.0000
  H   H1978     1.0  0.84453  0.89219  0.79265  1.0000
  H   H1979     1.0  0.84249  0.87245  0.83815  1.0000
  H   H1980     1.0  0.89602  0.85816  0.82605  1.0000
  H   H1981     1.0  0.89803  0.87794  0.78054  1.0000
  C   C1245     1.0  0.88202  0.89070  0.57215  1.0000
  C   C1246     1.0  0.88640  0.88616  0.54144  1.0000
  C   C1247     1.0  0.87422  0.87856  0.52142  1.0000
  C   C1248     1.0  0.85732  0.87548  0.53169  1.0000
  C   C1249     1.0  0.85299  0.87984  0.56248  1.0000
  C   C1250     1.0  0.86520  0.88734  0.58256  1.0000
  H   H1982     1.0  0.89928  0.88870  0.53291  1.0000
  H   H1983     1.0  0.86119  0.91346  0.94659  1.0000
  H   H1984     1.0  0.84001  0.87758  0.57087  1.0000
  H   H1985     1.0  0.86151  0.89074  0.60598  1.0000
  C   C1251     1.0  0.85476  0.70268  0.97816  1.0000
  C   C1252     1.0  0.91213  0.98487  0.72224  1.0000
  C   C1253     1.0  0.89979  0.98212  0.74549  1.0000
  H   H1986     1.0  0.87331  0.69982  0.92546  1.0000
  H   H1987     1.0  0.89270  0.97017  0.74597  1.0000
  C   C1254     1.0  0.83566  0.73399  0.91326  1.0000
  C   C1255     1.0  0.82508  0.73589  0.93946  1.0000
  C   C1256     1.0  0.82214  0.75242  0.95243  1.0000
  C   C1257     1.0  0.82946  0.76731  0.93916  1.0000
  C   C1258     1.0  0.83972  0.76547  0.91258  1.0000
  C   C1259     1.0  0.84289  0.74890  0.89990  1.0000
  H   H1988     1.0  0.81929  0.72461  0.94990  1.0000
  H   H1989     1.0  0.89806  0.89990  0.95798  1.0000
  H   H1990     1.0  0.84546  0.77676  0.90207  1.0000
  H   H1991     1.0  0.85107  0.74763  0.87960  1.0000
  C   C1260     1.0  0.78306  0.80807  0.92188  1.0000
  H   H1992     1.0  0.76724  0.78014  0.94465  1.0000
  N   N124      1.0  0.85089  0.81665  0.53872  1.0000
  C   C1261     1.0  0.99592  0.92839  0.68604  1.0000
  C   C1262     1.0  0.86465  0.82897  0.53060  1.0000
  H   H1993     1.0  0.79459  0.80698  0.93714  1.0000
  H   H1994     1.0  0.85841  0.88685  0.89393  1.0000
  N   N125      1.0  0.77994  0.79171  0.90550  1.0000
  H   H1995     1.0  0.75768  0.83035  0.81465  1.0000
  H   H1996     1.0  0.79308  0.77535  0.87239  1.0000
  H   H1997     1.0  0.89226  0.71037  0.93942  1.0000
  H   H1998     1.0  0.81415  0.75367  0.97296  1.0000
  H   H1999     1.0  0.99211  0.87858  0.68618  1.0000
  H   H2000     1.0  0.82331  0.81711  0.54637  1.0000
  C   C1263     1.0  0.83396  0.82583  0.53940  1.0000
  H   H2001     1.0  0.86714  0.86625  0.93469  1.0000
  C   C1264     1.0  0.77819  0.77756  0.92840  1.0000
  H   H2002     1.0  0.87188  0.72194  0.93708  1.0000
  H   H2003     1.0  0.87784  0.87534  0.49791  1.0000
  H   H2004     1.0  0.86513  0.83979  0.54750  1.0000
  H   H2005     1.0  0.79013  0.77604  0.94262  1.0000
  C   C1265     1.0  0.85444  0.80904  0.56956  1.0000
  C   C1266     1.0  0.85049  0.80279  0.51529  1.0000
  C   C1267     1.0  0.79470  0.78785  0.88460  1.0000
  H   H2006     1.0  0.89595  0.68656  0.97843  1.0000
  C   C1268     1.0  0.87806  0.70920  0.94286  1.0000
  H   H2007     1.0  0.87763  0.82255  0.53000  1.0000
  H   H2008     1.0  0.85470  0.81924  0.58770  1.0000
  H   H2009     1.0  0.89169  0.91511  0.92830  1.0000
  H   H2010     1.0  0.88033  0.88832  0.88108  1.0000
  H   H2011     1.0  0.86758  0.89808  0.97603  1.0000
  H   H2012     1.0  0.80709  0.78694  0.89763  1.0000
  H   H2013     1.0  0.83063  0.83120  0.51623  1.0000
  N   N126      1.0  0.87374  0.70366  0.97478  1.0000
  H   H2014     1.0  0.88364  0.87143  0.96183  1.0000
  H   H2015     1.0  0.99689  0.94235  0.68600  1.0000
  N   N127      1.0  0.95176  0.89261  0.59547  1.0000
  C   C1269     1.0  0.96077  0.88036  0.57449  1.0000
  C   C1270     1.0  0.94036  0.88290  0.61669  1.0000
  C   C1271     1.0  0.94127  0.90504  0.57704  1.0000
  C   C1272     1.0  0.96467  0.90207  0.61366  1.0000
  H   H2016     1.0  0.96954  0.88724  0.55823  1.0000
  H   H2017     1.0  0.95136  0.87303  0.56043  1.0000
  H   H2018     1.0  0.96875  0.87078  0.58776  1.0000
  H   H2019     1.0  0.93336  0.89172  0.63277  1.0000
  H   H2020     1.0  0.93029  0.87574  0.60389  1.0000
  H   H2021     1.0  0.94783  0.87356  0.63139  1.0000
  H   H2022     1.0  0.93414  0.91436  0.59219  1.0000
  H   H2023     1.0  0.93130  0.89835  0.56318  1.0000
  H   H2024     1.0  0.94940  0.91269  0.56089  1.0000
  H   H2025     1.0  0.97290  0.89305  0.62761  1.0000
  H   H2026     1.0  0.95831  0.91115  0.63028  1.0000
  H   H2027     1.0  0.97337  0.90980  0.59860  1.0000
  N   N128      1.0  0.87668  0.89197  0.93009  1.0000
  H   H2028     1.0  0.86717  0.80209  0.56998  1.0000
  C   C1273     1.0  0.86356  0.89948  0.95137  1.0000
  C   C1274     1.0  0.87932  0.87344  0.93749  1.0000
  C   C1275     1.0  0.87069  0.89384  0.89774  1.0000
  C   C1276     1.0  0.75414  0.83596  0.83673  1.0000
  H   H2029     1.0  0.75252  0.79672  0.90215  1.0000
  H   H2030     1.0  0.88648  0.99287  0.78526  1.0000
  C   C1277     1.0  0.88163  0.68644  0.98104  1.0000
  C   C1278     1.0  0.76388  0.79347  0.88718  1.0000
  H   H2031     1.0  0.86838  0.90763  0.89124  1.0000
  H   H2032     1.0  0.79626  0.79818  0.86676  1.0000
  H   H2033     1.0  0.75342  0.67316  0.81546  1.0000
  H   H2034     1.0  0.84928  0.69399  0.96053  1.0000
  H   H2035     1.0  0.78544  0.81878  0.90525  1.0000
  S   S511      1.0  0.81669  0.67851  0.95162  1.0000
  H   H2036     1.0  0.86291  0.79532  0.51438  1.0000
  H   H2037     1.0  0.83991  0.79351  0.51998  1.0000
  H   H2038     1.0  0.90338  0.89566  0.91811  1.0000
  H   H2039     1.0  0.77185  0.81209  0.93659  1.0000
  H   H2040     1.0  0.85093  0.89286  0.94930  1.0000
  H   H2041     1.0  0.87662  0.67651  0.96495  1.0000
  H   H2042     1.0  0.77598  0.76495  0.91694  1.0000
  C   C1279     1.0  0.89626  0.99506  0.76772  1.0000
  H   H2043     1.0  0.86237  0.83495  0.50742  1.0000
  S   S512      1.0  0.81610  0.66986  0.87673  1.0000
  H   H2044     1.0  0.76102  0.78135  0.87458  1.0000
  H   H2045     1.0  0.76487  0.80404  0.86966  1.0000
  H   H2046     1.0  0.84840  0.71558  0.97492  1.0000
  H   H2047     1.0  0.77473  0.67202  0.85852  1.0000
  C   C1280     1.0  0.76196  0.66677  0.86178  1.0000
  H   H2048     1.0  0.84817  0.80821  0.49170  1.0000
