data_image0
_chemical_formula_structural       FeS2FeS2FeSFeS3FeS2FeS2FeSFeS3FeS2FeS2FeSFeS3FeS2FeS2FeSFeS3FeS2FeS2FeSFeS3FeS2FeS2FeSFeS3FeS2FeS2FeSFeS3FeS2FeS2FeSFeS3FeS2FeS2FeSFeS3FeS2FeS2FeSFeS3FeS2FeS2FeSFeS3FeS2FeS2FeSFeS3FeS2FeS2FeSFeS3FeS2FeS2FeSFeS3FeS2FeS2FeSFeS3FeS2FeS2FeSFeS3C6H4C6H4C6H4C6H4C6H4C6H4C6H4C6H4C6H4C6H4C6H4C6H4C6H4C6H4C6H4C6H4C6H4C6H4C6H4C6H4C6H4C6H4C6H4C6H4C6H4C6H4C6H4C6H4C6H4C6H4C6H4C6H4NC4H12NC4H12NC4H12NC4H12NC4H12NC4H12NC4H12NC4H12NC4H12NC4H12NC4H12NC4H12NC4H12NC4H12NC4H12NC4H12NC4H12NC4H12NC4H12NC4H12NC4H12NC4H12NC4H12NC4H12NC4H12NC4H12NC4H12NC4H12NC4H12NC4H12NC4H12NC4H12
_chemical_formula_sum              "Fe64 S128 C320 H512 N32"
_cell_length_a       32.894761954030976
_cell_length_b       32.85002932032351
_cell_length_c       27.406430686149296
_cell_angle_alpha    89.77580294896241
_cell_angle_beta     89.26935075186574
_cell_angle_gamma    90.64362208571131

_space_group_name_H-M_alt    "P 1"
_space_group_IT_number       1

loop_
  _space_group_symop_operation_xyz
  'x, y, z'

loop_
  _atom_site_type_symbol
  _atom_site_label
  _atom_site_symmetry_multiplicity
  _atom_site_fract_x
  _atom_site_fract_y
  _atom_site_fract_z
  _atom_site_occupancy
  Fe  Fe1       1.0  0.9808854349914901  0.43194676632092766  0.9347779305372856  1.0000
  S   S1        1.0  0.03880655559006385  0.4085905590140775  0.9019790367732572  1.0000
  S   S2        1.0  0.9883660933446762  0.47902268462655717  0.9931433235475372  1.0000
  Fe  Fe2       1.0  0.9286868338628286  0.37031288974163584  0.8820530210778263  1.0000
  S   S3        1.0  0.9818329661175295  0.3418965277058808  0.8444436350182287  1.0000
  S   S4        1.0  0.8681113428162329  0.34072242626291765  0.8707054711058951  1.0000
  Fe  Fe3       1.0  0.011910097032106659  0.34679241764446644  0.9168562172170467  1.0000
  S   S5        1.0  0.039188958027486676  0.29148172545806605  0.9507157538980515  1.0000
  Fe  Fe4       1.0  0.0033084678766255315  0.40607227207655383  0.8329121781121932  1.0000
  S   S6        1.0  0.032069421973189405  0.4239408845220389  0.7614762063908544  1.0000
  S   S7        1.0  0.956938901103664  0.37024519260966376  0.9557574340018952  1.0000
  S   S8        1.0  0.9469464164237774  0.4345702867332048  0.8641133651846807  1.0000
  Fe  Fe5       1.0  0.7739867074785104  0.27297670964163523  0.6493736781399738  1.0000
  S   S9        1.0  0.7604492936307558  0.21829584103609817  0.6032479320655474  1.0000
  S   S10       1.0  0.8353798239378112  0.3038530204121139  0.6500602644390305  1.0000
  Fe  Fe6       1.0  0.6876850364218037  0.2763609989294823  0.689488998121975  1.0000
  S   S11       1.0  0.6674008546592853  0.22104997879192284  0.649081504287341  1.0000
  S   S12       1.0  0.6425556838404172  0.31001227113710517  0.7346333597959227  1.0000
  Fe  Fe7       1.0  0.7272734928459488  0.19525450116261403  0.6700591527315896  1.0000
  S   S13       1.0  0.7338844751985758  0.13212310894609547  0.7002581895072332  1.0000
  Fe  Fe8       1.0  0.702119566784321  0.250140951106409  0.5871359750129329  1.0000
  S   S14       1.0  0.6716569176761272  0.257039789739306  0.5154172705056406  1.0000
  S   S15       1.0  0.7442939515531077  0.24812911735769191  0.7173641514832484  1.0000
  S   S16       1.0  0.7188568927522807  0.3071719920096801  0.6265044514129412  1.0000
  Fe  Fe9       1.0  0.7403172121863589  0.8729859677316097  0.39626225480245175  1.0000
  S   S17       1.0  0.6909940469933858  0.8772507728830826  0.45307002067990293  1.0000
  S   S18       1.0  0.7266511836502398  0.8754747628522617  0.3165850439333063  1.0000
  Fe  Fe10      1.0  0.8074211476474931  0.8718018578911678  0.4703224167557862  1.0000
  S   S19       1.0  0.7647307621177694  0.8766374584787254  0.5346423572199116  1.0000
  S   S20       1.0  0.8753204957592042  0.8671923992093821  0.47043031284372944  1.0000
  Fe  Fe11      1.0  0.7270657397651346  0.8310854114535327  0.4937490833703071  1.0000
  S   S21       1.0  0.6959521029499669  0.7783659803214208  0.5311076359808019  1.0000
  Fe  Fe12      1.0  0.732284679205848  0.9223222583329483  0.4887558636061833  1.0000
  S   S22       1.0  0.7068226469861918  0.9815852734954146  0.5146084757662563  1.0000
  S   S23       1.0  0.77252166199506  0.8221345405779147  0.4332115967735617  1.0000
  S   S24       1.0  0.778685909476126  0.9220414237126019  0.4283757717859539  1.0000
  Fe  Fe13      1.0  0.008826183628207973  0.6301199015485185  0.6594436448430658  1.0000
  S   S25       1.0  0.9418258728411889  0.6369807160910026  0.6514342705719085  1.0000
  S   S26       1.0  0.032906863716328116  0.613941444007195  0.7327568087004191  1.0000
  Fe  Fe14      1.0  0.02656758089965483  0.6547630136428895  0.5548949451811025  1.0000
  S   S27       1.0  0.9608888564655846  0.6663071133338777  0.5380389663051404  1.0000
  S   S28       1.0  0.07962988016519357  0.6501193236764867  0.5033196814833463  1.0000
  Fe  Fe15      1.0  0.9590753320922868  0.6947891200057974  0.6124549850038525  1.0000
  S   S29       1.0  0.9226393121938486  0.7474302608110688  0.6393949893928408  1.0000
  Fe  Fe16      1.0  0.9498689275580882  0.6076585685793912  0.5787153615894591  1.0000
  S   S30       1.0  0.911355183209494  0.5561449896300353  0.5511389749345198  1.0000
  S   S31       1.0  0.026089222051443484  0.6897139804217635  0.6250388538476147  1.0000
  S   S32       1.0  0.015434900733013679  0.5943227956916892  0.5909939268464939  1.0000
  Fe  Fe17      1.0  0.5702527264812284  0.8909168870981973  0.7071812177354073  1.0000
  S   S33       1.0  0.5969991711591427  0.8621406617002465  0.7734508098169174  1.0000
  S   S34       1.0  0.5467612334720073  0.8470979696953829  0.651477006081958  1.0000
  Fe  Fe18      1.0  0.5844330760345913  0.9764392026732537  0.7444400613287242  1.0000
  S   S35       1.0  0.6108945511162907  0.9545477044131577  0.8141336295111291  1.0000
  S   S36       1.0  0.5892289158712499  0.04408470822572985  0.7376505144357492  1.0000
  Fe  Fe19      1.0  0.6447528135536283  0.9109950081355487  0.7665703191729522  1.0000
  S   S37       1.0  0.7125462487276178  0.9043168663303703  0.7680494658026262  1.0000
  Fe  Fe20      1.0  0.5603395175550857  0.9084915449642716  0.8139965791521045  1.0000
  S   S38       1.0  0.5265258369095583  0.8910362403423739  0.8827707238912234  1.0000
  S   S39       1.0  0.6212758616387823  0.9358983407592872  0.6965126228042563  1.0000
  S   S40       1.0  0.5301594561372474  0.9342874065587197  0.748189146628276  1.0000
  Fe  Fe21      1.0  0.3113999520753852  0.7017684405002728  0.9167250755832026  1.0000
  S   S41       1.0  0.3135816769874147  0.6600998556937476  0.8520869919439231  1.0000
  S   S42       1.0  0.29659892860623716  0.6795792484138619  0.9923426321231812  1.0000
  Fe  Fe22      1.0  0.3334964933343265  0.7765765692814225  0.8573098107943953  1.0000
  S   S43       1.0  0.33765497310952647  0.7418143782674346  0.7874132785914256  1.0000
  S   S44       1.0  0.34177638085323214  0.8443626738704343  0.8529909507092304  1.0000
  Fe  Fe23      1.0  0.2809004675858162  0.7103199228094422  0.8141941171270048  1.0000
  S   S45       1.0  0.2310368705866593  0.7008409156623195  0.7606128416475192  1.0000
  Fe  Fe24      1.0  0.36985010098888527  0.6952027895215506  0.8316363990109248  1.0000
  S   S46       1.0  0.4248042208791795  0.6622654365878021  0.8048955178916692  1.0000
  S   S47       1.0  0.27372338190598205  0.7491300088970181  0.8805537205119741  1.0000
  S   S48       1.0  0.3710566283517063  0.7326594073625218  0.8998153382909507  1.0000
  Fe  Fe25      1.0  0.3065694798559653  0.49463888070523876  0.5332651277741393  1.0000
  S   S49       1.0  0.292218314935154  0.459311823597727  0.6016811816288793  1.0000
  S   S50       1.0  0.33631769615948753  0.472227854566255  0.464820376918474  1.0000
  Fe  Fe26      1.0  0.27695447450205407  0.5737364628076133  0.5750802012606581  1.0000
  S   S51       1.0  0.26059795651722134  0.5466507655797761  0.6478586563899797  1.0000
  S   S52       1.0  0.2609002270594677  0.6364606782863453  0.5515700663239521  1.0000
  Fe  Fe27      1.0  0.3195870907669666  0.5134558800024263  0.6394315309618431  1.0000
  S   S53       1.0  0.36641097609983797  0.5028581901925592  0.6968086547593523  1.0000
  Fe  Fe28      1.0  0.23462426608458467  0.4955253840913791  0.6038771951749026  1.0000
  S   S54       1.0  0.16983269428641395  0.47602743788388946  0.6162554993321834  1.0000
  S   S55       1.0  0.33848299607015414  0.5459666979576013  0.5706421349093417  1.0000
  S   S56       1.0  0.24648482205122285  0.5251833792608298  0.5317204650231598  1.0000
  Fe  Fe29      1.0  0.45548912614339193  0.2562328278052986  0.5033894537325262  1.0000
  S   S57       1.0  0.43836229413654626  0.29342880844973557  0.4385447582865545  1.0000
  S   S58       1.0  0.4877244518982705  0.2874471118695543  0.5649200940663042  1.0000
  Fe  Fe30      1.0  0.4243260787308935  0.17723423879477848  0.4585627401413088  1.0000
  S   S59       1.0  0.40464364394802943  0.20820379987686724  0.38989365673685217  1.0000
  S   S60       1.0  0.4235267326704356  0.10911330231402881  0.46371405889424927  1.0000
  Fe  Fe31      1.0  0.46387616255839753  0.24199609860903853  0.39482432443481225  1.0000
  S   S61       1.0  0.5061051760913758  0.25230228173553365  0.33078224019454794  1.0000
  Fe  Fe32      1.0  0.3809965951014879  0.2559009842577804  0.4407391530579712  1.0000
  S   S62       1.0  0.31907530505395304  0.28316574968911384  0.4349033109643358  1.0000
  S   S63       1.0  0.4854702257892025  0.20726107224848148  0.4597640154243726  1.0000
  S   S64       1.0  0.39602659827400083  0.22239974654690106  0.5096394166679563  1.0000
  Fe  Fe33      1.0  0.9422793463261804  0.01906900030787262  0.9195439612649979  1.0000
  S   S65       1.0  0.9003612389847816  0.019514321589135575  0.984619242887383  1.0000
  S   S66       1.0  0.9916489078238301  0.9740736444584017  0.9050963879237073  1.0000
  Fe  Fe34      1.0  0.900780193042795  0.08920155153529574  0.8702415875695183  1.0000
  S   S67       1.0  0.8546888425531545  0.09606539584986029  0.9302785229097121  1.0000
  S   S68       1.0  0.9023298560441368  0.13257483273009263  0.8070954667778933  1.0000
  Fe  Fe35      1.0  0.9073868528488925  0.08748800035291993  0.9797707752597554  1.0000
  S   S69       1.0  0.9125358175021128  0.12936871327550215  0.043784858240522695  1.0000
  Fe  Fe36      1.0  0.8511607703307807  0.02815491297878059  0.9297863148416373  1.0000
  S   S70       1.0  0.7895056481264239  8.947584048701884e-05  0.9433367274584512  1.0000
  S   S71       1.0  0.954217783487396  0.08634136177749596  0.9197675868696633  1.0000
  S   S72       1.0  0.8924488622832585  0.021776756850761858  0.8645151118585067  1.0000
  Fe  Fe37      1.0  0.017280959059206236  0.774433959299663  0.009249457819282325  1.0000
  S   S73       1.0  0.010250757849032288  0.709526760039736  0.034090112091178515  1.0000
  S   S74       1.0  0.0021013135342331513  0.8288429539728471  0.05476402919097434  1.0000
  Fe  Fe38      1.0  0.047932137064848446  0.7515836694752257  0.9091731628246263  1.0000
  S   S75       1.0  0.04508026497591611  0.6849392177278534  0.9248911925740224  1.0000
  S   S76       1.0  0.06380910438912801  0.7711543575383444  0.8331410692156248  1.0000
  Fe  Fe39      1.0  0.9850109087669056  0.6985758256306439  0.9594850417384863  1.0000
  S   S77       1.0  0.9351572469974139  0.6566867539003866  0.9354172035621966  1.0000
  Fe  Fe40      1.0  0.07087142514065436  0.7014756279421913  0.9971139112011849  1.0000
  S   S78       1.0  0.11733773561230934  0.6618798157411498  0.03198743498124812  1.0000
  S   S79       1.0  0.985636832705251  0.7644189307281147  0.9384770618767451  1.0000
  S   S80       1.0  0.0801238785443026  0.7674863039626671  0.9781434047204768  1.0000
  Fe  Fe41      1.0  0.7902643815882656  0.1338898469603595  0.36688939318850805  1.0000
  S   S81       1.0  0.7488054189153883  0.09003682918765565  0.3296954165754077  1.0000
  S   S82       1.0  0.8284009292079764  0.11215291391873938  0.4282575158500384  1.0000
  Fe  Fe42      1.0  0.7697232598048106  0.20226729467629412  0.30014413249317595  1.0000
  S   S83       1.0  0.7258876706502819  0.16549348126316704  0.25552693872270793  1.0000
  S   S84       1.0  0.7879061413168996  0.26749990077507124  0.28722889695932  1.0000
  Fe  Fe43      1.0  0.7044174963606747  0.14069713800885228  0.32766847363472523  1.0000
  S   S85       1.0  0.6409952959220486  0.11829980621242009  0.342283093026468  1.0000
  Fe  Fe44      1.0  0.7728922591215474  0.116956361288997  0.26034654510563454  1.0000
  S   S86       1.0  0.7816269313003579  0.07194189493862813  0.20038033139278416  1.0000
  S   S87       1.0  0.7432568020622814  0.18235850265880582  0.3726087117497682  1.0000
  S   S88       1.0  0.8192810495431256  0.15587409233899627  0.29751273030805814  1.0000
  Fe  Fe45      1.0  0.04382690261779243  0.35005815180637007  0.3211256780337965  1.0000
  S   S89       1.0  0.03862865302049202  0.30410638889458486  0.3814495875390578  1.0000
  S   S90       1.0  0.06373093540088039  0.33379462016221084  0.24496756140124917  1.0000
  Fe  Fe46      1.0  0.022857386250393796  0.4201240808930556  0.3864283379029042  1.0000
  S   S91       1.0  0.015517753009538282  0.3816609283189834  0.4537656723520933  1.0000
  S   S92       1.0  0.022527680372943282  0.4879284072506365  0.3834473027277911  1.0000
  Fe  Fe47      1.0  0.07134654497700854  0.3501357896509552  0.42685051136103985  1.0000
  S   S93       1.0  0.12616237523411977  0.33482927242216526  0.4701509964109756  1.0000
  Fe  Fe48      1.0  0.9829694364605978  0.33859536481543445  0.40382980208607483  1.0000
  S   S94       1.0  0.9308762629659846  0.300943457018547  0.4331492608420885  1.0000
  S   S95       1.0  0.08210314489320414  0.3928142956492872  0.3647433443102378  1.0000
  S   S96       1.0  0.9847379555975946  0.3803099019560019  0.3385764260844476  1.0000
  Fe  Fe49      1.0  0.4447619056604725  0.19834298595685837  0.9742663150067549  1.0000
  S   S97       1.0  0.403296193953981  0.2116743499766635  0.9121842218344511  1.0000
  S   S98       1.0  0.42261440240862463  0.1786998412453417  0.048255179978852425  1.0000
  Fe  Fe50      1.0  0.5206746878191963  0.2078228056074226  0.9129622203291288  1.0000
  S   S99       1.0  0.48655345700377545  0.22352951131210289  0.8453368954216701  1.0000
  S   S100      1.0  0.5873393205686129  0.19640790111206974  0.908118532975024  1.0000
  Fe  Fe51      1.0  0.4485523013176713  0.2616855997227686  0.8952543911189327  1.0000
  S   S101      1.0  0.4252532528217087  0.32163024143783586  0.8687402385321297  1.0000
  Fe  Fe52      1.0  0.4449284540504989  0.17251319664830309  0.8680435968258481  1.0000
  S   S102      1.0  0.4277800705832165  0.12242631194719378  0.817087879704432  1.0000
  S   S103      1.0  0.48704325335612036  0.25131118581864464  0.9612952309969297  1.0000
  S   S104      1.0  0.481818908782194  0.15407794671859967  0.9316132096753319  1.0000
  Fe  Fe53      1.0  0.23602282431098842  0.4405915052818081  0.12554819182586985  1.0000
  S   S105      1.0  0.2758562557807249  0.3879737414506408  0.10786104924711282  1.0000
  S   S106      1.0  0.21014748779437764  0.45425049839933807  0.1993270716976303  1.0000
  Fe  Fe54      1.0  0.22824170944891473  0.46672708937329827  0.020731276278763255  1.0000
  S   S107      1.0  0.2654848414770768  0.4148618930531301  0.9923020738692488  1.0000
  S   S108      1.0  0.20233474488546513  0.513437851168844  0.9699966846948883  1.0000
  Fe  Fe55      1.0  0.23173719031284007  0.3769710395669287  0.04787016095373997  1.0000
  S   S109      1.0  0.21277037892263695  0.31179780865406964  0.04152211346509538  1.0000
  Fe  Fe56      1.0  0.30670354849466164  0.4301528325712365  0.05422312251455219  1.0000
  S   S110      1.0  0.3746074714389156  0.43225762547332663  0.04559765873420796  1.0000
  S   S111      1.0  0.18943536167507904  0.4268452083443758  0.06914990647335229  1.0000
  S   S112      1.0  0.271977647734381  0.4845448866359819  0.07911049464686082  1.0000
  Fe  Fe57      1.0  0.2648839624995031  0.7928233362106415  0.32071226110014966  1.0000
  S   S113      1.0  0.2786765872579913  0.7444739516661688  0.2657485875325568  1.0000
  S   S114      1.0  0.3170035696653804  0.8259799879675322  0.35456478009820624  1.0000
  Fe  Fe58      1.0  0.1742033200145629  0.7759987486125104  0.31861201270528  1.0000
  S   S115      1.0  0.18020624095750792  0.7264257700679979  0.26320526274095807  1.0000
  S   S116      1.0  0.11261596536852429  0.7903748191117573  0.3493160894429356  1.0000
  Fe  Fe59      1.0  0.23307727623024613  0.7068928384889274  0.30775158610052655  1.0000
  S   S117      1.0  0.24639383812142332  0.641357325295162  0.32378721010943234  1.0000
  Fe  Fe60      1.0  0.22489969000396867  0.7692041312686899  0.22691710640156534  1.0000
  S   S118      1.0  0.22759929440178905  0.7837722754041144  0.14709026261790425  1.0000
  S   S119      1.0  0.22402803048506306  0.7534504433978028  0.36640449614394416  1.0000
  S   S120      1.0  0.21439117418381706  0.8208418680201415  0.27859183615577654  1.0000
  Fe  Fe61      1.0  0.4702492918272873  0.9181551823607432  0.19830227174492765  1.0000
  S   S121      1.0  0.5351871083397811  0.9387166755414378  0.18724954099052732  1.0000
  S   S122      1.0  0.4428093800814961  0.8569888542592672  0.18309035811195423  1.0000
  Fe  Fe62      1.0  0.44139080091302096  0.0006339863417359481  0.23040617215736353  1.0000
  S   S123      1.0  0.5031623486431596  0.02853962096839968  0.22290294230157245  1.0000
  S   S124      1.0  0.3897974255311528  0.04026645851757582  0.2536241166194049  1.0000
  Fe  Fe63      1.0  0.5075174795508336  0.9938380980610034  0.15334386352515694  1.0000
  S   S125      1.0  0.5351539542915348  0.029205301641074932  0.09108849287550358  1.0000
  Fe  Fe64      1.0  0.5252758035060214  0.9716965343122442  0.25807775535983635  1.0000
  S   S126      1.0  0.5697158686899769  0.9832246297012215  0.3180355777929012  1.0000
  S   S127      1.0  0.44337598953750706  0.9702846675978809  0.1576236304020275  1.0000
  S   S128      1.0  0.46262157860145997  0.9464751157488668  0.2721987017302874  1.0000
  C   C1        1.0  0.4083619452055263  0.8475647048591668  0.23098491248005376  1.0000
  C   C2        1.0  0.4212451467613394  0.8486126216873672  0.2794488544285978  1.0000
  C   C3        1.0  0.39311618377814916  0.8423213079084306  0.3177025609507668  1.0000
  C   C4        1.0  0.35217750269737474  0.8350056275113068  0.30732396473948437  1.0000
  C   C5        1.0  0.3392353970648312  0.8346409443944545  0.25891622264930786  1.0000
  C   C6        1.0  0.36733222928625076  0.8410375776664891  0.22081810621396272  1.0000
  H   H1        1.0  0.45302757694646195  0.8538963485215417  0.28733257187090644  1.0000
  H   H2        1.0  0.40322465805837865  0.8427640244772334  0.3550957878740741  1.0000
  H   H3        1.0  0.3074420571404165  0.8301996848037476  0.25073671912217543  1.0000
  H   H4        1.0  0.3571871572192378  0.8422219043305208  0.183568324629658  1.0000
  C   C7        1.0  0.45469316637168744  0.13868889618949165  0.06369142279416606  1.0000
  C   C8        1.0  0.4955763303125061  0.13964327105850516  0.048838724502900055  1.0000
  C   C9        1.0  0.5203733733608478  0.10593789024674272  0.05707317442413529  1.0000
  C   C10       1.0  0.5045467235524554  0.07169430735497895  0.08135888515050915  1.0000
  C   C11       1.0  0.464078028655182  0.07147231845045532  0.09774044640520385  1.0000
  C   C12       1.0  0.4391127698742951  0.10485975057761499  0.08884724437833569  1.0000
  H   H5        1.0  0.5081040715268521  0.1663308324677475  0.030623612964464808  1.0000
  H   H6        1.0  0.5517643133163888  0.10653963570638192  0.0447590514659999  1.0000
  H   H7        1.0  0.45158404474244024  0.045411431128231206  0.11662713942590108  1.0000
  H   H8        1.0  0.407531744685728  0.103997788178746  0.10044353192410749  1.0000
  C   C13       1.0  0.41454888157204356  0.3559871212131408  0.9156890147273684  1.0000
  C   C14       1.0  0.4382561422515515  0.35732305618015675  0.9576690225990607  1.0000
  C   C15       1.0  0.42715366337216226  0.38268914826662126  0.996595965430449  1.0000
  C   C16       1.0  0.3916971416959261  0.4056971259704049  0.9940855744319348  1.0000
  C   C17       1.0  0.36899770325203873  0.4055630446857957  0.9513182104444293  1.0000
  C   C18       1.0  0.38070751012815907  0.3811549276753203  0.9119020649139475  1.0000
  H   H9        1.0  0.4650449416893067  0.33873118693991805  0.9602068086897955  1.0000
  H   H10       1.0  0.44514349432071143  0.3831979778423065  0.029385818313214074  1.0000
  H   H11       1.0  0.34233242184969553  0.4241060146373196  0.9485935190544843  1.0000
  H   H12       1.0  0.36263246509682173  0.3805060788853233  0.8791724033604718  1.0000
  C   C19       1.0  0.10297260870506748  0.3680593325560557  0.2286827584257678  1.0000
  C   C20       1.0  0.10310558732054834  0.4075073646849109  0.2477205691222661  1.0000
  C   C21       1.0  0.1362407876132975  0.4337890988485466  0.23900754308930927  1.0000
  C   C22       1.0  0.16866497966067512  0.42128197547748003  0.20949191470863715  1.0000
  C   C23       1.0  0.16759126780625078  0.3826261566565476  0.18807294957199772  1.0000
  C   C24       1.0  0.13487720361537783  0.35588467226415504  0.19798458806110175  1.0000
  H   H13       1.0  0.07734108209849412  0.41804647359613073  0.2687980161353065  1.0000
  H   H14       1.0  0.13643201043113345  0.463967973566778  0.25468219933711955  1.0000
  H   H15       1.0  0.19251389109588424  0.3728310969937166  0.1649608013759163  1.0000
  H   H16       1.0  0.1348364515781617  0.3255239918136434  0.18275978491352718  1.0000
  C   C25       1.0  0.8907387227179261  0.29360515408806476  0.39277355973752576  1.0000
  C   C26       1.0  0.8688526653737446  0.2570239357284937  0.3953233723474398  1.0000
  C   C27       1.0  0.8369414064792811  0.2496402182946377  0.3634422614918678  1.0000
  C   C28       1.0  0.826706670399782  0.2786571047107323  0.3284598601400573  1.0000
  C   C29       1.0  0.8482764577732413  0.31563253131869135  0.3259755772295655  1.0000
  C   C30       1.0  0.8804378995085395  0.3231239312968011  0.3582013903498948  1.0000
  H   H17       1.0  0.8771429720835828  0.23377480236807033  0.42117740961551026  1.0000
  H   H18       1.0  0.820571102901587  0.22115897865055648  0.3659915672219579  1.0000
  H   H19       1.0  0.8402974758989048  0.3383048097875205  0.2990936615220759  1.0000
  H   H20       1.0  0.8969418908269549  0.3517669834985297  0.35658614285548057  1.0000
  C   C31       1.0  0.1534961939143514  0.692754931951979  0.060259287990449106  1.0000
  C   C32       1.0  0.16724134579816752  0.6821267528784893  0.10652598395204205  1.0000
  C   C33       1.0  0.19151871284453192  0.7094220917201874  0.1327597758519463  1.0000
  C   C34       1.0  0.20203833283597109  0.747263742415575  0.11249227365771497  1.0000
  C   C35       1.0  0.1902818937627106  0.7569052496815737  0.06504901550653619  1.0000
  C   C36       1.0  0.16594413871738878  0.7296169768211975  0.03893855725764417  1.0000
  H   H21       1.0  0.15769280402646713  0.6534572507810907  0.1224806937122993  1.0000
  H   H22       1.0  0.20173753335658096  0.7013605867729966  0.16869040068584157  1.0000
  H   H23       1.0  0.19905397897566995  0.7858563563820933  0.04891196963834754  1.0000
  H   H24       1.0  0.15688099966726501  0.7370346005908978  0.0022825733397777714  1.0000
  C   C37       1.0  0.8751064545297741  0.114848579972195  0.08672156142110832  1.0000
  C   C38       1.0  0.8481285788634331  0.08289064144858527  0.07643235890214162  1.0000
  C   C39       1.0  0.8195819197127651  0.0697643626596609  0.11156641929677312  1.0000
  C   C40       1.0  0.8171435610408715  0.08931305424869729  0.15665397384133814  1.0000
  C   C41       1.0  0.8431976004723418  0.12218376918311667  0.16648487454474048  1.0000
  C   C42       1.0  0.8724161948113492  0.13475471795554156  0.13166699945841587  1.0000
  H   H25       1.0  0.8490484773069206  0.06821869568425476  0.04136175337671766  1.0000
  H   H26       1.0  0.7992040015763517  0.044660303676185675  0.10351088206500103  1.0000
  H   H27       1.0  0.8412445546207229  0.13765229847265545  0.20095420460188484  1.0000
  H   H28       1.0  0.8929694193918846  0.15971777896899833  0.1395293260564343  1.0000
  C   C43       1.0  0.9978691983733424  0.9360488115021304  0.9492345004977737  1.0000
  C   C44       1.0  0.9834454098880253  0.9406190000030191  0.9971678287351889  1.0000
  C   C45       1.0  0.9865106272925993  0.9082905535552643  0.030643344694605057  1.0000
  C   C46       1.0  0.003283442131291059  0.8712825663653382  0.01577300409353044  1.0000
  C   C47       1.0  0.018708465610315805  0.8673436161275699  0.9682944577607354  1.0000
  C   C48       1.0  0.016186345324534335  0.8996838394473299  0.9352143867637055  1.0000
  H   H29       1.0  0.9700909131981106  0.9690122297372834  0.0084603753995256  1.0000
  H   H30       1.0  0.9747853063099046  0.9115718746198904  0.06746357862687447  1.0000
  H   H31       1.0  0.03226887397925138  0.8392463917703692  0.956596199935036  1.0000
  H   H32       1.0  0.02761011974677796  0.8961500822563198  0.898264174545331  1.0000
  C   C49       1.0  0.54319235407881  0.21451293252525053  0.33153932622397125  1.0000
  C   C50       1.0  0.534796786124273  0.1771075655666679  0.3541939303722035  1.0000
  C   C51       1.0  0.5647610612934582  0.1473025415791428  0.3562241109949823  1.0000
  C   C52       1.0  0.6033559096743801  0.1550038980622135  0.3360983757628676  1.0000
  C   C53       1.0  0.6113579750272709  0.19168912030503632  0.311540442832219  1.0000
  C   C54       1.0  0.5810392459852899  0.2213378891777072  0.30881816872490103  1.0000
  H   H33       1.0  0.5050377644445324  0.17082934511991807  0.36974485011895997  1.0000
  H   H34       1.0  0.5581434010294929  0.11854913651157352  0.37416807512835565  1.0000
  H   H35       1.0  0.6408472746085468  0.1972040169191246  0.2948019078559945  1.0000
  H   H36       1.0  0.587171684489156  0.24988432847916492  0.2901721500661627  1.0000
  C   C55       1.0  0.41380294732334866  0.08993935163002309  0.4055010561759687  1.0000
  C   C56       1.0  0.4387202208271897  0.05977170819285682  0.38592747483084305  1.0000
  C   C57       1.0  0.43213076218303365  0.04533705422400369  0.3386403275541672  1.0000
  C   C58       1.0  0.39975228604050544  0.060138317679851554  0.3114370305061287  1.0000
  C   C59       1.0  0.37446514232744443  0.089974811148011  0.33115402155925666  1.0000
  C   C60       1.0  0.3816825932300089  0.10509305796160322  0.37806846677510325  1.0000
  H   H37       1.0  0.4635251281324317  0.04810085606632297  0.40705046741932727  1.0000
  H   H38       1.0  0.45201270381239494  0.022547617298813494  0.323579641019159  1.0000
  H   H39       1.0  0.34930387791410356  0.10139130819738518  0.3102636091697051  1.0000
  H   H40       1.0  0.3619650985951156  0.12799263980642714  0.39345079699944335  1.0000
  C   C61       1.0  0.25311465399768057  0.6337060420335842  0.48875221192170487  1.0000
  C   C62       1.0  0.22530387049667125  0.6595416416492499  0.4668711372648766  1.0000
  C   C63       1.0  0.22131025044030336  0.6595472931708193  0.41616725421164347  1.0000
  C   C64       1.0  0.24552784919521314  0.6345481043028163  0.38713821352732797  1.0000
  C   C65       1.0  0.2718423457034042  0.6070687596691292  0.4091138753001887  1.0000
  C   C66       1.0  0.27555405467235866  0.6065674537710138  0.46004057964077594  1.0000
  H   H41       1.0  0.20709316755962487  0.679869982203205  0.4889075647379293  1.0000
  H   H42       1.0  0.19955054101129005  0.6791571458714645  0.3994533124641384  1.0000
  H   H43       1.0  0.2906961650824374  0.5875075452457977  0.3868481821976052  1.0000
  H   H44       1.0  0.2972822399012163  0.586530040959187  0.4767895451550635  1.0000
  C   C67       1.0  0.13783510051290912  0.3730825292979136  0.5122442090194812  1.0000
  C   C68       1.0  0.10694167257597072  0.39430582037664774  0.5363837688723619  1.0000
  C   C69       1.0  0.11682805150747495  0.42508397053045577  0.5697147362215474  1.0000
  C   C70       1.0  0.1576003693814282  0.4353300368656876  0.5778592683702961  1.0000
  C   C71       1.0  0.18839367041286598  0.414409651022132  0.5532857730732522  1.0000
  C   C72       1.0  0.17854624833094176  0.3828921386870535  0.5210943595098947  1.0000
  H   H45       1.0  0.0755294887974789  0.38625774529829376  0.5303432207670725  1.0000
  H   H46       1.0  0.09299510981995751  0.4411819103287622  0.5888340060742226  1.0000
  H   H47       1.0  0.21983269538097724  0.4221133797428466  0.5596253501110602  1.0000
  H   H48       1.0  0.20247702546197988  0.36628494012370266  0.5028558847723676  1.0000
  C   C73       1.0  0.33048060475439917  0.4198844427858551  0.45622637085361056  1.0000
  C   C74       1.0  0.35687441031838624  0.3999193518976865  0.4241814432113275  1.0000
  C   C75       1.0  0.35366933992056415  0.35774536944841284  0.41812326132348004  1.0000
  C   C76       1.0  0.32366510714140007  0.3356201366909374  0.44356851307725736  1.0000
  C   C77       1.0  0.2968360877991533  0.3556423335559276  0.475159123982673  1.0000
  C   C78       1.0  0.30046532584686975  0.39780902635073223  0.48181682057628616  1.0000
  H   H49       1.0  0.3800780614590189  0.41703663188089574  0.4043311584766607  1.0000
  H   H50       1.0  0.3739325825784812  0.34246959423923523  0.3929662569556455  1.0000
  H   H51       1.0  0.2737562623511988  0.3384386021989043  0.4951003933186549  1.0000
  H   H52       1.0  0.27995099204042284  0.41323874765026125  0.5064543576078696  1.0000
  C   C79       1.0  0.22301784137964337  0.5623582426667207  0.9788232140779173  1.0000
  C   C80       1.0  0.22572172672494348  0.5895300855288572  0.939461496717768  1.0000
  C   C81       1.0  0.24550515678149393  0.6271992426196599  0.9448083327242951  1.0000
  C   C82       1.0  0.26408753878109237  0.637092130018063  0.9888785329721748  1.0000
  C   C83       1.0  0.2593530627656635  0.6110577493366828  0.029071274000686653  1.0000
  C   C84       1.0  0.23830708668944187  0.5739678932455095  0.024139741750764276  1.0000
  H   H53       1.0  0.21346580553976038  0.5811958332461943  0.9044450512067862  1.0000
  H   H54       1.0  0.24707111666271842  0.6481911546723875  0.9144699917255047  1.0000
  H   H55       1.0  0.2727679929154278  0.6191124364499788  0.06357741189723676  1.0000
  H   H56       1.0  0.2339066983018149  0.5544781532413413  0.05536636828918606  1.0000
  C   C85       1.0  0.1833976802927869  0.7168627252842605  0.7816299558891031  1.0000
  C   C86       1.0  0.15545571710174  0.7312916061773366  0.7478367853607398  1.0000
  C   C87       1.0  0.11837048181066227  0.7472553859547533  0.7638447724507639  1.0000
  C   C88       1.0  0.1088861874701515  0.7482635696744054  0.8136807837667662  1.0000
  C   C89       1.0  0.13630651791088017  0.7327802375103113  0.8475513444667448  1.0000
  C   C90       1.0  0.17379249748998116  0.717376185009531  0.8315194216433195  1.0000
  H   H57       1.0  0.16304500393398955  0.731396506866032  0.7093462038730123  1.0000
  H   H58       1.0  0.09721930232824194  0.7592867974177091  0.7376528585057884  1.0000
  H   H59       1.0  0.12903026016412714  0.7334501253825377  0.8861449655866896  1.0000
  H   H60       1.0  0.1951249665049521  0.7057727348432276  0.8577203991971152  1.0000
  C   C91       1.0  0.4093110371165173  0.6191845777523168  0.7719694257343931  1.0000
  C   C92       1.0  0.43429065730471  0.5850258996209765  0.7701608459098077  1.0000
  C   C93       1.0  0.42090136881315376  0.5493924725195802  0.7470067660507854  1.0000
  C   C94       1.0  0.3830536733750351  0.5482017420615022  0.7242339506749522  1.0000
  C   C95       1.0  0.3584526113909268  0.5827061786139189  0.7249878672376492  1.0000
  C   C96       1.0  0.37134842215235536  0.6180119189223408  0.7493888321377207  1.0000
  H   H61       1.0  0.46358591396057336  0.58575555267346  0.7876712662803429  1.0000
  H   H62       1.0  0.43999100442706557  0.5227790668013855  0.7465117528069041  1.0000
  H   H63       1.0  0.32916990719913486  0.581985343893937  0.7075629481511126  1.0000
  H   H64       1.0  0.3519885835170033  0.6444039294702018  0.7503627950063579  1.0000
  C   C97       1.0  0.5442685812451985  0.06502368144548232  0.7601770510580558  1.0000
  C   C98       1.0  0.5461588111123741  0.09897138198737188  0.7905792145237557  1.0000
  C   C99       1.0  0.5103481725108973  0.11614951955315989  0.8086467990639113  1.0000
  C   C100      1.0  0.472506686068112  0.09987891350470068  0.7957438335106203  1.0000
  C   C101      1.0  0.47061870671397577  0.065639792312703  0.7656414037475054  1.0000
  C   C102      1.0  0.5065700035632005  0.04791921524964349  0.7482460042287571  1.0000
  H   H65       1.0  0.5752504005889183  0.11197274168943916  0.8004235839080787  1.0000
  H   H66       1.0  0.5122464046351487  0.1422146660272634  0.8322439180361599  1.0000
  H   H67       1.0  0.441393912245848  0.05295852504125098  0.7556241193264708  1.0000
  H   H68       1.0  0.5050506022861543  0.02171525110916961  0.7245397595095374  1.0000
  C   C103      1.0  0.7341067367395524  0.9299570589496745  0.8173307138844114  1.0000
  C   C104      1.0  0.7748352598145392  0.942579553074423  0.8146367981561796  1.0000
  C   C105      1.0  0.7917753025508051  0.965137741502047  0.852695581490456  1.0000
  C   C106      1.0  0.7684233595306933  0.9739392854105818  0.8941786508417544  1.0000
  C   C107      1.0  0.7280506417241167  0.9603396993733078  0.8974933741329028  1.0000
  C   C108      1.0  0.7108567566116473  0.9384790763456416  0.8590016012952066  1.0000
  H   H69       1.0  0.7932953673979799  0.9350433826793393  0.7830840997579073  1.0000
  H   H70       1.0  0.8230329547766662  0.9749703686983212  0.8501906739540311  1.0000
  H   H71       1.0  0.7101936559988427  0.9662669886789298  0.9300883682570393  1.0000
  H   H72       1.0  0.6800788146135592  0.9270087049168044  0.8623516284576377  1.0000
  C   C109      1.0  0.475077638513123  0.8787921579367962  0.8744019337728671  1.0000
  C   C110      1.0  0.45691401340401955  0.8480744945143722  0.9029757726124293  1.0000
  C   C111      1.0  0.4159841427762524  0.8373812344622891  0.8963751231571615  1.0000
  C   C112      1.0  0.3927711402731473  0.8581697898072204  0.862142598847692  1.0000
  C   C113      1.0  0.41053348596506917  0.8898905805071172  0.8347277387995464  1.0000
  C   C114      1.0  0.45181289888606546  0.8998449440828159  0.8403731442139586  1.0000
  H   H73       1.0  0.47466678148703084  0.8321936141953379  0.9298908354355883  1.0000
  H   H74       1.0  0.40219338133945376  0.8136585949051169  0.9185927548970808  1.0000
  H   H75       1.0  0.39256656634712306  0.9062938043396516  0.8084957757050255  1.0000
  H   H76       1.0  0.4652932010468381  0.9243404868235833  0.8191018168564065  1.0000
  C   C115      1.0  0.09976687097119985  0.7508429576455111  0.39031212618051764  1.0000
  C   C116      1.0  0.07003498548000175  0.7558733575501232  0.4268966652621565  1.0000
  C   C117      1.0  0.06263566375799234  0.7247385055159985  0.4615320184041593  1.0000
  C   C118      1.0  0.0849948946688539  0.6887334445381592  0.4592528957349236  1.0000
  C   C119      1.0  0.11351659072606046  0.68339952520774  0.42175425907856673  1.0000
  C   C120      1.0  0.1208234163485038  0.7142513661768217  0.38739653663611956  1.0000
  H   H77       1.0  0.05351201333582156  0.7841114579610023  0.42919115800749963  1.0000
  H   H78       1.0  0.04035416099820832  0.7289633698538572  0.4903898353460077  1.0000
  H   H79       1.0  0.13030600027588868  0.655445063845871  0.4195221478383677  1.0000
  H   H80       1.0  0.1430070974411355  0.7097305609605158  0.35871802935108127  1.0000
  C   C121      1.0  0.9872348998488748  0.5076061052462337  0.4249641747741802  1.0000
  C   C122      1.0  0.9568444436892151  0.4828183201279646  0.4460814361265329  1.0000
  C   C123      1.0  0.9311813839036962  0.4985585308559861  0.48260471392713006  1.0000
  C   C124      1.0  0.9372395573577423  0.5383953148511494  0.49926198151240725  1.0000
  C   C125      1.0  0.9668792023847939  0.5631964346703023  0.47695117439540885  1.0000
  C   C126      1.0  0.9911619170769155  0.5481616156918416  0.439155580074411  1.0000
  H   H81       1.0  0.9531564792073711  0.4516296942162791  0.43428501188891405  1.0000
  H   H82       1.0  0.907580516431401  0.47953413048419574  0.498737109359667  1.0000
  H   H83       1.0  0.9715171468556106  0.5940245973841798  0.48886418907944806  1.0000
  H   H84       1.0  0.013857618978452946  0.5677425327021112  0.42202469089830347  1.0000
  C   C127      1.0  0.7414799794457313  0.01958248860057643  0.4964511981022294  1.0000
  C   C128      1.0  0.727480543252349  0.057978461289698524  0.48312270437294985  1.0000
  C   C129      1.0  0.754650972589899  0.08700215321446958  0.46365362743542493  1.0000
  C   C130      1.0  0.7960444027973289  0.07820841042664539  0.4593769499696255  1.0000
  C   C131      1.0  0.8104795140564648  0.040693475728823314  0.4754800573787738  1.0000
  C   C132      1.0  0.7830786245116246  0.011193941610257108  0.49364839185093273  1.0000
  H   H85       1.0  0.6955404673654687  0.06490916381817224  0.4861149524705508  1.0000
  H   H86       1.0  0.7434137513850002  0.11606715909727328  0.4513961957657849  1.0000
  H   H87       1.0  0.8424870572174832  0.033818375646382126  0.47211479816197666  1.0000
  H   H88       1.0  0.7941509041567608  0.9818704359699165  0.5052461250165172  1.0000
  C   C133      1.0  0.6845730937604585  0.9072211930214656  0.31299137902056373  1.0000
  C   C134      1.0  0.6540343938683706  0.8999258156277121  0.2789534968373398  1.0000
  C   C135      1.0  0.6184416343023388  0.9231294084331704  0.2801649425052137  1.0000
  C   C136      1.0  0.6140140324688523  0.9542005429155724  0.3145494709530104  1.0000
  C   C137      1.0  0.6455517628882548  0.9625816405438298  0.3468208201006485  1.0000
  C   C138      1.0  0.6804570422459824  0.9388347239562504  0.34654633079878644  1.0000
  H   H89       1.0  0.6570234054598203  0.8751203139968958  0.2533283280129394  1.0000
  H   H90       1.0  0.594113436738107  0.9160247811728446  0.25555232843108666  1.0000
  H   H91       1.0  0.6430949549713004  0.987173945232162  0.3724368913147051  1.0000
  H   H92       1.0  0.7039794938608981  0.9447817457450826  0.3728183206846171  1.0000
  C   C139      1.0  0.6544612479974353  0.7974063878119947  0.564505370570149  1.0000
  C   C140      1.0  0.6225857280628333  0.7713724442506131  0.5792429428032903  1.0000
  C   C141      1.0  0.5890392862084232  0.7868570806735283  0.6050622771064302  1.0000
  C   C142      1.0  0.5878438070256589  0.8281873881346026  0.6172336567331149  1.0000
  C   C143      1.0  0.6197914157232515  0.854124978687761  0.6026487622736884  1.0000
  C   C144      1.0  0.6528710329237708  0.8388448010658387  0.5759683182683573  1.0000
  H   H93       1.0  0.6236001719479868  0.7393870351377695  0.5701499178882271  1.0000
  H   H94       1.0  0.5643630115424144  0.7667167864357366  0.6161403163998549  1.0000
  H   H95       1.0  0.6186459620826087  0.8861680779813254  0.610924845314064  1.0000
  H   H96       1.0  0.6772434362880804  0.8591690670239783  0.5645635737409056  1.0000
  C   C145      1.0  0.8916011896271759  0.8371033153428625  0.5191445841260617  1.0000
  C   C146      1.0  0.9250371041098658  0.811473438537111  0.5130670073852843  1.0000
  C   C147      1.0  0.9357221661149201  0.784495211075788  0.5505376905076996  1.0000
  C   C148      1.0  0.9134635450932264  0.7839568514570532  0.5943827358067212  1.0000
  C   C149      1.0  0.8815637959638315  0.8111889389451742  0.6013737464893756  1.0000
  C   C150      1.0  0.8701782279553782  0.8372149040601295  0.563490980922311  1.0000
  H   H97       1.0  0.941836079982276  0.8115491001051107  0.47884667399332864  1.0000
  H   H98       1.0  0.9607313760673174  0.7638065621168773  0.5451887480162416  1.0000
  H   H99       1.0  0.8646898858678461  0.811202649246201  0.6355277366335226  1.0000
  H   H100      1.0  0.8450511981237991  0.8576429564566512  0.5687872223899425  1.0000
  C   C151      1.0  0.6280927762636064  0.2791812675731109  0.7838827953832047  1.0000
  C   C152      1.0  0.5965000856868528  0.29110919835971183  0.8149746232670888  1.0000
  C   C153      1.0  0.5844883993061302  0.2659316738569441  0.8539887127233494  1.0000
  C   C154      1.0  0.604616780006462  0.22930832466934684  0.8622727725683133  1.0000
  C   C155      1.0  0.6366065990748798  0.21773403776995925  0.8316310450472203  1.0000
  C   C156      1.0  0.6479947903703136  0.24243020667256196  0.7920437049828833  1.0000
  H   H101      1.0  0.5809442721073094  0.3194726589926603  0.8086110921093769  1.0000
  H   H102      1.0  0.5597035386889965  0.27495481530803073  0.8777885071432713  1.0000
  H   H103      1.0  0.6517322521678416  0.1892200735241714  0.8376088316376767  1.0000
  H   H104      1.0  0.6717768230740571  0.23260205575095563  0.7676029650049476  1.0000
  C   C157      1.0  0.781535967194476  0.13050433664687047  0.7279296593905961  1.0000
  C   C158      1.0  0.8105218129653361  0.16090723222456124  0.7176268766303531  1.0000
  C   C159      1.0  0.8479090789356979  0.1610148763641864  0.7414736581868913  1.0000
  C   C160      1.0  0.8561940512880162  0.13095781672437615  0.7760856552339429  1.0000
  C   C161      1.0  0.827387977403671  0.10023582663034537  0.7861055022893568  1.0000
  C   C162      1.0  0.7902375635381531  0.09973290567289461  0.7615425679101473  1.0000
  H   H105      1.0  0.8041980335707217  0.18444630659416436  0.691323102743863  1.0000
  H   H106      1.0  0.8701580648544326  0.18476954439461235  0.7337208606225831  1.0000
  H   H107      1.0  0.8337887807684677  0.07685216921803707  0.8126803615995246  1.0000
  H   H108      1.0  0.7682211231973317  0.07588194283087013  0.7691313143489139  1.0000
  C   C163      1.0  0.6215679836462811  0.2725968636005254  0.5273248739270732  1.0000
  C   C164      1.0  0.6099927798511395  0.28589288725771467  0.5739561904322492  1.0000
  C   C165      1.0  0.5689792374797783  0.29342656427929975  0.5848792564255716  1.0000
  C   C166      1.0  0.5395912112941809  0.2878188302258067  0.5490915864773551  1.0000
  C   C167      1.0  0.5517724204458883  0.2787714317544383  0.501337601214603  1.0000
  C   C168      1.0  0.5925510461197522  0.2704476798280311  0.4905867006429906  1.0000
  H   H109      1.0  0.6323862870711506  0.28969907222129987  0.6020024090623598  1.0000
  H   H110      1.0  0.5599896669500949  0.3021429163000559  0.6213938272441629  1.0000
  H   H111      1.0  0.5296540522632414  0.2773184754279455  0.4726905933662091  1.0000
  H   H112      1.0  0.6010091692660412  0.2608653417701378  0.45426518399225296  1.0000
  C   C169      1.0  0.1655202814041099  0.3063009293534512  0.01395817330091842  1.0000
  C   C170      1.0  0.1495653049628194  0.33772864193265356  0.9857171262848363  1.0000
  C   C171      1.0  0.11127331451089795  0.332845210910816  0.9644048613024859  1.0000
  C   C172      1.0  0.08864783823261391  0.29708248030050677  0.9725339101004739  1.0000
  C   C173      1.0  0.1048730809872378  0.2656541039686357  0.00046465540258888716  1.0000
  C   C174      1.0  0.14339780642189126  0.2701513949563852  0.02089429644072016  1.0000
  H   H113      1.0  0.16701907306035169  0.3654254855030803  0.9795774260880471  1.0000
  H   H114      1.0  0.09946392018563355  0.3566080188544676  0.9415408913877256  1.0000
  H   H115      1.0  0.08755300081269257  0.2378519070748417  0.006556735115427648  1.0000
  H   H116      1.0  0.15582147872551677  0.2457890124193085  0.042595376855101064  1.0000
  C   C175      1.0  0.9714258959073856  0.5278149981820831  0.9778116511684651  1.0000
  C   C176      1.0  0.9857767611348999  0.5612285392719989  0.00427760469827132  1.0000
  C   C177      1.0  0.9746939598098829  0.6007724015707862  0.9910844563984446  1.0000
  C   C178      1.0  0.9482449565939713  0.6070207312381604  0.9522935210364992  1.0000
  C   C179      1.0  0.9333479448854275  0.5735878548299234  0.9262010397643587  1.0000
  C   C180      1.0  0.9452984590125626  0.5339958755874585  0.938634789723615  1.0000
  H   H117      1.0  0.006075550257061302  0.5566409312975972  0.03451762769788003  1.0000
  H   H118      1.0  0.9862427227445271  0.6263638857972323  0.011453035924582355  1.0000
  H   H119      1.0  0.9129408893405113  0.5783012109122724  0.8961131601678728  1.0000
  H   H120      1.0  0.9338202564094492  0.5083399682779902  0.918357011426343  1.0000
  C   C181      1.0  0.03298197401938241  0.4767567290681942  0.7537724061251428  1.0000
  C   C182      1.0  0.04969157460291074  0.4938616907220747  0.7111069600614872  1.0000
  C   C183      1.0  0.04883916275274003  0.5360965603245228  0.7038301674116275  1.0000
  C   C184      1.0  0.03224794849666779  0.5611653609825932  0.7399116660258014  1.0000
  C   C185      1.0  0.015963469213957637  0.5441174401599947  0.7827339893198458  1.0000
  C   C186      1.0  0.016206180692381  0.501896828514657  0.7895377407618925  1.0000
  H   H121      1.0  0.063569474160172  0.47444609128216597  0.6839133930871643  1.0000
  H   H122      1.0  0.061884451028459075  0.5491714369065374  0.6708653790847496  1.0000
  H   H123      1.0  0.002889071325066883  0.5634975021660942  0.810527650038009  1.0000
  H   H124      1.0  0.0035860500347821844  0.48885993202174377  0.8226028266401527  1.0000
  C   C187      1.0  0.8649401594908479  0.3277052476777799  0.8090204474462124  1.0000
  C   C188      1.0  0.8457384593379693  0.2913347969414187  0.7957884151872231  1.0000
  C   C189      1.0  0.8392712172587463  0.28270545798798735  0.7465124530517112  1.0000
  C   C190      1.0  0.8507343749740489  0.310946964788157  0.7104943640825919  1.0000
  C   C191      1.0  0.8718258549138652  0.34644437203704875  0.7235278758885013  1.0000
  C   C192      1.0  0.8792100303217435  0.35470375442944674  0.7728731346946487  1.0000
  H   H125      1.0  0.8357139834128109  0.26985471347045265  0.8235944958504079  1.0000
  H   H126      1.0  0.8255422188131697  0.25405811960685093  0.7364460242209651  1.0000
  H   H127      1.0  0.8810854619664729  0.3682177471351779  0.6957473865033765  1.0000
  H   H128      1.0  0.8944262670704684  0.38272423038035475  0.7830695706795623  1.0000
  N   N1        1.0  0.4850160094066023  0.00790428797316034  0.9360856886966209  1.0000
  C   C193      1.0  0.47559259330778714  0.04938033473070802  0.9532066283801426  1.0000
  C   C194      1.0  0.5129477772403013  0.9882747507760077  0.9706258073336421  1.0000
  C   C195      1.0  0.5043850544072384  0.01028419891053467  0.8871328473524125  1.0000
  C   C196      1.0  0.44699512983008133  0.9836662761221067  0.9334258830510268  1.0000
  H   H129      1.0  0.45493130764454864  0.06527512251670697  0.9276293032304704  1.0000
  H   H130      1.0  0.503695755639368  0.06831724889351332  0.956473510893044  1.0000
  H   H131      1.0  0.46055876567035886  0.04882061941107696  0.989846293164459  1.0000
  H   H132      1.0  0.5213799595983452  0.9571496269311979  0.9583271237763613  1.0000
  H   H133      1.0  0.541543964643694  0.006287838785602684  0.9747849746596361  1.0000
  H   H134      1.0  0.4988927884040695  0.9852630467252446  0.007682895358997133  1.0000
  H   H135      1.0  0.5330071331675605  0.02863392305451984  0.8876612752802725  1.0000
  H   H136      1.0  0.4839711643616664  0.024780451005063986  0.8601666192878812  1.0000
  H   H137      1.0  0.5119947682452342  0.9794800343380287  0.8731107708449795  1.0000
  H   H138      1.0  0.45320912123125384  0.9518278669633302  0.922162907849945  1.0000
  H   H139      1.0  0.42563541388499126  0.9968866711462029  0.9065896768402156  1.0000
  H   H140      1.0  0.43106221152479557  0.9821653319675764  0.9694799128351269  1.0000
  N   N2        1.0  0.34383106536173824  0.767204770202829  0.08787146142810975  1.0000
  C   C197      1.0  0.30702187264000597  0.7721481208565192  0.05808705690352145  1.0000
  C   C198      1.0  0.3318325666076967  0.7626148417629203  0.13977595593479664  1.0000
  C   C199      1.0  0.3705754731880261  0.8034294442874127  0.08187698468563198  1.0000
  C   C200      1.0  0.36580399774494615  0.7305143554807485  0.071809561929705  1.0000
  H   H141      1.0  0.31466007209173275  0.7744152682139304  0.01848190216783907  1.0000
  H   H142      1.0  0.2899012143784409  0.7998489104168403  0.06869427351937074  1.0000
  H   H143      1.0  0.28574033705759555  0.7457330867229797  0.06276880023268894  1.0000
  H   H144      1.0  0.358796458737363  0.7592638703199334  0.16357093946871815  1.0000
  H   H145      1.0  0.3146693256135827  0.7895339940122384  0.15283965944417188  1.0000
  H   H146      1.0  0.3115513323847619  0.7356192868832535  0.1455727063865775  1.0000
  H   H147      1.0  0.3808476264537651  0.8073841209660119  0.04327143686866397  1.0000
  H   H148      1.0  0.3982425851528888  0.8012305711700175  0.104838174995185  1.0000
  H   H149      1.0  0.3546891800525401  0.8317528465885563  0.092917489969639  1.0000
  H   H150      1.0  0.394147998352519  0.7262005314108585  0.09286523595282192  1.0000
  H   H151      1.0  0.3742892061359228  0.7323852890873878  0.03237547033514354  1.0000
  H   H152      1.0  0.3465754272511682  0.7026018993625002  0.07653763237128075  1.0000
  N   N3        1.0  0.08573306486142451  0.8006932939981696  0.16203621451613404  1.0000
  C   C201      1.0  0.1145515438633995  0.792243964026889  0.20163465546734707  1.0000
  C   C202      1.0  0.048439281585260785  0.8186896972806763  0.18301044270672223  1.0000
  C   C203      1.0  0.0752873392113167  0.762347856874449  0.1367990110413002  1.0000
  C   C204      1.0  0.10473149359087386  0.8294562148824572  0.1266771187002331  1.0000
  H   H153      1.0  0.14304108052561215  0.7787502627075694  0.1870105671289885  1.0000
  H   H154      1.0  0.10123987991503691  0.7706996599466042  0.22916446075706123  1.0000
  H   H155      1.0  0.12313570121842021  0.8204971334564265  0.2215250362024192  1.0000
  H   H156      1.0  0.03340498940424386  0.7976848645111638  0.20983804572594758  1.0000
  H   H157      1.0  0.0552350066189633  0.8476906421860816  0.2022802070868012  1.0000
  H   H158      1.0  0.02591841097295111  0.8254826678436502  0.15419362768339548  1.0000
  H   H159      1.0  0.10269431443794441  0.7481214335634381  0.12016171946221975  1.0000
  H   H160      1.0  0.05339750535820276  0.7677657464386947  0.10685659427619186  1.0000
  H   H161      1.0  0.061095837348966064  0.739705001807431  0.16226107499704723  1.0000
  H   H162      1.0  0.08385048034097231  0.8362866883874516  0.09606727285298589  1.0000
  H   H163      1.0  0.1331164641096314  0.8167859463133659  0.11047619125758867  1.0000
  H   H164      1.0  0.11285839828489896  0.8588509100535724  0.1442689698885182  1.0000
  N   N4        1.0  0.3434556990536476  0.5301914405410161  0.9003121520608004  1.0000
  C   C205      1.0  0.30647839630305795  0.5053799899230647  0.9102788733111067  1.0000
  C   C206      1.0  0.3450152726116882  0.5418023322304438  0.8481297256626438  1.0000
  C   C207      1.0  0.37989482099447747  0.5063633118546766  0.9122990307798462  1.0000
  C   C208      1.0  0.3424848016078336  0.5673369914419997  0.9305606485642792  1.0000
  H   H165      1.0  0.3063882746873374  0.4768154810238434  0.8885447318457216  1.0000
  H   H166      1.0  0.27841297228439915  0.5222878562881311  0.9011197844073002  1.0000
  H   H167      1.0  0.30394180776735696  0.496736264859527  0.9495483930541234  1.0000
  H   H168      1.0  0.37224730331999945  0.5610445822839135  0.839635258059478  1.0000
  H   H169      1.0  0.34643660579344754  0.5146239122076527  0.8239544048821267  1.0000
  H   H170      1.0  0.31787876262274517  0.5595889347308565  0.8375156375800283  1.0000
  H   H171      1.0  0.40833310377515286  0.5242667179693933  0.9053364981875822  1.0000
  H   H172      1.0  0.38181153484760244  0.4782308987519901  0.8898497154613599  1.0000
  H   H173      1.0  0.3796766972342297  0.4968668832485864  0.9514233707367434  1.0000
  H   H174      1.0  0.3699847774882748  0.5868081863724964  0.9241509540310333  1.0000
  H   H175      1.0  0.34071266435618697  0.5598265806676715  0.9702046004142452  1.0000
  H   H176      1.0  0.31563956775818797  0.586165328237788  0.9220360367362069  1.0000
  N   N5        1.0  0.5858852129608857  0.027003912238893868  0.46649671559312206  1.0000
  C   C209      1.0  0.5925054606469817  0.9828648502577076  0.46012220645839375  1.0000
  C   C210      1.0  0.6104102249429034  0.05010024203466479  0.4300530409480927  1.0000
  C   C211      1.0  0.5982351297023711  0.03906974047033107  0.5160983091921812  1.0000
  C   C212      1.0  0.542413569713552  0.036043639850218634  0.4595382157191471  1.0000
  H   H177      1.0  0.5752433197538165  0.964577686682966  0.4878299320671352  1.0000
  H   H178      1.0  0.6252446487045943  0.9750578314384539  0.46368531895593823  1.0000
  H   H179      1.0  0.5825463047710914  0.9724091044728599  0.42352125731677615  1.0000
  H   H180      1.0  0.6432357762795866  0.04262505707325892  0.43216486388160996  1.0000
  H   H181      1.0  0.6004980330521478  0.0434514295127546  0.39214500333216845  1.0000
  H   H182      1.0  0.607670196309561  0.08356002712700918  0.435262092597561  1.0000
  H   H183      1.0  0.5801424053506604  0.02244929218258274  0.5445844445064477  1.0000
  H   H184      1.0  0.5940610371416407  0.07227096912454067  0.5220825555854465  1.0000
  H   H185      1.0  0.6308748584773302  0.032193667083374455  0.5222911391795126  1.0000
  H   H186      1.0  0.5362910976432306  0.06918612322212492  0.4634689476986891  1.0000
  H   H187      1.0  0.5227392550772046  0.019441827703876147  0.4864777844773113  1.0000
  H   H188      1.0  0.5324926758185523  0.026940900366116738  0.42234424784270835  1.0000
  N   N6        1.0  0.9554703365063014  0.7018628889946211  0.786454466607551  1.0000
  C   C213      1.0  0.9540764599962557  0.6581610534186156  0.7996381394724796  1.0000
  C   C214      1.0  0.9607561035367731  0.7262148547612274  0.8309896445758259  1.0000
  C   C215      1.0  0.9171596691677736  0.7132391848233627  0.7626530503908346  1.0000
  C   C216      1.0  0.9901080418292576  0.7100196091067904  0.7528674473061755  1.0000
  H   H189      1.0  0.9501769454898691  0.6386676127735003  0.7668920267786672  1.0000
  H   H190      1.0  0.928650355950513  0.6511250249065209  0.8256526867508567  1.0000
  H   H191      1.0  0.9826886959725405  0.6486505822492797  0.8175279410801397  1.0000
  H   H192      1.0  0.9628275928968362  0.7593594485457716  0.8225627710889478  1.0000
  H   H193      1.0  0.9352872368051645  0.7209640704229988  0.8575037612117591  1.0000
  H   H194      1.0  0.9893659496725451  0.717869140752383  0.8494869648406173  1.0000
  H   H195      1.0  0.9175922162563458  0.7458812352604098  0.7514423838798959  1.0000
  H   H196      1.0  0.8904688589910806  0.7080310134655968  0.7873097390141802  1.0000
  H   H197      1.0  0.9121556588188832  0.6951725065962356  0.728968146229304  1.0000
  H   H198      1.0  0.9920823151124039  0.7427427104863207  0.742199980667056  1.0000
  H   H199      1.0  0.9871786524626968  0.6920637257169117  0.7189678444639709  1.0000
  H   H200      1.0  0.0195946023457374  0.7018792860317198  0.7697600331476351  1.0000
  N   N7        1.0  0.09742417835189365  0.5628453397137283  0.8991114894542289  1.0000
  C   C217      1.0  0.12404086828296056  0.5280908595878188  0.8878184537453196  1.0000
  C   C218      1.0  0.11268724523610563  0.5847180542080166  0.942337451418433  1.0000
  C   C219      1.0  0.0558626487292051  0.5475326401521446  0.9097060265188033  1.0000
  C   C220      1.0  0.09690697627418698  0.5909079568084372  0.8567978453780036  1.0000
  H   H201      1.0  0.11339452549442883  0.5110771181274376  0.8551932924164778  1.0000
  H   H202      1.0  0.12480756371380075  0.506079307328285  0.9187939740402111  1.0000
  H   H203      1.0  0.15587666251960522  0.5383141118501751  0.8804844918386827  1.0000
  H   H204      1.0  0.1426921224386399  0.5995005120238933  0.9350811403764379  1.0000
  H   H205      1.0  0.09150644454221048  0.6090909096038719  0.9539697917404477  1.0000
  H   H206      1.0  0.11643844478777339  0.5638938385056541  0.9740811485110259  1.0000
  H   H207      1.0  0.03429347288865259  0.5729425352477222  0.9157948531969179  1.0000
  H   H208      1.0  0.05505398818406704  0.5279741732189892  0.9429847409158981  1.0000
  H   H209      1.0  0.04399442048940494  0.5287981493956437  0.8793958953111362  1.0000
  H   H210      1.0  0.07584968981714102  0.6166595580646315  0.8631478836077191  1.0000
  H   H211      1.0  0.08686392494421515  0.5750669099764344  0.8231836899911931  1.0000
  H   H212      1.0  0.12762966406817333  0.6041579047208926  0.8490622037472952  1.0000
  N   N8        1.0  0.875468159734068  0.8825686855582531  0.9350075349409892  1.0000
  C   C221      1.0  0.900663398286521  0.8662781013966722  0.9746795534830385  1.0000
  C   C222      1.0  0.8380454570964219  0.9002478521883757  0.9560600842534713  1.0000
  C   C223      1.0  0.8645715943246947  0.8493673887874501  0.9011944359494455  1.0000
  C   C224      1.0  0.8986292825209086  0.9144568419121184  0.9080672408841941  1.0000
  H   H213      1.0  0.9082336171411208  0.8903596119555924  0.001619803268389619  1.0000
  H   H214      1.0  0.9299026348271378  0.8540448323122479  0.960360278312479  1.0000
  H   H215      1.0  0.884815369733409  0.8412009684078839  0.9949417310022748  1.0000
  H   H216      1.0  0.8174351317241734  0.9110725774981545  0.9270629839693235  1.0000
  H   H217      1.0  0.8206632421882638  0.8776436047279802  0.9785929500741102  1.0000
  H   H218      1.0  0.8449727381461842  0.9269635241175938  0.9796429024119321  1.0000
  H   H219      1.0  0.8457489817039009  0.8607889395232261  0.8706052927585922  1.0000
  H   H220      1.0  0.8467699337284924  0.8248913790443829  0.9202243335251048  1.0000
  H   H221      1.0  0.892239065787672  0.8352842252632614  0.884975193382246  1.0000
  H   H222      1.0  0.8805106981073337  0.9277200220712021  0.878048309958078  1.0000
  H   H223      1.0  0.9272186671990539  0.9024035706901413  0.8916826721101284  1.0000
  H   H224      1.0  0.907666876682503  0.9398453233619489  0.9325149993731763  1.0000
  N   N9        1.0  0.20773636531492307  0.5792012403413458  0.20150317604029055  1.0000
  C   C225      1.0  0.19136363012535568  0.5549126337675769  0.1607482278681709  1.0000
  C   C226      1.0  0.22620541025126395  0.5517755081448336  0.23771153429367686  1.0000
  C   C227      1.0  0.17438500690904588  0.6020069492996033  0.2250845782826889  1.0000
  C   C228      1.0  0.23907171148477735  0.6079752377082919  0.18256851484015035  1.0000
  H   H225      1.0  0.17779056186470232  0.5746094249948229  0.13219284161089506  1.0000
  H   H226      1.0  0.16750191513110355  0.5329612123450291  0.17370512784059478  1.0000
  H   H227      1.0  0.2155893282180075  0.5366142614583967  0.14292387633148596  1.0000
  H   H228      1.0  0.25094647963544464  0.5333791589145414  0.22100331228034475  1.0000
  H   H229      1.0  0.23960545552590765  0.5690397382898322  0.268527437985423  1.0000
  H   H230      1.0  0.20337079411602849  0.5299832307466726  0.2533620809311583  1.0000
  H   H231      1.0  0.15973867712221107  0.6230933116995866  0.19905635358041485  1.0000
  H   H232      1.0  0.18562285753606284  0.6206639310091171  0.2560104483719803  1.0000
  H   H233      1.0  0.1503487679528108  0.5810910530665647  0.2398569414502083  1.0000
  H   H234      1.0  0.25137017346744767  0.6274435713504746  0.21229668513933952  1.0000
  H   H235      1.0  0.2266328870876249  0.6284124923230779  0.15409526108907068  1.0000
  H   H236      1.0  0.26507823177062345  0.5915326725855956  0.16567648646390154  1.0000
  N   N10       1.0  0.8081352556171436  0.7199713653628882  0.5258166371141616  1.0000
  C   C229      1.0  0.8426899313241563  0.7362289093500458  0.4964442529918128  1.0000
  C   C230      1.0  0.8206204697207802  0.6822412860769227  0.5508475338107157  1.0000
  C   C231      1.0  0.7735245327269108  0.7110241556045318  0.4935398258791276  1.0000
  C   C232      1.0  0.7957951024825718  0.7504226873348608  0.5625584595477524  1.0000
  H   H237      1.0  0.8518389971723294  0.7148193626044843  0.46704077316891435  1.0000
  H   H238      1.0  0.8697399188629522  0.7415386287025671  0.5194708781576701  1.0000
  H   H239      1.0  0.835305847357042  0.7658766284057091  0.47897392228722413  1.0000
  H   H240      1.0  0.795282041498913  0.6691403877028098  0.5733996948175442  1.0000
  H   H241      1.0  0.8303957156066066  0.6586065572677487  0.5242656109713076  1.0000
  H   H242      1.0  0.8467209918913348  0.688101591369739  0.5755525022578055  1.0000
  H   H243      1.0  0.7634912502121737  0.7389030138403321  0.47411394101935417  1.0000
  H   H244      1.0  0.7465967158541664  0.6994593491610418  0.5146537960283483  1.0000
  H   H245      1.0  0.7814794318072469  0.6879655645220154  0.4654971474173621  1.0000
  H   H246      1.0  0.7882345781975805  0.780042334970371  0.5451519909536825  1.0000
  H   H247      1.0  0.8203540557671413  0.7562387869644762  0.5891856576821718  1.0000
  H   H248      1.0  0.7682497600667094  0.7402488470561855  0.5834976360801369  1.0000
  N   N11       1.0  0.05750427574755612  0.39527591270867873  0.08255325564293203  1.0000
  C   C233      1.0  0.07100406822672922  0.4096318362516874  0.03378908156480942  1.0000
  C   C234      1.0  0.07231654167190826  0.4238212989422455  0.12005771684351463  1.0000
  C   C235      1.0  0.0739671722484827  0.35427536906393503  0.09172441514871599  1.0000
  C   C236      1.0  0.012584517244604411  0.39342561532445697  0.08446962559445748  1.0000
  H   H249      1.0  0.05830667566478897  0.3899500485797726  0.004692052152798221  1.0000
  H   H250      1.0  0.1046988725387169  0.4094504419505709  0.029902584643982877  1.0000
  H   H251      1.0  0.06075053995616787  0.44120013068219416  0.02641699091296279  1.0000
  H   H252      1.0  0.06144669601506059  0.4145692967808505  0.15710777155852718  1.0000
  H   H253      1.0  0.10613563415465414  0.42498898588743633  0.120743758451485  1.0000
  H   H254      1.0  0.061378730697198465  0.4552795154214322  0.11328494805659095  1.0000
  H   H255      1.0  0.06485937146091471  0.34266357783805407  0.1285390102654982  1.0000
  H   H256      1.0  0.10784255591573101  0.35439901607989105  0.08968852736057209  1.0000
  H   H257      1.0  0.06300915791060649  0.3319276134578047  0.06425724307908665  1.0000
  H   H258      1.0  0.0012178710116268505  0.38295823374819443  0.12086336153266952  1.0000
  H   H259      1.0  0.00039091203003360715  0.3721255837760642  0.056581346037384295  1.0000
  H   H260      1.0  0.9992156361184396  0.4238456464351092  0.07709205422968846  1.0000
  N   N12       1.0  0.6809177130445467  0.08410639872554415  0.8582498579794928  1.0000
  C   C237      1.0  0.722685263597296  0.0749803466270258  0.8741224990309717  1.0000
  C   C238      1.0  0.6824992690698466  0.10563450006464215  0.8107850649986975  1.0000
  C   C239      1.0  0.6606625813634857  0.11007419957732978  0.8949734953014763  1.0000
  C   C240      1.0  0.6576863530799554  0.04563868362518919  0.852972061587861  1.0000
  H   H261      1.0  0.7226929597349124  0.05949095913127356  0.9103820935830721  1.0000
  H   H262      1.0  0.7416097075948351  0.10315254336280355  0.8771706925108111  1.0000
  H   H263      1.0  0.7384573193346132  0.05440390601276901  0.8480509230600489  1.0000
  H   H264      1.0  0.6959826822353486  0.08635119364646893  0.7817940476731111  1.0000
  H   H265      1.0  0.6516054451246152  0.11400597804340973  0.7983119305431199  1.0000
  H   H266      1.0  0.7012053271631727  0.13405351408274635  0.8124505034526004  1.0000
  H   H267      1.0  0.6290928950145802  0.11770077569911752  0.8840811963051642  1.0000
  H   H268      1.0  0.6773368446738338  0.13943255633305673  0.8998830636715711  1.0000
  H   H269      1.0  0.6587017936684991  0.09481751813534856  0.9312618159567373  1.0000
  H   H270      1.0  0.6261422291854669  0.051309945699260284  0.8404338594184997  1.0000
  H   H271      1.0  0.6557172373274512  0.028481166204914032  0.8880464460214996  1.0000
  H   H272      1.0  0.6722773696378528  0.025294664737023576  0.8256180887038077  1.0000
  N   N13       1.0  0.6544915213394613  0.04234294441215036  0.2068532187534704  1.0000
  C   C241      1.0  0.6720197035074819  0.022527742892678893  0.16318238680455766  1.0000
  C   C242      1.0  0.6587828264886638  0.08699398191335894  0.20192358753273743  1.0000
  C   C243      1.0  0.6762113082639839  0.028610691765097007  0.2507064196440614  1.0000
  C   C244      1.0  0.6109833864601345  0.03125396249464685  0.21168789562739532  1.0000
  H   H273      1.0  0.70492703712624  0.030351930051598197  0.1585168736340321  1.0000
  H   H274      1.0  0.6562083394337647  0.0321421531361501  0.12941569758857718  1.0000
  H   H275      1.0  0.6693021414491154  0.9887607870519588  0.1658359710719466  1.0000
  H   H276      1.0  0.64686322009105  0.1027916236745432  0.23497094909877458  1.0000
  H   H277      1.0  0.6912660459140345  0.09621579974891703  0.1969597044803415  1.0000
  H   H278      1.0  0.641898739736334  0.09854971269586432  0.16988434253462947  1.0000
  H   H279      1.0  0.6627267539431366  0.04177652649890207  0.2846100986306308  1.0000
  H   H280      1.0  0.7088049416238416  0.037815733661989315  0.24899708914474283  1.0000
  H   H281      1.0  0.674880508891981  0.9948928487693728  0.2545053998544473  1.0000
  H   H282      1.0  0.5968687404820736  0.045833408812691045  0.2443314174396607  1.0000
  H   H283      1.0  0.606697095610486  0.9977849037739837  0.2161080007148275  1.0000
  H   H284      1.0  0.593566651430777  0.04074701551093174  0.179037088854193  1.0000
  N   N14       1.0  0.21237673457900696  0.8492992574639696  0.8179420037506473  1.0000
  C   C245      1.0  0.2311754811125127  0.8903639616253735  0.8156019789468593  1.0000
  C   C246      1.0  0.23683365793581834  0.8209723650031187  0.7881366434788095  1.0000
  C   C247      1.0  0.17053405910567992  0.8507524189178141  0.7989594723572215  1.0000
  C   C248      1.0  0.21105372807145378  0.8350482802836666  0.8691717854931467  1.0000
  H   H285      1.0  0.2327020943184619  0.9020840193784334  0.777455980294592  1.0000
  H   H286      1.0  0.2628921675250031  0.8900901120695703  0.8295923369037712  1.0000
  H   H287      1.0  0.21368946310149192  0.9125737669233724  0.8378695177348173  1.0000
  H   H288      1.0  0.2687475556076889  0.8195335237383162  0.8010146775877431  1.0000
  H   H289      1.0  0.22411459554793736  0.7895198531857027  0.7898076922490584  1.0000
  H   H290      1.0  0.23793243531188188  0.8302811672343056  0.749075853096698  1.0000
  H   H291      1.0  0.15553621485436875  0.8202355096475965  0.8006402001334882  1.0000
  H   H292      1.0  0.17020480125314855  0.8610141025766823  0.7602258331906012  1.0000
  H   H293      1.0  0.15113030093351254  0.871829272147957  0.820552768428443  1.0000
  H   H294      1.0  0.24212388057653944  0.8342037357031504  0.8848730985427986  1.0000
  H   H295      1.0  0.19757830134766916  0.8038306259319825  0.8721754192766904  1.0000
  H   H296      1.0  0.19230990481946816  0.8553681125556684  0.8925573306553706  1.0000
  N   N15       1.0  0.32495342758704854  0.9620963717564629  0.3551666089649414  1.0000
  C   C249      1.0  0.33895640006337663  0.9858248438653368  0.3976412107984168  1.0000
  C   C250      1.0  0.3604936768724308  0.9453792874095075  0.32882525109129535  1.0000
  C   C251      1.0  0.30208072237159905  0.9888111555840036  0.3220670314079277  1.0000
  C   C252      1.0  0.29826059977806424  0.928294253080735  0.3720918066668939  1.0000
  H   H297      1.0  0.31299164905454  0.9989804861393885  0.4184201091823433  1.0000
  H   H298      1.0  0.35910306898916977  0.01164792382658586  0.38613560129360486  1.0000
  H   H299      1.0  0.3566006965009628  0.9666730649615445  0.4232118421273588  1.0000
  H   H300      1.0  0.35122642920085434  0.9274812400888122  0.2962833379745017  1.0000
  H   H301      1.0  0.38134471923727176  0.9700397115042606  0.31572562635963464  1.0000
  H   H302      1.0  0.3783884495321626  0.9248814477641276  0.35255062819145966  1.0000
  H   H303      1.0  0.29221054456759993  0.9721758359677786  0.28885711081998805  1.0000
  H   H304      1.0  0.32099459565959626  0.015191039012643737  0.30949955518864664  1.0000
  H   H305      1.0  0.27455165808127663  0.0012742780263088616  0.34036345564821513  1.0000
  H   H306      1.0  0.31459225722961287  0.9074077442522648  0.3970191944824317  1.0000
  H   H307      1.0  0.28737578989588664  0.909619591148593  0.34090235820300535  1.0000
  H   H308      1.0  0.2710277571906756  0.9396087524124743  0.39208885806735905  1.0000
  N   N16       1.0  0.7313606641723093  0.9998471029783169  0.6610684076560165  1.0000
  C   C253      1.0  0.7177266902538886  0.9614965822412357  0.6380524706972238  1.0000
  C   C254      1.0  0.7003541547035336  0.013277295830420144  0.6968385307903571  1.0000
  C   C255      1.0  0.7373609346620312  0.03166148029483851  0.6233181716869616  1.0000
  C   C256      1.0  0.7701606473641364  0.9929443844115926  0.6861767673227214  1.0000
  H   H309      1.0  0.6882635730482259  0.9653372508028109  0.6191361181136965  1.0000
  H   H310      1.0  0.7135275249608793  0.9366190621956438  0.6654765146457634  1.0000
  H   H311      1.0  0.7401096869082098  0.9508588605282984  0.6102249044624651  1.0000
  H   H312      1.0  0.7093920591441042  0.04258934104542411  0.7138965197936499  1.0000
  H   H313      1.0  0.6704520909699248  0.01818800602306503  0.6792386846696368  1.0000
  H   H314      1.0  0.6956371090993053  0.9903006208929728  0.726435107083429  1.0000
  H   H315      1.0  0.7610080690430875  0.022760663216172983  0.5961756955602272  1.0000
  H   H316      1.0  0.7472199915495469  0.06113463447477607  0.6394912694222221  1.0000
  H   H317      1.0  0.7088423628789325  0.03722477669507396  0.6030277444424424  1.0000
  H   H318      1.0  0.7813719970129686  0.021151316819693955  0.7042001375313651  1.0000
  H   H319      1.0  0.794239134038043  0.9828169117659374  0.6601681854824095  1.0000
  H   H320      1.0  0.7665817986440826  0.9688823747727664  0.7145898715488037  1.0000
  N   N17       1.0  0.34466653485308996  0.7261183448059584  0.4414918113793861  1.0000
  C   C257      1.0  0.30811189540253037  0.74592261607543  0.4619347451331341  1.0000
  C   C258      1.0  0.3557322392004263  0.6913563379105202  0.47288814067589646  1.0000
  C   C259      1.0  0.37879778973289446  0.7557694111939577  0.4394060206746748  1.0000
  C   C260      1.0  0.33599037369017737  0.7114537773860315  0.391718756529173  1.0000
  H   H321      1.0  0.28174121568238997  0.7244086500737222  0.4636826712771575  1.0000
  H   H322      1.0  0.29895381386929837  0.7723906994934929  0.4392178182993001  1.0000
  H   H323      1.0  0.3133246353263837  0.7571072731292359  0.49962820593019214  1.0000
  H   H324      1.0  0.36233698074367604  0.7012667389901127  0.5107988854280674  1.0000
  H   H325      1.0  0.33059387076159386  0.6685654992078643  0.47555960581011986  1.0000
  H   H326      1.0  0.3829638702021853  0.6753591251224482  0.458431927451005  1.0000
  H   H327      1.0  0.4068220009626038  0.741850388057216  0.42394266794375934  1.0000
  H   H328      1.0  0.38611965514411156  0.7675992211096112  0.47630102406597435  1.0000
  H   H329      1.0  0.3714773537883226  0.7823950178697168  0.4159753633256264  1.0000
  H   H330      1.0  0.3626691850833874  0.6959221723369623  0.3751857672740973  1.0000
  H   H331      1.0  0.3278204767350562  0.7370210532065875  0.3670453413554299  1.0000
  H   H332      1.0  0.31009435886612047  0.6894031654196485  0.39183681555489003  1.0000
  N   N18       1.0  0.15594507857335071  0.6298750375840846  0.6354367032949891  1.0000
  C   C261      1.0  0.15636872394815016  0.6681705771225587  0.6069126742490033  1.0000
  C   C262      1.0  0.1564044997129923  0.5947821216301963  0.601866322188966  1.0000
  C   C263      1.0  0.11889875065733846  0.6278608613318529  0.6663650702361463  1.0000
  C   C264      1.0  0.19202444761113924  0.628723300686513  0.666865618781444  1.0000
  H   H333      1.0  0.12898867214967602  0.6706010334876671  0.5837355916577677  1.0000
  H   H334      1.0  0.18348973645529587  0.6702107532319673  0.5823000604055267  1.0000
  H   H335      1.0  0.15705134136166343  0.6952431249133132  0.6310989251277578  1.0000
  H   H336      1.0  0.1554065101124278  0.5653552549654252  0.6222556274735717  1.0000
  H   H337      1.0  0.12986503946539374  0.5953397722554279  0.5770907899649876  1.0000
  H   H338      1.0  0.18446997998660786  0.5949687103430717  0.5787743574438944  1.0000
  H   H339      1.0  0.11814594815938895  0.5998819356373257  0.6894307490270417  1.0000
  H   H340      1.0  0.09102296760259465  0.6275003228606663  0.6439162969049307  1.0000
  H   H341      1.0  0.11688892850658772  0.6544056805773302  0.6914268634658228  1.0000
  H   H342      1.0  0.1917998770736853  0.6541495330898865  0.6933329535361716  1.0000
  H   H343      1.0  0.22073832885277755  0.6316032660548859  0.6451816232734937  1.0000
  H   H344      1.0  0.19321080786657485  0.5999049286338841  0.6882250087525463  1.0000
  N   N19       1.0  0.4851551466911245  0.7767370295749384  0.7665007316786561  1.0000
  C   C265      1.0  0.47843869715379206  0.8208689919744468  0.7604936190194953  1.0000
  C   C266      1.0  0.4757487028323211  0.7647313786728522  0.8174854053914575  1.0000
  C   C267      1.0  0.5280643181295187  0.7674493322229142  0.7548874587345987  1.0000
  C   C268      1.0  0.45838149471353934  0.7539314938731501  0.7331196891460693  1.0000
  H   H345      1.0  0.4842646750074919  0.8308988667661583  0.7221828112798393  1.0000
  H   H346      1.0  0.4990878340947648  0.8390104168293435  0.784075508767113  1.0000
  H   H347      1.0  0.44662814134842954  0.8291075404018003  0.7701640344454624  1.0000
  H   H348      1.0  0.4807637805118681  0.7316118844387276  0.823467105913899  1.0000
  H   H349      1.0  0.4950885017191976  0.781808791624169  0.8436641062718878  1.0000
  H   H350      1.0  0.4434314165968553  0.770856828455774  0.827220653594996  1.0000
  H   H351      1.0  0.5340089170167052  0.7342642016636204  0.7581267802005095  1.0000
  H   H352      1.0  0.5491044937707961  0.7836072397703577  0.7799148945527236  1.0000
  H   H353      1.0  0.5364500195257252  0.7770201456092328  0.7169752653655252  1.0000
  H   H354      1.0  0.4627491805241754  0.7204642350949918  0.7366618643621556  1.0000
  H   H355      1.0  0.46466252661746177  0.7624347518456907  0.6943490196743841  1.0000
  H   H356      1.0  0.4257380264086321  0.759908713597427  0.7411138021621669  1.0000
  N   N20       1.0  0.3363781804133818  0.282233789359389  0.020138535741671904  1.0000
  C   C269      1.0  0.32262767810893433  0.2837709306457579  0.07163798422453915  1.0000
  C   C270      1.0  0.38124337032250233  0.2840922923416074  0.017989656536406606  1.0000
  C   C271      1.0  0.3199652009192641  0.3172503114881664  0.9931053206387174  1.0000
  C   C272      1.0  0.3217748907159277  0.2439794290034401  0.9978125487586801  1.0000
  H   H357      1.0  0.28885347667251976  0.28274259008882596  0.07465174797171836  1.0000
  H   H358      1.0  0.33312250091889317  0.31231313561781876  0.0895544524923777  1.0000
  H   H359      1.0  0.334493700246834  0.25759535119887184  0.09283613689877068  1.0000
  H   H360      1.0  0.39489041913815615  0.2580819352780337  0.03761666303458311  1.0000
  H   H361      1.0  0.3927607277491757  0.2834846748042307  0.9796428047276138  1.0000
  H   H362      1.0  0.39304619648881817  0.31242493314409325  0.03507732305534894  1.0000
  H   H363      1.0  0.3284895482544104  0.34652397765212123  0.010665883188374803  1.0000
  H   H364      1.0  0.28627458782257953  0.3157991631735693  0.9914055705443726  1.0000
  H   H365      1.0  0.3315856766019062  0.31814990206564636  0.9547721468978764  1.0000
  H   H366      1.0  0.3354738010485864  0.21684886523863053  0.015469657329188369  1.0000
  H   H367      1.0  0.3296529871895467  0.2429478982981031  0.9582511583633575  1.0000
  H   H368      1.0  0.2880584327225238  0.24092764022825777  0.001058509486339121  1.0000
  N   N21       1.0  0.8277103584246396  0.9890457032252267  0.3128228207510281  1.0000
  C   C273      1.0  0.8415613131329526  0.03185576226923792  0.31693148465261295  1.0000
  C   C274      1.0  0.8503972860367404  0.9635798264624437  0.34752174773220107  1.0000
  C   C275      1.0  0.8350592057886945  0.9745222846148847  0.26251405463702804  1.0000
  C   C276      1.0  0.7837290406622297  0.9861966949364083  0.3242562840099496  1.0000
  H   H369      1.0  0.8258896729955522  0.05175100137715316  0.2903201253703187  1.0000
  H   H370      1.0  0.8747836259804205  0.03501396767012266  0.3096291795384148  1.0000
  H   H371      1.0  0.8353891596193145  0.04413443904148662  0.3541481746044093  1.0000
  H   H372      1.0  0.8404271433792685  0.931067944362601  0.3458808829774489  1.0000
  H   H373      1.0  0.8836630044532048  0.9645764060119602  0.3397016012457049  1.0000
  H   H374      1.0  0.8457995555357327  0.9740134006566351  0.38582811668795697  1.0000
  H   H375      1.0  0.8244393503240476  0.9424109646700763  0.25814804831519556  1.0000
  H   H376      1.0  0.8679351122104522  0.9759614281760185  0.2525320364775699  1.0000
  H   H377      1.0  0.8185864750597801  0.9933684211686522  0.23538454690741642  1.0000
  H   H378      1.0  0.7657179232984496  0.004245529261234227  0.29799241240548513  1.0000
  H   H379      1.0  0.7767273561109965  0.9976623529467342  0.3616261122465503  1.0000
  H   H380      1.0  0.7724409371962838  0.9541353883052416  0.32230148586290236  1.0000
  N   N22       1.0  0.21538088692579987  0.3452274926463315  0.3560599193333766  1.0000
  C   C277      1.0  0.25558953152518216  0.34990668888547166  0.3318446021091516  1.0000
  C   C278      1.0  0.20683416800981325  0.38194751477629013  0.3852970358673584  1.0000
  C   C279      1.0  0.21544449559721726  0.30903641004799925  0.38832157098069886  1.0000
  C   C280      1.0  0.18366308769305678  0.34011401620476994  0.3187687767575078  1.0000
  H   H381      1.0  0.2564857354694572  0.3766252874651284  0.3066835592017663  1.0000
  H   H382      1.0  0.26350759916927957  0.3224468013916842  0.3102216883055901  1.0000
  H   H383      1.0  0.28006997024722147  0.3543557634092856  0.3590394536486616  1.0000
  H   H384      1.0  0.176654203559111  0.37953593350589243  0.4039189504129609  1.0000
  H   H385      1.0  0.22998344398371381  0.3864824191408777  0.4141361640133574  1.0000
  H   H386      1.0  0.206846790127759  0.4098129418415523  0.3621048189662089  1.0000
  H   H387      1.0  0.1850804787922391  0.3034100651303844  0.4055071098120529  1.0000
  H   H388      1.0  0.23739786722666983  0.3127137539887967  0.4185258961063638  1.0000
  H   H389      1.0  0.22406509402050478  0.28105728878985986  0.36813725848470324  1.0000
  H   H390      1.0  0.15296578674143582  0.3360809678705257  0.33587325586958944  1.0000
  H   H391      1.0  0.18935699971274383  0.3129902768597935  0.2955782418673066  1.0000
  H   H392      1.0  0.18239879006204338  0.3671105043823351  0.29421656330475776  1.0000
  N   N23       1.0  0.9521363897167596  0.24982271297309566  0.2550331855036512  1.0000
  C   C281      1.0  0.9497558997415414  0.29263790285173347  0.2710210205067942  1.0000
  C   C282      1.0  0.9184729094308668  0.22600678822082773  0.2778309359974848  1.0000
  C   C283      1.0  0.9915341785877891  0.23287942101074674  0.2700521739785998  1.0000
  C   C284      1.0  0.9488414524692538  0.24794170870511367  0.2013353500539532  1.0000
  H   H393      1.0  0.9746189632094023  0.31160185499862336  0.2543946760478452  1.0000
  H   H394      1.0  0.952527183290905  0.2950454876726492  0.3113645818374489  1.0000
  H   H395      1.0  0.9203016343372524  0.3064944617003615  0.2608358029175004  1.0000
  H   H396      1.0  0.8882667993973473  0.2382765272778958  0.2676039267931032  1.0000
  H   H397      1.0  0.919081830630465  0.19353034388749457  0.26643035982425634  1.0000
  H   H398      1.0  0.9200737518314694  0.2267221039352352  0.31837886192165804  1.0000
  H   H399      1.0  0.9947229529902475  0.20066792913726111  0.2582966046294163  1.0000
  H   H400      1.0  0.994868198324841  0.23375780092377482  0.3104496255040025  1.0000
  H   H401      1.0  0.017573067609733872  0.2506237652369048  0.2539661304846816  1.0000
  H   H402      1.0  0.9504540814199747  0.21600002683225647  0.18796768748095316  1.0000
  H   H403      1.0  0.9738286615726142  0.2656089224533094  0.18300479633218567  1.0000
  H   H404      1.0  0.9194406873787754  0.26061506319860667  0.18886651230684706  1.0000
  N   N24       1.0  0.5340736817475721  0.20728306035106067  0.6968514440092383  1.0000
  C   C285      1.0  0.5299265917031337  0.25107078138218547  0.7079444496326962  1.0000
  C   C286      1.0  0.5452975527816332  0.2023243633585683  0.6448149109548902  1.0000
  C   C287      1.0  0.4950410500472366  0.18587539313268273  0.7069023785496035  1.0000
  C   C288      1.0  0.5661420761154151  0.18986037648167897  0.7276217338266265  1.0000
  H   H405      1.0  0.5207290237717631  0.2559570738665484  0.7467029491154641  1.0000
  H   H406      1.0  0.506735017239579  0.26554753573082  0.6844249771617298  1.0000
  H   H407      1.0  0.5592212547922589  0.26785267281763325  0.7019180954726016  1.0000
  H   H408      1.0  0.5747342768184537  0.21781466744928407  0.635927835332309  1.0000
  H   H409      1.0  0.5484275564078941  0.16966299343910737  0.6350157402144203  1.0000
  H   H410      1.0  0.521974193555276  0.21562094495195192  0.6204625182425562  1.0000
  H   H411      1.0  0.4972785673827402  0.15263987524785774  0.6995373072649284  1.0000
  H   H412      1.0  0.4702295796338222  0.19808861397757455  0.6839784060371324  1.0000
  H   H413      1.0  0.48530987418559446  0.18906679817714359  0.7457151950255884  1.0000
  H   H414      1.0  0.570656471077162  0.15701280572074044  0.7196304676514265  1.0000
  H   H415      1.0  0.558480456048935  0.19276410291590212  0.7671803413304803  1.0000
  H   H416      1.0  0.5958150285987085  0.20570423033735485  0.7212764670978391  1.0000
  N   N25       1.0  0.45799367980677663  0.1668299417752361  0.22582148125403345  1.0000
  C   C289      1.0  0.5021595103228362  0.17508791086960232  0.22842101018156702  1.0000
  C   C290      1.0  0.43811266617095035  0.17805287245163456  0.27244516317410683  1.0000
  C   C291      1.0  0.4510861114540664  0.12305990321432865  0.21679570881999186  1.0000
  C   C292      1.0  0.44071980393259946  0.1909582193766238  0.18562107696565938  1.0000
  H   H417      1.0  0.5179165491734243  0.16767771912553905  0.19343660438051657  1.0000
  H   H418      1.0  0.5163803222782077  0.15657805144957043  0.25755819465988217  1.0000
  H   H419      1.0  0.5084932784177709  0.20774695586424055  0.2364127969947864  1.0000
  H   H420      1.0  0.40497071402868756  0.17086907987874483  0.27227964338040567  1.0000
  H   H421      1.0  0.4513525029314839  0.16127941250332214  0.30377119617349324  1.0000
  H   H422      1.0  0.44180801532485237  0.21113944723224154  0.28006319665889995  1.0000
  H   H423      1.0  0.41837920294722647  0.11603278695019342  0.210585664381289  1.0000
  H   H424      1.0  0.46073701711934795  0.1042919462175224  0.24840711606820112  1.0000
  H   H425      1.0  0.4684544976896523  0.11262031761367064  0.18428016787782878  1.0000
  H   H426      1.0  0.4076234793417791  0.18468098159888804  0.18152188701355393  1.0000
  H   H427      1.0  0.45569083362105534  0.18374707598060896  0.15011354970290045  1.0000
  H   H428      1.0  0.44485851285899963  0.2242056749120261  0.19186771672390668  1.0000
  N   N26       1.0  0.8814130501331534  0.21895671574778547  0.5502662825678897  1.0000
  C   C293      1.0  0.9235906443483181  0.21904104068792435  0.5309798451449675  1.0000
  C   C294      1.0  0.8624392004045963  0.25841017466114663  0.5388627310789441  1.0000
  C   C295      1.0  0.8818177226083171  0.2130040908816176  0.6037976270453995  1.0000
  C   C296      1.0  0.8579606356044341  0.18551324298084867  0.5274815641057945  1.0000
  H   H429      1.0  0.924397165672293  0.2232933867673066  0.490650971850195  1.0000
  H   H430      1.0  0.9391150748178916  0.18995405475127383  0.5393202759223195  1.0000
  H   H431      1.0  0.9419393054287446  0.24433992844370117  0.5467751097507161  1.0000
  H   H432      1.0  0.8305898908566923  0.2596336934720787  0.5527913288318966  1.0000
  H   H433      1.0  0.8793038462017273  0.28423290177718075  0.5557450377050054  1.0000
  H   H434      1.0  0.8619101868677385  0.2643265587868454  0.49895379468325673  1.0000
  H   H435      1.0  0.8990804684763111  0.2378445905610353  0.622161696514963  1.0000
  H   H436      1.0  0.8958218997605034  0.18353561960624898  0.6140063544471511  1.0000
  H   H437      1.0  0.8505298653079894  0.21319894664505792  0.6196848554315094  1.0000
  H   H438      1.0  0.8715050937424478  0.155277711023032  0.5351026938176108  1.0000
  H   H439      1.0  0.8568132444483323  0.18896465404576304  0.4871112821899508  1.0000
  H   H440      1.0  0.8259890572037921  0.18439889780244767  0.5411138606830243  1.0000
  N   N27       1.0  0.9386964448430932  0.21857004886977904  0.9159295477139605  1.0000
  C   C297      1.0  0.9686498432266251  0.20907548635551843  0.8770317613624052  1.0000
  C   C298      1.0  0.9552563187890666  0.20699954336255844  0.9638592586026119  1.0000
  C   C299      1.0  0.9006158703150621  0.1956795008711223  0.9074539056207992  1.0000
  C   C300      1.0  0.9301126058479142  0.26254280585860745  0.9151586774524109  1.0000
  H   H441      1.0  0.9568265156461402  0.2168137146753626  0.8402710523232497  1.0000
  H   H442      1.0  0.9758683765714035  0.17603348979331646  0.8765554816205476  1.0000
  H   H443      1.0  0.9976541233067182  0.22635071048941202  0.8820856678451497  1.0000
  H   H444      1.0  0.9333660094482933  0.21343570915994148  0.9940766039459514  1.0000
  H   H445      1.0  0.9619680763092172  0.17387841943549676  0.9655412526751801  1.0000
  H   H446      1.0  0.9840633185795976  0.22375589297113407  0.9714651056430114  1.0000
  H   H447      1.0  0.8776759709779356  0.20111572215461804  0.936824665292893  1.0000
  H   H448      1.0  0.9063919240471333  0.16254641630703826  0.9064265614046768  1.0000
  H   H449      1.0  0.8869225188315004  0.2040920926764218  0.8718766289816601  1.0000
  H   H450      1.0  0.9064515850036572  0.2707902321463016  0.9426417464726875  1.0000
  H   H451      1.0  0.9191345482177236  0.27225508735179815  0.8787353529924514  1.0000
  H   H452      1.0  0.9577993701853625  0.28079866404631937  0.9230233819901779  1.0000
  N   N28       1.0  0.6872899210555491  0.3037079254158014  0.37910986164536764  1.0000
  C   C301      1.0  0.728131266013825  0.29752339122884197  0.3996072601452081  1.0000
  C   C302      1.0  0.6912560492892124  0.3202920944000032  0.32902997329851347  1.0000
  C   C303      1.0  0.6645416508038712  0.3326383280791421  0.41000202981509526  1.0000
  C   C304      1.0  0.6651917510259824  0.2643142214446507  0.3776691673534306  1.0000
  H   H453      1.0  0.7261730605268735  0.28589830920009945  0.4378158455717944  1.0000
  H   H454      1.0  0.7463152024299223  0.32627203323799864  0.3997865564397522  1.0000
  H   H455      1.0  0.7455460115979733  0.2748713290300213  0.37812134072575015  1.0000
  H   H456      1.0  0.660937501574483  0.32539918602430784  0.3126345086364138  1.0000
  H   H457      1.0  0.708334954767462  0.3497285563311955  0.32844023184727  1.0000
  H   H458      1.0  0.7080412992830757  0.2990515163684085  0.3046613372328589  1.0000
  H   H459      1.0  0.66142808336457  0.3212724212327515  0.4481582702863579  1.0000
  H   H460      1.0  0.6332206956481696  0.3373743063916637  0.39628989836478756  1.0000
  H   H461      1.0  0.6801823053686393  0.3627934612413959  0.41147769923626837  1.0000
  H   H462      1.0  0.633019749130577  0.2682513417787408  0.3667755424111213  1.0000
  H   H463      1.0  0.6648460153013988  0.24887419496840646  0.413852295354073  1.0000
  H   H464      1.0  0.679609224528732  0.24301148704385425  0.3514213413306234  1.0000
  N   N29       1.0  0.7370325459615895  0.3663004063084327  0.8066924670144711  1.0000
  C   C305      1.0  0.7357405493862621  0.3242334130262122  0.8260657975665443  1.0000
  C   C306      1.0  0.7456605234122887  0.36529646505610935  0.7536135718985325  1.0000
  C   C307      1.0  0.7693679969389595  0.3898012712561066  0.8312598501452918  1.0000
  C   C308      1.0  0.6974138496125842  0.3858574526685029  0.8158828140140623  1.0000
  H   H465      1.0  0.7289535249296972  0.32363219988394326  0.8659412518612386  1.0000
  H   H466      1.0  0.7652687491692118  0.30872022334225513  0.8201850413089486  1.0000
  H   H467      1.0  0.7119122338879241  0.3056188140023448  0.807837873259304  1.0000
  H   H468      1.0  0.7215901910711139  0.34822736514348124  0.7338513851742177  1.0000
  H   H469      1.0  0.747359568137536  0.39646209137732624  0.7376795587466108  1.0000
  H   H470      1.0  0.7750865938479828  0.3501178921907606  0.7454453879891128  1.0000
  H   H471      1.0  0.7703478783548577  0.4220586853702365  0.8187633265852117  1.0000
  H   H472      1.0  0.7997953480293989  0.37687504611174805  0.8235235814436074  1.0000
  H   H473      1.0  0.765084571698729  0.38958104104168917  0.8716201720148332  1.0000
  H   H474      1.0  0.6721579158307247  0.36864467502872117  0.7985447399006183  1.0000
  H   H475      1.0  0.6969619991253351  0.4173775108021089  0.8009197990190532  1.0000
  H   H476      1.0  0.6902163013135914  0.38738044862094567  0.8556203880111003  1.0000
  N   N30       1.0  0.4059613962896071  0.38747609330846905  0.5866085380168127  1.0000
  C   C309      1.0  0.4497259137093576  0.38577352330269327  0.5979043156168996  1.0000
  C   C310      1.0  0.39767020375130047  0.42526361767304444  0.5592328628811455  1.0000
  C   C311      1.0  0.38190737928243734  0.3871193757250925  0.6325764616431037  1.0000
  C   C312      1.0  0.3945303897872629  0.3518321503694873  0.5567227428501975  1.0000
  H   H477      1.0  0.4687216241607437  0.3847938738933487  0.5639874994947212  1.0000
  H   H478      1.0  0.4568945629579643  0.35794360756473775  0.6193400705156102  1.0000
  H   H479      1.0  0.4596106044949666  0.4126265674026332  0.6195708381815344  1.0000
  H   H480      1.0  0.40579336436015045  0.4528945355783486  0.5806183214243738  1.0000
  H   H481      1.0  0.41484776970447024  0.42656329274749416  0.5239703966173035  1.0000
  H   H482      1.0  0.364924154440546  0.42745352717898166  0.5503942012408888  1.0000
  H   H483      1.0  0.3486892775951265  0.38759958001941747  0.6253523906860365  1.0000
  H   H484      1.0  0.38905517582010424  0.41421276338155627  0.6554928836049807  1.0000
  H   H485      1.0  0.3879768190489318  0.35940885444396964  0.654712669465483  1.0000
  H   H486      1.0  0.36160181677960035  0.3518141723087956  0.5478589166629452  1.0000
  H   H487      1.0  0.4010842251418543  0.32269933239295334  0.5758632826674202  1.0000
  H   H488      1.0  0.41174905699158876  0.3515109539527204  0.5214852988020471  1.0000
  N   N31       1.0  0.1354870919852884  0.5321864098665429  0.44831436872486774  1.0000
  C   C313      1.0  0.09606714096115265  0.5487458234652695  0.464740269665256  1.0000
  C   C314      1.0  0.13139885687757302  0.5155918686217549  0.3985414192004937  1.0000
  C   C315      1.0  0.14758135670390837  0.499332885415063  0.4818963925964052  1.0000
  C   C316      1.0  0.1666782350495255  0.5649526008469106  0.4481223933574966  1.0000
  H   H489      1.0  0.09766194197092082  0.5610790491717128  0.5024022149411107  1.0000
  H   H490      1.0  0.07173104381558426  0.5249282192759767  0.46466001957915715  1.0000
  H   H491      1.0  0.08613160372192175  0.5740909114756595  0.44071148312794417  1.0000
  H   H492      1.0  0.16089865564833228  0.5041021332643695  0.38425719576644535  1.0000
  H   H493      1.0  0.10906889836118117  0.48984768597832945  0.39787914810107566  1.0000
  H   H494      1.0  0.12024254109732135  0.5390937680518803  0.3727267633237217  1.0000
  H   H495      1.0  0.15076571122924132  0.5107378938458265  0.5198702329739573  1.0000
  H   H496      1.0  0.17717862323811162  0.48585759729874  0.47087007467203645  1.0000
  H   H497      1.0  0.12458861530706966  0.47419054292987217  0.48290156447343113  1.0000
  H   H498      1.0  0.15900536965205703  0.5896378245299639  0.42204960989180496  1.0000
  H   H499      1.0  0.19717865201994944  0.5533558295355395  0.4374249562548742  1.0000
  H   H500      1.0  0.16953786662177572  0.579166853483137  0.48474221280083823  1.0000
  N   N32       1.0  0.963514792685858  0.4429197718152985  0.6145273979152412  1.0000
  C   C317      1.0  0.9750876886500439  0.42078356432864616  0.6591744454176646  1.0000
  C   C318      1.0  0.986526936243348  0.48177932042806637  0.6112572329396191  1.0000
  C   C319      1.0  0.9194766661053133  0.45135532261129635  0.6165048302774742  1.0000
  C   C320      1.0  0.9730211982753709  0.4177597511442586  0.5713533146139579  1.0000
  H   H501      1.0  0.9586682042018174  0.39110184540982085  0.6628279221341162  1.0000
  H   H502      1.0  0.9681019260651172  0.4387492353210255  0.6925575217438842  1.0000
  H   H503      1.0  0.008284780213182463  0.41434239833505787  0.6594731882867761  1.0000
  H   H504      1.0  0.9785993291108483  0.4992252243171252  0.5778828258124714  1.0000
  H   H505      1.0  0.9799212027772292  0.501660536410808  0.6431505269252862  1.0000
  H   H506      1.0  0.01989449086055939  0.47663143853419476  0.609974505613962  1.0000
  H   H507      1.0  0.9097425468600272  0.4687871654405973  0.5838929804719546  1.0000
  H   H508      1.0  0.911427594194844  0.4700464080933127  0.6489532550978889  1.0000
  H   H509      1.0  0.9010751936041032  0.4227242179102694  0.6183653177536691  1.0000
  H   H510      1.0  0.9651097287523916  0.43367493709966204  0.5369238816896895  1.0000
  H   H511      1.0  0.9559210220697136  0.38832072221182395  0.5723010440938535  1.0000
  H   H512      1.0  0.006020401867753877  0.4106157013023048  0.5692352262129751  1.0000
