data_image0
_chemical_formula_structural       FeS2FeS2FeSFeS3FeS2FeS2FeSFeS3FeS2FeS2FeSFeS3FeS2FeS2FeSFeS3FeS2FeS2FeSFeS3FeS2FeS2FeSFeS3FeS2FeS2FeSFeS3FeS2FeS2FeSFeS3FeS2FeS2FeSFeS3FeS2FeS2FeSFeS3FeS2FeS2FeSFeS3FeS2FeS2FeSFeS3FeS2FeS2FeSFeS3FeS2FeS2FeSFeS3FeS2FeS2FeSFeS3FeS2FeS2FeSFeS3C6H4C6H4C6H4C6H4C6H4C6H4C6H4C6H4C6H4C6H4C6H4C6H4C6H4C6H4C6H4C6H4C6H4C6H4C6H4C6H4C6H4C6H4C6H4C6H4C6H4C6H4C6H4C6H4C6H4C6H4C6H4C6H4NC4H12NC4H12NC4H12NC4H12NC4H12NC4H12NC4H12NC4H12NC4H12NC4H12NC4H12NC4H12NC4H12NC4H12NC4H12NC4H12NC4H12NC4H12NC4H12NC4H12NC4H12NC4H12NC4H12NC4H12NC4H12NC4H12NC4H12NC4H12NC4H12NC4H12NC4H12NC4H12
_chemical_formula_sum              "Fe64 S128 C320 H512 N32"
_cell_length_a       19.97665625194687
_cell_length_b       33.36579985461527
_cell_length_c       39.99073385906978
_cell_angle_alpha    90.04542974456969
_cell_angle_beta     90.26689604672123
_cell_angle_gamma    89.27190014987953

_space_group_name_H-M_alt    "P 1"
_space_group_IT_number       1

loop_
  _space_group_symop_operation_xyz
  'x, y, z'

loop_
  _atom_site_type_symbol
  _atom_site_label
  _atom_site_symmetry_multiplicity
  _atom_site_fract_x
  _atom_site_fract_y
  _atom_site_fract_z
  _atom_site_occupancy
  Fe  Fe1       1.0  0.28326247018143325  0.4455224455525439  0.35273283446482057  1.0000
  S   S1        1.0  0.38072103312524197  0.47573608367212306  0.3416724105402722  1.0000
  S   S2        1.0  0.1862061470711016  0.4791849195459361  0.36117260694201997  1.0000
  Fe  Fe2       1.0  0.3455844453172978  0.3618984122840055  0.3516980901600081  1.0000
  S   S3        1.0  0.44749447096450057  0.38473892963020456  0.3400116502512063  1.0000
  S   S4        1.0  0.3401358267261885  0.2955105054152091  0.35962677636477053  1.0000
  Fe  Fe3       1.0  0.42448376794853293  0.43156396269530917  0.3781496029455109  1.0000
  S   S5        1.0  0.5000409077880066  0.4445082935408963  0.41805083383357183  1.0000
  Fe  Fe4       1.0  0.39437186222505094  0.4259252824018689  0.30449532486177117  1.0000
  S   S6        1.0  0.440823323655807  0.43328996364114886  0.2540910929275599  1.0000
  S   S7        1.0  0.3259483992147283  0.4057414530284587  0.392859838296713  1.0000
  S   S8        1.0  0.2936226872294285  0.39880291044567695  0.3124286565312923  1.0000
  Fe  Fe5       1.0  0.9240446337628301  0.4798440168152731  0.22220532104084384  1.0000
  S   S9        1.0  0.8387366478008906  0.44922736254394013  0.24783331371895728  1.0000
  S   S10       1.0  0.03298858383313941  0.4638715824192049  0.22367898589214785  1.0000
  Fe  Fe6       1.0  0.8341843834005254  0.5378592935789692  0.18463397140457918  1.0000
  S   S11       1.0  0.7411367227362117  0.513140849242781  0.2067845518203194  1.0000
  S   S12       1.0  0.8309474481547602  0.5857953185682219  0.14569418286317257  1.0000
  Fe  Fe7       1.0  0.7991379701344815  0.5119978280285806  0.2548012705554783  1.0000
  S   S13       1.0  0.7460200744842522  0.5338274497703122  0.3009854710027483  1.0000
  Fe  Fe8       1.0  0.7885374570165911  0.4530764924601044  0.19756693260718566  1.0000
  S   S14       1.0  0.7214195977915107  0.4074237490839201  0.17401841011638194  1.0000
  S   S15       1.0  0.8890729884372267  0.5423954457936796  0.2332494007635202  1.0000
  S   S16       1.0  0.8772856540638023  0.47805932159779274  0.17124368922699598  1.0000
  Fe  Fe9       1.0  0.24687712855996558  0.5487771756546278  0.059218818264566986  1.0000
  S   S17       1.0  0.3362768782144927  0.5369975414818384  0.026756372567135367  1.0000
  S   S18       1.0  0.141103415291721  0.5452827921171963  0.04037986384074177  1.0000
  Fe  Fe10      1.0  0.3309347153321176  0.567226576816034  0.12023777736983066  1.0000
  S   S19       1.0  0.42859387934288595  0.5588066873096933  0.09346978104886916  1.0000
  S   S20       1.0  0.31689640536821884  0.5794882074881057  0.17481297071356172  1.0000
  Fe  Fe11      1.0  0.37784204396632387  0.5918147777763961  0.051428579976082966  1.0000
  S   S21       1.0  0.424562884895608  0.6396276452668185  0.020024304983828456  1.0000
  Fe  Fe12      1.0  0.3790601850828746  0.5048807345736893  0.07136671025193442  1.0000
  S   S22       1.0  0.4335107545083969  0.4458104280177341  0.07097972592391288  1.0000
  S   S23       1.0  0.28488121345951267  0.6059655257846522  0.08060474282273256  1.0000
  S   S24       1.0  0.28524678688843275  0.5107687285618613  0.10129600294662189  1.0000
  Fe  Fe13      1.0  0.7293436239733468  0.3829279407446438  0.9731586600802543  1.0000
  S   S25       1.0  0.83987924689156  0.3775658221459144  0.9798016237071665  1.0000
  S   S26       1.0  0.6817590361657617  0.4442129342078912  0.9748452423526235  1.0000
  Fe  Fe14      1.0  0.7151615447160098  0.2941325096817361  0.956974635289915  1.0000
  S   S27       1.0  0.8251855768216462  0.28134286791492646  0.9629344394906345  1.0000
  S   S28       1.0  0.639177299404744  0.24886699064234277  0.9408705273847245  1.0000
  Fe  Fe15      1.0  0.8164490544149197  0.3215215914592265  0.008027319319921844  1.0000
  S   S29       1.0  0.8677609911981838  0.3130781284280263  0.057653712556664294  1.0000
  Fe  Fe16      1.0  0.8371008708676415  0.33857746322963855  0.9341978020598863  1.0000
  S   S30       1.0  0.9103067285335409  0.34903784298903195  0.8926374614724212  1.0000
  S   S31       1.0  0.7051585873535523  0.32923201813009245  0.004323241780281206  1.0000
  S   S32       1.0  0.7276856912461934  0.3488173203582842  0.9252268580949818  1.0000
  Fe  Fe17      1.0  0.4054235073026311  0.4796807041870795  0.6421392965855451  1.0000
  S   S33       1.0  0.30779707208374085  0.5039299357694621  0.6222819107807349  1.0000
  S   S34       1.0  0.4214357061424155  0.41575523223775235  0.6579755933162038  1.0000
  Fe  Fe18      1.0  0.4786429318705387  0.5563807021209871  0.629157012902926  1.0000
  S   S35       1.0  0.38857743831133834  0.5876168550063673  0.6077085596611919  1.0000
  S   S36       1.0  0.5801872131597209  0.5833914657837657  0.632648092565788  1.0000
  Fe  Fe19      1.0  0.3341652150872563  0.5596252872415761  0.6503342345022237  1.0000
  S   S37       1.0  0.2528166106228129  0.597599971280597  0.6728826431544189  1.0000
  Fe  Fe20      1.0  0.3701334914621693  0.5296193937420023  0.5813300198047469  1.0000
  S   S38       1.0  0.32773698661343215  0.5300471771544951  0.5292903623698823  1.0000
  S   S39       1.0  0.4263648960065808  0.5331126781040965  0.6744651622019502  1.0000
  S   S40       1.0  0.46587458978080487  0.5007454157026477  0.5989330129815515  1.0000
  Fe  Fe21      1.0  0.9130171855891264  0.6407974396701644  0.4405589673188342  1.0000
  S   S41       1.0  0.8260108781689242  0.6829691439377182  0.44587683656205973  1.0000
  S   S42       1.0  0.957115713722601  0.621578301680687  0.3917598471272442  1.0000
  Fe  Fe22      1.0  0.9291693516748178  0.6293225957164089  0.5149979532824907  1.0000
  S   S43       1.0  0.8450312525309414  0.6719213438498128  0.527614258682548  1.0000
  S   S44       1.0  0.9904329402397613  0.5925933023170531  0.5510206615988311  1.0000
  Fe  Fe23      1.0  0.7914008015027564  0.6408533719842688  0.48570431077238363  1.0000
  S   S45       1.0  0.6847627219914081  0.6204640482251169  0.48709209175436274  1.0000
  Fe  Fe24      1.0  0.8870275558029299  0.7103128356180762  0.4869099495885118  1.0000
  S   S46       1.0  0.8879394313777078  0.7776542890668326  0.4877717331125831  1.0000
  S   S47       1.0  0.8725352976334403  0.5955649019775289  0.47590900941083003  1.0000
  S   S48       1.0  0.9774206734673485  0.6708324373328315  0.478708051283772  1.0000
  Fe  Fe25      1.0  0.07873199593621494  0.6773798664001475  0.9002246337456481  1.0000
  S   S49       1.0  0.9831331103988099  0.6795641600202924  0.8708051569024065  1.0000
  S   S50       1.0  0.08841641429617697  0.699340579189104  0.9531633892387603  1.0000
  Fe  Fe26      1.0  0.161793099249536  0.64949649416621  0.8410352079350562  1.0000
  S   S51       1.0  0.07353800355742623  0.6498889536376893  0.8060484710883  1.0000
  S   S52       1.0  0.2667339224617855  0.6314102469759609  0.8275392784999965  1.0000
  Fe  Fe27      1.0  0.04595771666609938  0.7077129511198713  0.8311324843035716  1.0000
  S   S53       1.0  0.019720010051613723  0.765343824614309  0.8053885817302427  1.0000
  Fe  Fe28      1.0  0.019909639455056638  0.6212046848027907  0.8486939629837139  1.0000
  S   S54       1.0  0.9561808014312515  0.5670984492800966  0.8398655498629185  1.0000
  S   S55       1.0  0.1391338933499664  0.7098716731353882  0.8622441166638602  1.0000
  S   S56       1.0  0.11022165689174135  0.6164115278113236  0.881871930088919  1.0000
  Fe  Fe29      1.0  0.8487630004334118  0.3933587112533863  0.7150687427388612  1.0000
  S   S57       1.0  0.9555430387006829  0.3750826991492267  0.7241684892009357  1.0000
  S   S58       1.0  0.7698721974317967  0.38563961059915924  0.7540366603356798  1.0000
  Fe  Fe30      1.0  0.874490900793804  0.4157147870502943  0.6430439056356448  1.0000
  S   S59       1.0  0.9835103234887247  0.3991158477301995  0.6461262963598837  1.0000
  S   S60       1.0  0.8239492465404183  0.44352023777993205  0.5984409367063117  1.0000
  Fe  Fe31      1.0  0.9485027482211922  0.34539995581554617  0.6742363566870567  1.0000
  S   S61       1.0  0.9954448719773674  0.28404444689561226  0.6708062089256516  1.0000
  Fe  Fe32      1.0  0.9794986705713304  0.4305159460705945  0.6956471311701177  1.0000
  S   S62       1.0  0.060784469438479594  0.47091527485138424  0.7137494774581081  1.0000
  S   S63       1.0  0.8391589433188479  0.3591920375914572  0.6672127054244101  1.0000
  S   S64       1.0  0.8729748464587286  0.45148342471182734  0.690365800961937  1.0000
  Fe  Fe33      1.0  0.8086225324615973  0.09401870887796826  0.6302200388861797  1.0000
  S   S65       1.0  0.9076660766425116  0.06716819022409745  0.6451734715561912  1.0000
  S   S66       1.0  0.7811338392290178  0.15864786504803588  0.6230675106909979  1.0000
  Fe  Fe34      1.0  0.7475286415514758  0.012994736612546243  0.6165182548389011  1.0000
  S   S67       1.0  0.8405671246178255  0.9785724272617322  0.6301740230246863  1.0000
  S   S68       1.0  0.6536203383005265  0.9846195958039774  0.5982529433210724  1.0000
  Fe  Fe35      1.0  0.8458033755784662  0.022313149943570695  0.6727572203112073  1.0000
  S   S69       1.0  0.8762656192509999  0.003789971259478664  0.724517015802797  1.0000
  Fe  Fe36      1.0  0.8930081389504056  0.026309529211405263  0.6013877913493736  1.0000
  S   S70       1.0  0.9750325561047343  0.014554499315766689  0.5644672274683697  1.0000
  S   S71       1.0  0.7475111221244505  0.05289932388632139  0.6615087111535356  1.0000
  S   S72       1.0  0.7990837031606035  0.057104840989129046  0.5839943700083505  1.0000
  Fe  Fe37      1.0  0.25485037671801813  0.9317932854909042  0.7503117515036117  1.0000
  S   S73       1.0  0.32868975667223665  0.8808735595687218  0.7497519463989506  1.0000
  S   S74       1.0  0.2076887921857349  0.9519716726464446  0.7985325497069603  1.0000
  Fe  Fe38      1.0  0.26689553042667513  0.9453792364802892  0.6754580576523228  1.0000
  S   S75       1.0  0.34054086649409565  0.8946700439091914  0.6686259815151268  1.0000
  S   S76       1.0  0.23024390317159507  0.9827802036812805  0.63226007648118  1.0000
  Fe  Fe39      1.0  0.27370688963723633  0.8617204581948156  0.7037791624323803  1.0000
  S   S77       1.0  0.24500211390179727  0.7973132793417421  0.6988359913354732  1.0000
  Fe  Fe40      1.0  0.38781336246578135  0.9191620664288347  0.7153139717028602  1.0000
  S   S78       1.0  0.4976695517683447  0.9256220434176021  0.7255837285453339  1.0000
  S   S79       1.0  0.19522510829487416  0.9102675818208358  0.7064155351156491  1.0000
  S   S80       1.0  0.319038753114435  0.9723812450352555  0.7197984659750583  1.0000
  Fe  Fe41      1.0  0.3419651843058189  0.24236731224604877  0.5389429753352168  1.0000
  S   S81       1.0  0.4440493282917026  0.21480094094515315  0.5455585103819637  1.0000
  S   S82       1.0  0.3181435557378274  0.3080506820892146  0.5396083415041367  1.0000
  Fe  Fe42      1.0  0.2789454071962838  0.164389605787999  0.5173449617312538  1.0000
  S   S83       1.0  0.3753314826089207  0.1296978252113523  0.5216805532059774  1.0000
  S   S84       1.0  0.17956821446354687  0.14059049175811786  0.5007513877321345  1.0000
  Fe  Fe43      1.0  0.3886156839634882  0.16403887481881535  0.5692385109533017  1.0000
  S   S85       1.0  0.428323992772373  0.1262901427019918  0.6113796895635745  1.0000
  Fe  Fe44      1.0  0.42172382638846884  0.18292193472427176  0.49755705535658096  1.0000
  S   S86       1.0  0.4980072560646629  0.18112333467890412  0.4566981413582774  1.0000
  S   S87       1.0  0.2878630888880138  0.19479685780475606  0.5671445758809267  1.0000
  S   S88       1.0  0.32419752829367  0.21463001344612295  0.48878506891757156  1.0000
  Fe  Fe45      1.0  0.011522763210737086  0.9049728075343972  0.35619045645007963  1.0000
  S   S89       1.0  0.9251579677564091  0.9433756609847396  0.3391583874304608  1.0000
  S   S90       1.0  0.011499614482668896  0.838188317739424  0.35222353347084184  1.0000
  Fe  Fe46      1.0  0.09194554942491218  0.9749907015123155  0.3817881617286486  1.0000
  S   S91       1.0  0.012491749496659432  0.01982689153071071  0.3675220056423916  1.0000
  S   S92       1.0  0.19114505132661774  0.9908076912863025  0.40468331820051934  1.0000
  Fe  Fe47      1.0  0.9408045898241097  0.9750814479982866  0.38784443904657934  1.0000
  S   S93       1.0  0.8536308279702901  0.9912922084816927  0.4202387600899174  1.0000
  Fe  Fe48      1.0  0.0046781605363963585  0.9842458633635017  0.3202947425874892  1.0000
  S   S94       1.0  0.000664173181747163  0.021308490118575385  0.2737967503084322  1.0000
  S   S95       1.0  0.021166994736402378  0.9333578529250944  0.4067578385835681  1.0000
  S   S96       1.0  0.09010991605565932  0.9427422696707468  0.3325957789315409  1.0000
  Fe  Fe49      1.0  0.30009634230570525  0.8489709188636912  0.04372924531446842  1.0000
  S   S97       1.0  0.37772797709846095  0.8797479475151102  0.013261185061905323  1.0000
  S   S98       1.0  0.32040640663888076  0.8018902397131716  0.08217356004068188  1.0000
  Fe  Fe50      1.0  0.18552590117104217  0.8980008501592489  0.014905292632234612  1.0000
  S   S99       1.0  0.2526187233390942  0.9344998807639532  0.9823091080696961  1.0000
  S   S100      1.0  0.07317462122703522  0.897960790779932  0.016827713894551843  1.0000
  Fe  Fe51      1.0  0.30331256776090787  0.8756982141294665  0.971190988114202  1.0000
  S   S101      1.0  0.32893488937274973  0.8532189674448394  0.9196802008628654  1.0000
  Fe  Fe52      1.0  0.3207932927363595  0.9357582633368066  0.02706088050069999  1.0000
  S   S102      1.0  0.3821573879804794  0.9886755646786275  0.04249818131312999  1.0000
  S   S103      1.0  0.2311820657572652  0.8390321409460617  0.000577314999110401  1.0000
  S   S104      1.0  0.2485845764838115  0.9049660187781722  0.06093179102751156  1.0000
  Fe  Fe53      1.0  0.6833392936541463  0.003660300366258973  0.878037262960772  1.0000
  S   S105      1.0  0.7658845718459736  0.041840432311119065  0.8986933179716922  1.0000
  S   S106      1.0  0.6366108690286252  0.011731743450605236  0.8271609553235323  1.0000
  Fe  Fe54      1.0  0.6943017407651176  0.9431838852738522  0.9343132456700157  1.0000
  S   S107      1.0  0.7792733889250829  0.9752246491521736  0.9586901949316871  1.0000
  S   S108      1.0  0.648860547211899  0.886548146675598  0.9535174129277338  1.0000
  Fe  Fe55      1.0  0.7183676236758395  0.030508558271859085  0.9483348410540455  1.0000
  S   S109      1.0  0.7148452037510695  0.07405875884108747  0.9910330420210283  1.0000
  Fe  Fe56      1.0  0.818368548421062  0.9828267985201823  0.9067637988863855  1.0000
  S   S110      1.0  0.9257913023676985  0.9734451238773068  0.8922859263904528  1.0000
  S   S111      1.0  0.6299158486059396  0.9980246644503405  0.9271650085732431  1.0000
  S   S112      1.0  0.7391297523178851  0.9454496521343394  0.8832712970205966  1.0000
  Fe  Fe57      1.0  0.543293343665976  0.07913372033199725  0.22859374700301358  1.0000
  S   S113      1.0  0.46414249731222806  0.03833776534837985  0.24824415877335373  1.0000
  S   S114      1.0  0.6446497764925304  0.057520251804961016  0.2122546652876759  1.0000
  Fe  Fe58      1.0  0.4568250643560635  0.15294840242026878  0.2344402473351478  1.0000
  S   S115      1.0  0.37016347079929557  0.11915873972332838  0.2544935664864112  1.0000
  S   S116      1.0  0.43854137321663067  0.2180112765810615  0.22441236339194923  1.0000
  Fe  Fe59      1.0  0.44566504676635  0.08683771739938169  0.2860298825646186  1.0000
  S   S117      1.0  0.408891025540718  0.06983166084348447  0.3370391929522585  1.0000
  Fe  Fe60      1.0  0.3952502261373497  0.0739869768749761  0.21520436058086057  1.0000
  S   S118      1.0  0.30783063128435195  0.04828567963303532  0.187693197725261  1.0000
  S   S119      1.0  0.5316985321222665  0.12481343927783303  0.2695714917160805  1.0000
  S   S120      1.0  0.47567548210786903  0.11075466448320806  0.19207305970003496  1.0000
  Fe  Fe61      1.0  0.8287907829057088  0.8036213711966059  0.1731654205068995  1.0000
  S   S121      1.0  0.9101399053571676  0.8152934919015316  0.1359784619353118  1.0000
  S   S122      1.0  0.838510399707936  0.7568801700428958  0.213377131341903  1.0000
  Fe  Fe62      1.0  0.7316693961546876  0.8624593967593207  0.14121109667194287  1.0000
  S   S123      1.0  0.8033073966586941  0.8791391451702698  0.10127669841159026  1.0000
  S   S124      1.0  0.6289916688785017  0.8902448483518595  0.13924297778408914  1.0000
  Fe  Fe63      1.0  0.8272670805299387  0.8137892919960446  0.09820439786644153  1.0000
  S   S125      1.0  0.8349563366441494  0.7831239651560974  0.04857279933450287  1.0000
  Fe  Fe64      1.0  0.879739400298001  0.8797514905246031  0.14226667577085667  1.0000
  S   S126      1.0  0.9508153348782483  0.9307257527591839  0.1376957215020474  1.0000
  S   S127      1.0  0.7480270879135178  0.7965296752662295  0.13458265186821658  1.0000
  S   S128      1.0  0.8057362726178269  0.8686812297443621  0.18324160420865324  1.0000
  C   C1        1.0  0.6394114116413472  0.01273813110915789  0.18938186806340146  1.0000
  C   C2        1.0  0.5771919165234409  0.9960521023974764  0.1818264930222197  1.0000
  C   C3        1.0  0.573854219216616  0.9586752246255348  0.16582805207294046  1.0000
  C   C4        1.0  0.6327762119132472  0.9380186689768297  0.15735071956326283  1.0000
  C   C5        1.0  0.6948494661286299  0.9555320951771236  0.1635456955467608  1.0000
  C   C6        1.0  0.6981705350687069  0.9928289253467192  0.1795261777838056  1.0000
  H   H1        1.0  0.5315871868671033  0.011672398829377206  0.18855123759090295  1.0000
  H   H2        1.0  0.5256702106736574  0.9454861900640753  0.16065664628412246  1.0000
  H   H3        1.0  0.7404990022790275  0.9403407409599484  0.15615815080481224  1.0000
  H   H4        1.0  0.7463960455270199  0.005968922703325941  0.18441662579408172  1.0000
  C   C7        1.0  0.7045443846676532  0.8576183130724253  0.9778708758810746  1.0000
  C   C8        1.0  0.6970632583957769  0.8159960613177552  0.9793855680735435  1.0000
  C   C9        1.0  0.7395392726303802  0.792754043784483  0.9998624770769329  1.0000
  C   C10       1.0  0.7883973510732822  0.8112616731662863  0.019498025371183392  1.0000
  C   C11       1.0  0.7964123783360938  0.8527504607511663  0.017653911356100508  1.0000
  C   C12       1.0  0.7546483052991496  0.8758639123922174  0.9968418618164988  1.0000
  H   H5        1.0  0.6584881304485554  0.8017095849972873  0.9646877748423032  1.0000
  H   H6        1.0  0.7333044885854907  0.7606285678634648  0.0012139998838225363  1.0000
  H   H7        1.0  0.8351765532168866  0.8669933431923688  0.032167471232600775  1.0000
  H   H8        1.0  0.7602939430099774  0.9078234455795355  0.9962540816126799  1.0000
  C   C13       1.0  0.3612747146392046  0.005037771124469126  0.08286272611249101  1.0000
  C   C14       1.0  0.4106274377552494  0.02151070590832571  0.10350184692224373  1.0000
  C   C15       1.0  0.3949544741497018  0.033454212036660325  0.1361791989146165  1.0000
  C   C16       1.0  0.32934529498817566  0.030413798853581975  0.1478692396510408  1.0000
  C   C17       1.0  0.2797336082665347  0.01461639942140236  0.12705809946171345  1.0000
  C   C18       1.0  0.29579132008065945  0.0016657942717173135  0.09465917091161957  1.0000
  H   H9        1.0  0.46127718955143604  0.024415372555337544  0.09452808172947202  1.0000
  H   H10       1.0  0.43376919203186537  0.04494613180396177  0.15222728731787707  1.0000
  H   H11       1.0  0.22885509674605942  0.012291401835566429  0.13597042858604144  1.0000
  H   H12       1.0  0.25718461681046456  0.989735682835  0.07861677390888655  1.0000
  C   C19       1.0  0.03427794071170576  0.9164690053733997  0.9806723890104898  1.0000
  C   C20       1.0  0.9669171710414401  0.9079117623091839  0.9747246649654279  1.0000
  C   C21       1.0  0.9339185902049562  0.9243981614148157  0.9468958283431479  1.0000
  C   C22       1.0  0.9681429272708605  0.9497031990886092  0.9251804681582656  1.0000
  C   C23       1.0  0.03601835540414733  0.9572272605809554  0.9305278695690745  1.0000
  C   C24       1.0  0.06899930190320647  0.9407119962528214  0.9583616233414382  1.0000
  H   H13       1.0  0.9401086567888902  0.8886128010471849  0.9916527723016566  1.0000
  H   H14       1.0  0.8820339090919065  0.9173777881729557  0.942182428222603  1.0000
  H   H15       1.0  0.06255039306033727  0.976869440818885  0.913766193117751  1.0000
  H   H16       1.0  0.1205627056596319  0.9479548651746774  0.963036317061259  1.0000
  C   C25       1.0  0.9671666866505161  0.9543346770388943  0.1759759448815078  1.0000
  C   C26       1.0  0.9862416399801682  0.9945054641295804  0.1759568276231922  1.0000
  C   C27       1.0  0.9968228778520508  0.014632770053941702  0.20617978131164655  1.0000
  C   C28       1.0  0.9904511685377239  0.9943654678307555  0.23653562226540922  1.0000
  C   C29       1.0  0.9739808997934052  0.9536810854482639  0.23667650895531245  1.0000
  C   C30       1.0  0.9610105649749031  0.9338320968344677  0.20634444910709288  1.0000
  H   H17       1.0  0.9917038399155024  0.010351557413171175  0.15259588298546192  1.0000
  H   H18       1.0  0.009937430234377764  0.04599826811471308  0.2060045990103635  1.0000
  H   H19       1.0  0.9700623268202723  0.93767429082948  0.26008736202057026  1.0000
  H   H20       1.0  0.9472112502994181  0.9025804543063548  0.2064160142080543  1.0000
  C   C31       1.0  0.47646867873644005  0.1486980160069399  0.4238697999971198  1.0000
  C   C32       1.0  0.5017174567520026  0.15534099857201905  0.3917530354344363  1.0000
  C   C33       1.0  0.4817206542129686  0.13104982393053974  0.364895564649443  1.0000
  C   C34       1.0  0.4374141799695015  0.09960113526162656  0.370257207322743  1.0000
  C   C35       1.0  0.41327642213026794  0.09248889392568471  0.40249468619840584  1.0000
  C   C36       1.0  0.43244192476770626  0.11710053327069225  0.42922117318949865  1.0000
  H   H21       1.0  0.5356431757078977  0.17982487286065701  0.3874662022861431  1.0000
  H   H22       1.0  0.5003359140272858  0.1368804366673727  0.34010008721752905  1.0000
  H   H23       1.0  0.37924779597824115  0.06806672763556887  0.4067234935036185  1.0000
  H   H24       1.0  0.4131049160562331  0.11152604692275347  0.4538907353510761  1.0000
  C   C37       1.0  0.18377475550921551  0.0992303002018875  0.47387484414318015  1.0000
  C   C38       1.0  0.24478371308918212  0.08004326823424007  0.4669960348618281  1.0000
  C   C39       1.0  0.24679060906646977  0.046714109257986136  0.4456588725127607  1.0000
  C   C40       1.0  0.18789893998784968  0.03285001756893702  0.43084234800410137  1.0000
  C   C41       1.0  0.1270654719783071  0.052174794444610484  0.4375947609859428  1.0000
  C   C42       1.0  0.12487202745383419  0.08522448194637744  0.45918221009765303  1.0000
  H   H25       1.0  0.29044007457922594  0.09067092121604395  0.47803162434555224  1.0000
  H   H26       1.0  0.2940034156951141  0.031695406743276415  0.4405704362221579  1.0000
  H   H27       1.0  0.08163113318519466  0.041573144868457756  0.42633868191582397  1.0000
  H   H28       1.0  0.07744232806339268  0.09990149315278463  0.4644080125751254  1.0000
  C   C43       1.0  0.2377657916363365  0.9238592539290192  0.8326245054066328  1.0000
  C   C44       1.0  0.24538462185375987  0.9422263695757171  0.8638474027285935  1.0000
  C   C45       1.0  0.273328455364936  0.9207202895557258  0.8907436401869977  1.0000
  C   C46       1.0  0.29294458806044954  0.8806467325138152  0.8866175692890177  1.0000
  C   C47       1.0  0.28397478020486594  0.8620392884542399  0.8555721962450732  1.0000
  C   C48       1.0  0.25564576632881036  0.8834647290544487  0.8287594246018063  1.0000
  H   H29       1.0  0.23141364781809726  0.9734502907932523  0.8670106690752  1.0000
  H   H30       1.0  0.2814485053112512  0.9356265637753065  0.9142924222961835  1.0000
  H   H31       1.0  0.29845120133209635  0.8309134298877842  0.8522730704977296  1.0000
  H   H32       1.0  0.2470264090325949  0.8685002711260983  0.8052317666114905  1.0000
  C   C49       1.0  0.28645355706949105  0.021581151090495743  0.6249290534601226  1.0000
  C   C50       1.0  0.26589167757571186  0.055209550738034796  0.6065572882426306  1.0000
  C   C51       1.0  0.30989663408289947  0.08709309208653493  0.601906327931425  1.0000
  C   C52       1.0  0.37455633792091647  0.08537013649232095  0.6155288040330623  1.0000
  C   C53       1.0  0.3960193006099422  0.05090401490585994  0.6325793375919662  1.0000
  C   C54       1.0  0.3517138964935127  0.01925480313414618  0.6376139049998795  1.0000
  H   H33       1.0  0.21537562390188159  0.05713220754275938  0.5967883084616903  1.0000
  H   H34       1.0  0.2930559794732892  0.1133027583346069  0.5884046728308268  1.0000
  H   H35       1.0  0.44687248770550136  0.04839846152799154  0.641609198038865  1.0000
  H   H36       1.0  0.3679969631780124  0.9928962530946138  0.6511227924040345  1.0000
  C   C55       1.0  0.8087602295029939  0.0051531078904445415  0.752427598718369  1.0000
  C   C56       1.0  0.7427422928346724  0.0005662037944602627  0.7412840885766276  1.0000
  C   C57       1.0  0.6896446397067575  0.001710952705325397  0.7642442231076952  1.0000
  C   C58       1.0  0.7025484079768909  0.007996222316235979  0.7982602258891761  1.0000
  C   C59       1.0  0.7687309761351461  0.011387307907375632  0.8092640823808193  1.0000
  C   C60       1.0  0.8215526535211782  0.01021179534724026  0.7864897759920461  1.0000
  H   H37       1.0  0.7328669782254099  0.9951531633664281  0.7151684637679374  1.0000
  H   H38       1.0  0.6390062464150663  0.996747435868378  0.75582268656864  1.0000
  H   H39       1.0  0.7797568248313141  0.015322906807615722  0.8353190062306216  1.0000
  H   H40       1.0  0.8722747912998462  0.013860477451418829  0.7953751293208254  1.0000
  C   C61       1.0  0.940125810876763  0.009373192803284303  0.524509284259591  1.0000
  C   C62       1.0  0.8724830541748939  0.99991218390696  0.5205532000374794  1.0000
  C   C63       1.0  0.8450135372889962  0.9956111348286744  0.4884353172931937  1.0000
  C   C64       1.0  0.885791449696649  0.9995841480920367  0.4603476115741778  1.0000
  C   C65       1.0  0.9533481753221131  0.008861019193463937  0.4643712604553778  1.0000
  C   C66       1.0  0.9803241170543316  0.014366231137144414  0.49637833471263887  1.0000
  H   H41       1.0  0.8415874653797397  0.9950311856281083  0.542152373418144  1.0000
  H   H42       1.0  0.7928044717329205  0.9881051622236648  0.4853317484224177  1.0000
  H   H43       1.0  0.9845474104853796  0.012095382652868247  0.44265743556831844  1.0000
  H   H44       1.0  0.03215668786615944  0.022598993299828285  0.49922642297923964  1.0000
  C   C67       1.0  0.6103184260377876  0.9671673304524282  0.6332083069582519  1.0000
  C   C68       1.0  0.6448799805160014  0.9591697103185969  0.6629939304988279  1.0000
  C   C69       1.0  0.6102003775803609  0.9458901244606466  0.6912256924896171  1.0000
  C   C70       1.0  0.5408185071252071  0.9410165950481898  0.6898102227127222  1.0000
  C   C71       1.0  0.5062925852521052  0.9492231504884606  0.6600459272724478  1.0000
  C   C72       1.0  0.5409931440645226  0.962102487356122  0.6316854203939383  1.0000
  H   H45       1.0  0.6985970727009272  0.9624825056974706  0.664115949378038  1.0000
  H   H46       1.0  0.6372364909355313  0.9391089646844789  0.7140807307931237  1.0000
  H   H47       1.0  0.45290632849102214  0.9453915496956667  0.6587719210788382  1.0000
  H   H48       1.0  0.5139912457357395  0.9683140893351758  0.6087122375755031  1.0000
  C   C73       1.0  0.9372992974101021  0.24880844409187056  0.6567875647746994  1.0000
  C   C74       1.0  0.8832296409827954  0.2608573937874476  0.6367737403268653  1.0000
  C   C75       1.0  0.8353227840824377  0.2329654667463979  0.6267323395658801  1.0000
  C   C76       1.0  0.8414428963654687  0.19285687874650273  0.6365260849598163  1.0000
  C   C77       1.0  0.8956316019063548  0.18067030689775407  0.6565279914087423  1.0000
  C   C78       1.0  0.9438930546895513  0.2085855536363777  0.6664213730696418  1.0000
  H   H49       1.0  0.8788847992629293  0.29154653196130353  0.6284062555793989  1.0000
  H   H50       1.0  0.7936596407868404  0.2424817932573812  0.6111221744925779  1.0000
  H   H51       1.0  0.9000890753108324  0.14990769900389528  0.6646342137945553  1.0000
  H   H52       1.0  0.9857925319893268  0.1990983768984539  0.6818667147917913  1.0000
  C   C79       1.0  0.08205620847688477  0.773876769003358  0.7756847829549345  1.0000
  C   C80       1.0  0.11364037970602836  0.8109767275503191  0.7747717812294592  1.0000
  C   C81       1.0  0.16451808978338245  0.8178011607828031  0.751587758540507  1.0000
  C   C82       1.0  0.18308185830002932  0.7879008032762381  0.7287457202282741  1.0000
  C   C83       1.0  0.15172991792015433  0.7506595909487822  0.729779496455998  1.0000
  C   C84       1.0  0.10167746406097079  0.7435034942348901  0.7534853508453158  1.0000
  H   H53       1.0  0.09996559181609932  0.83412453394632  0.7924369345074127  1.0000
  H   H54       1.0  0.18959549475805493  0.8461607400013961  0.7516495787126294  1.0000
  H   H55       1.0  0.16559274972766147  0.7275194027524642  0.7121186230724199  1.0000
  H   H56       1.0  0.07728290957903838  0.7147866467166294  0.7541114354373638  1.0000
  C   C85       1.0  0.987767305709529  0.5384119059992399  0.8064178304883958  1.0000
  C   C86       1.0  0.9468813809663116  0.5100820809545349  0.7909513128644379  1.0000
  C   C87       1.0  0.9702509860490275  0.4883869090938688  0.7632321871529679  1.0000
  C   C88       1.0  0.034325264547320655  0.49511346905917875  0.7506074654208917  1.0000
  C   C89       1.0  0.0760397366633736  0.5225988201886971  0.7666396598714614  1.0000
  C   C90       1.0  0.052903440111402356  0.5440443872820682  0.7946288850175173  1.0000
  H   H57       1.0  0.8965214040839636  0.5055386428858524  0.7998631433864543  1.0000
  H   H58       1.0  0.9381185678125482  0.4668908221376308  0.7514068103236475  1.0000
  H   H59       1.0  0.12597074715028067  0.5276969641119116  0.7572663665125116  1.0000
  H   H60       1.0  0.08571121710271745  0.5648082265422343  0.807091217990375  1.0000
  C   C91       1.0  0.920052584589044  0.7938534214321936  0.4493127399649701  1.0000
  C   C92       1.0  0.902774735897343  0.8317784905420563  0.4368357946203492  1.0000
  C   C93       1.0  0.9297000011244466  0.8450362788215572  0.4065726789902465  1.0000
  C   C94       1.0  0.9744243534675864  0.8205541893989869  0.38882160357791906  1.0000
  C   C95       1.0  0.9905760953048258  0.7823227927422283  0.4007983296959649  1.0000
  C   C96       1.0  0.963073423170813  0.7689152754466254  0.43090050490088816  1.0000
  H   H61       1.0  0.8678440080135085  0.8507763569254977  0.4500928438432622  1.0000
  H   H62       1.0  0.9154652858500263  0.8741851201255159  0.39690914549219525  1.0000
  H   H63       1.0  0.02565450420442028  0.763479968152889  0.3872791239844349  1.0000
  H   H64       1.0  0.9768246426242922  0.7397069209851004  0.4402108422976647  1.0000
  C   C97       1.0  0.9439914515810593  0.5508468675951749  0.5631898451420316  1.0000
  C   C98       1.0  0.9765116726414997  0.5180476378407931  0.5780590573070162  1.0000
  C   C99       1.0  0.939589977811771  0.48518045863059767  0.5889179477441256  1.0000
  C   C100      1.0  0.8701672767190736  0.48453161799330763  0.5843521855469197  1.0000
  C   C101      1.0  0.8376631676567311  0.5169794425275293  0.5688048859069199  1.0000
  C   C102      1.0  0.8745512304417811  0.550253769184434  0.5584637328313623  1.0000
  H   H65       1.0  0.030356485498149066  0.5176200145123866  0.5806606883070758  1.0000
  H   H66       1.0  0.965244205385057  0.45991166497127156  0.5999707255164369  1.0000
  H   H67       1.0  0.7839051353166672  0.5168059435226596  0.5653065703837045  1.0000
  H   H68       1.0  0.8490592859261309  0.5756321878473758  0.5472401893113855  1.0000
  C   C103      1.0  0.40037153960796074  0.385059728813  0.6239871463413323  1.0000
  C   C104      1.0  0.4041356941807088  0.3431909642117401  0.6266932190569803  1.0000
  C   C105      1.0  0.38110734435249327  0.3189195618749108  0.600354581539549  1.0000
  C   C106      1.0  0.3536575420287016  0.33669626744598685  0.571619433576306  1.0000
  C   C107      1.0  0.35138889683599683  0.37843874727449983  0.5687262978911183  1.0000
  C   C108      1.0  0.37525591547078774  0.4025173824366546  0.5946704481916233  1.0000
  H   H69       1.0  0.42361080493854997  0.32957877989677214  0.6493373254255331  1.0000
  H   H70       1.0  0.3828651466622644  0.2866147548249109  0.6026596237735317  1.0000
  H   H71       1.0  0.3299482643525158  0.3923621927971774  0.5466246829797837  1.0000
  H   H72       1.0  0.3721725511691809  0.4346496355478077  0.5921680351082268  1.0000
  C   C109      1.0  0.2600948001400387  0.6073904325754607  0.7156779427942573  1.0000
  C   C110      1.0  0.21829620655853543  0.6366310096536164  0.7298112534061518  1.0000
  C   C111      1.0  0.22291391594168264  0.6453183444735588  0.7639276506769972  1.0000
  C   C112      1.0  0.26777012624118823  0.6239220608490165  0.7842457924490769  1.0000
  C   C113      1.0  0.31099149705258045  0.595387327357588  0.7700146649315642  1.0000
  C   C114      1.0  0.307146805959323  0.5871114257446576  0.7356401312125076  1.0000
  H   H73       1.0  0.18266477114598922  0.652902630750174  0.7143787603791777  1.0000
  H   H74       1.0  0.19215062054189036  0.6689250203980686  0.7744560631370624  1.0000
  H   H75       1.0  0.34579373984629  0.578796192497383  0.7857112206262334  1.0000
  H   H76       1.0  0.3391503154856712  0.5642800507310969  0.7249233551759867  1.0000
  C   C115      1.0  0.6568421541930397  0.6087716085840379  0.5275206570999563  1.0000
  C   C116      1.0  0.7001300675188454  0.6107477336345986  0.555049552056795  1.0000
  C   C117      1.0  0.6765696633657691  0.6028297448861701  0.5873296965872887  1.0000
  C   C118      1.0  0.6097479958054478  0.5923637243366929  0.5921180746242265  1.0000
  C   C119      1.0  0.5668773072697262  0.5890567897372485  0.5644924019463833  1.0000
  C   C120      1.0  0.590304280199267  0.597472446445321  0.5322653228861601  1.0000
  H   H77       1.0  0.7516520648174674  0.6186120011891871  0.5516244076949282  1.0000
  H   H78       1.0  0.7101199333318405  0.6049867967180077  0.6085483728690274  1.0000
  H   H79       1.0  0.5152502340525469  0.5808096889802579  0.5678908350418287  1.0000
  H   H80       1.0  0.5564608211857586  0.5958013285770669  0.5111183283287206  1.0000
  C   C121      1.0  0.6609696167562817  0.20040253056196544  0.9547862035228909  1.0000
  C   C122      1.0  0.639655079534732  0.16688174166798236  0.9366951672700299  1.0000
  C   C123      1.0  0.6571590375176923  0.12804584166829192  0.9474347477337459  1.0000
  C   C124      1.0  0.6941471741518206  0.12260491786577195  0.9769229272734364  1.0000
  C   C125      1.0  0.7145021865635729  0.1561095642586816  0.9953245601009125  1.0000
  C   C126      1.0  0.6988562388738597  0.19498638276926777  0.9839958802660954  1.0000
  H   H81       1.0  0.6105236019900352  0.17094447748775057  0.9140598357930496  1.0000
  H   H82       1.0  0.6413301887336329  0.1023123199727137  0.9331068834406664  1.0000
  H   H83       1.0  0.7432784288942667  0.1520557518851381  0.01808055168860534  1.0000
  H   H84       1.0  0.7154694405797418  0.22072259916159595  0.9981043082425052  1.0000
  C   C127      1.0  0.8707916251092566  0.35888230099928364  0.8541939759848001  1.0000
  C   C128      1.0  0.8061219664876002  0.3452022318065769  0.8476128155966156  1.0000
  C   C129      1.0  0.7741811282677087  0.3546878630712252  0.8172700898105949  1.0000
  C   C130      1.0  0.8073940934610211  0.37723554839966844  0.7931669247702821  1.0000
  C   C131      1.0  0.8720500141093472  0.3908355306353984  0.7997244598203506  1.0000
  C   C132      1.0  0.903959899292004  0.38135663412456855  0.8300251437218951  1.0000
  H   H85       1.0  0.7816011315709398  0.32601896877511216  0.8652928944259224  1.0000
  H   H86       1.0  0.724471552320691  0.34364281130752516  0.8121393465384893  1.0000
  H   H87       1.0  0.8972499498849583  0.4092141733738347  0.7816722913921477  1.0000
  H   H88       1.0  0.9540928852598327  0.3919252324415391  0.834874627958403  1.0000
  C   C133      1.0  0.4003463238345438  0.6857218072930688  0.037288383259240776  1.0000
  C   C134      1.0  0.3924290753513388  0.7196308410861909  0.016951224680318067  1.0000
  C   C135      1.0  0.3675760928148393  0.7555977751421838  0.03057716425473389  1.0000
  C   C136      1.0  0.35174650378428307  0.7576373653608882  0.06459557191648724  1.0000
  C   C137      1.0  0.3618753003844286  0.7241704385156639  0.08505662192697061  1.0000
  C   C138      1.0  0.38608044911027806  0.6882370150104935  0.07140187911996643  1.0000
  H   H89       1.0  0.4041686702233547  0.7179647898618581  0.9906336364725106  1.0000
  H   H90       1.0  0.3604538572988379  0.7816117349610416  0.014765325587839051  1.0000
  H   H91       1.0  0.3502951528531475  0.7258597110467617  0.11144376008033685  1.0000
  H   H92       1.0  0.3938177997063659  0.662438366449285  0.08737428004639969  1.0000
  C   C139      1.0  0.11818595009794519  0.5890491307810654  0.0186262282613181  1.0000
  C   C140      1.0  0.13726064066387367  0.6268015568657315  0.03037625858377102  1.0000
  C   C141      1.0  0.12495569192825329  0.6611474011462327  0.010965025535655704  1.0000
  C   C142      1.0  0.09363888165046341  0.6577179730371168  0.979760957991375  1.0000
  C   C143      1.0  0.07124803208783392  0.6203501502498224  0.9688765443522466  1.0000
  C   C144      1.0  0.08335193116091212  0.5860545596436373  0.9883284259648881  1.0000
  H   H93       1.0  0.16183498009945008  0.6295715140465818  0.05428572224958583  1.0000
  H   H94       1.0  0.14229454331541413  0.689972746852328  0.019463413170623278  1.0000
  H   H95       1.0  0.04489084747079497  0.6177655250026713  0.9453460539649843  1.0000
  H   H96       1.0  0.06765941144761278  0.5570251944553898  0.9793648327816133  1.0000
  C   C145      1.0  0.6146239566320136  0.44626278764801935  0.002764910066963333  1.0000
  C   C146      1.0  0.6087275703813947  0.41724245475153415  0.027678255945207342  1.0000
  C   C147      1.0  0.5535445508819966  0.4177045139763926  0.04903583331143113  1.0000
  C   C148      1.0  0.5044608663639003  0.44764208433468655  0.045824307850239165  1.0000
  C   C149      1.0  0.5115204777400546  0.4777719951782362  0.0218298008968425  1.0000
  C   C150      1.0  0.5665641108644867  0.47697402605846695  0.00016721927836638173  1.0000
  H   H97       1.0  0.6472471608724346  0.3948467194948662  0.031042279232953218  1.0000
  H   H98       1.0  0.5488330849885626  0.3948815017012068  0.06807762983568844  1.0000
  H   H99       1.0  0.47393850441498214  0.5012100050705405  0.019498185689024172  1.0000
  H   H100      1.0  0.5713492607634364  0.4998516868026088  0.9811821604964827  1.0000
  C   C151      1.0  0.8316775982830785  0.6333098645725429  0.16452240013513325  1.0000
  C   C152      1.0  0.8222900727645661  0.6373497362290461  0.19902994897118287  1.0000
  C   C153      1.0  0.8248352759907424  0.6752973376343422  0.21405923069953903  1.0000
  C   C154      1.0  0.8359716595205489  0.7093714121004289  0.194551252446475  1.0000
  C   C155      1.0  0.8443734186646146  0.7053670044758016  0.15996748924106824  1.0000
  C   C156      1.0  0.8422498968427631  0.6673811704843077  0.1449770414993757  1.0000
  H   H101      1.0  0.8123071876759019  0.6113472164910722  0.21413577040031415  1.0000
  H   H102      1.0  0.8172294579891914  0.6782011090579656  0.24066513697906128  1.0000
  H   H103      1.0  0.8531395335024813  0.7314576502512818  0.14471767618012282  1.0000
  H   H104      1.0  0.8492328684798193  0.664421528032328  0.11826406548289634  1.0000
  C   C157      1.0  0.8044955333499173  0.5565559190018157  0.32745169232281285  1.0000
  C   C158      1.0  0.7827702037760654  0.5814861898705294  0.3534940030923026  1.0000
  C   C159      1.0  0.829661744767467  0.6007788002137769  0.37393590192487225  1.0000
  C   C160      1.0  0.8981944393961955  0.5957892661993108  0.36783379090124085  1.0000
  C   C161      1.0  0.9198521351496678  0.5706575136880964  0.34199283767887795  1.0000
  C   C162      1.0  0.8730157966735763  0.550622398026463  0.3221484934304812  1.0000
  H   H105      1.0  0.7298634404877956  0.5864986356470923  0.3574613715295107  1.0000
  H   H106      1.0  0.812736978408735  0.6202015734293873  0.3938857526285396  1.0000
  H   H107      1.0  0.9728599420778646  0.566333292443525  0.3374402206389316  1.0000
  H   H108      1.0  0.8901487197995444  0.5303320588965305  0.30290366506116223  1.0000
  C   C163      1.0  0.7623564711618294  0.37979641204162157  0.14267655748729935  1.0000
  C   C164      1.0  0.8322597580519215  0.37776610184875337  0.1415279421591285  1.0000
  C   C165      1.0  0.864331679279301  0.35672016475993273  0.11562021694441249  1.0000
  C   C166      1.0  0.8266606256141262  0.33816568887019743  0.09051748867426124  1.0000
  C   C167      1.0  0.7566629400251589  0.33977104036381284  0.09200349674468478  1.0000
  C   C168      1.0  0.7245421842146126  0.3603114500389787  0.11816204156886945  1.0000
  H   H109      1.0  0.8618148812279517  0.3918178064925381  0.16085474712775452  1.0000
  H   H110      1.0  0.9184553538535791  0.35511837251142536  0.1148488762379587  1.0000
  H   H111      1.0  0.7272922898402261  0.32423733981286573  0.07353345602894779  1.0000
  H   H112      1.0  0.6704463201844203  0.36148144214179984  0.11911326648606263  1.0000
  C   C169      1.0  0.3662821579712805  0.27346454713380575  0.32205549547514123  1.0000
  C   C170      1.0  0.3551565124101082  0.29333815878751074  0.2917197656697983  1.0000
  C   C171      1.0  0.3768315949074288  0.27613667893490895  0.2616600346322363  1.0000
  C   C172      1.0  0.41012439592964656  0.23908118554310465  0.261913438652056  1.0000
  C   C173      1.0  0.4208655083442354  0.21898710490275106  0.2922171326156689  1.0000
  C   C174      1.0  0.3993973792875438  0.2363230063424837  0.32229385053759196  1.0000
  H   H113      1.0  0.3289565772485956  0.32175166603030475  0.2912469658941072  1.0000
  H   H114      1.0  0.36729514049273987  0.29150302885087753  0.23827576773254483  1.0000
  H   H115      1.0  0.4470776889509278  0.19051892996719283  0.2926710940425154  1.0000
  H   H116      1.0  0.41043696112161987  0.22154581365762213  0.34570230858709233  1.0000
  C   C175      1.0  0.4550427923296687  0.47001378168967706  0.448970090076452  1.0000
  C   C176      1.0  0.39262661780433467  0.4868722705976036  0.4410931460211311  1.0000
  C   C177      1.0  0.35465294416571136  0.5057941639399061  0.4658828696721804  1.0000
  C   C178      1.0  0.37863065992290945  0.5078176095779735  0.4986886995397376  1.0000
  C   C179      1.0  0.44186196454116233  0.4916844942747398  0.5064199516455969  1.0000
  C   C180      1.0  0.48015866070909397  0.4727196184303148  0.4815671593952849  1.0000
  H   H117      1.0  0.37338089139186476  0.4855923228297796  0.41585219450202876  1.0000
  H   H118      1.0  0.30659172815215263  0.5188302858366545  0.4595924497609438  1.0000
  H   H119      1.0  0.46128529752045533  0.49368308934658367  0.5314194805475704  1.0000
  H   H120      1.0  0.5285852443616081  0.4598249304838376  0.4877452499547599  1.0000
  C   C181      1.0  0.4022423240153967  0.4722899698737013  0.23170142247141848  1.0000
  C   C182      1.0  0.3548553679010278  0.497466277229807  0.24694812877821487  1.0000
  C   C183      1.0  0.3278858164735494  0.5303528559579461  0.22940035882027865  1.0000
  C   C184      1.0  0.3476466337538733  0.5375715153787436  0.1964559647204993  1.0000
  C   C185      1.0  0.39349046594134407  0.5116548414006478  0.18096535298689043  1.0000
  C   C186      1.0  0.42139703162075093  0.47936138355408336  0.19868611972744157  1.0000
  H   H121      1.0  0.3396622419435682  0.49201243667454364  0.27238108962902324  1.0000
  H   H122      1.0  0.2919176540561803  0.550125269544726  0.24137451657327902  1.0000
  H   H123      1.0  0.4084851416831725  0.5167907820775017  0.15545706380025104  1.0000
  H   H124      1.0  0.4577485739975695  0.459942088156528  0.18667949856422725  1.0000
  C   C187      1.0  0.14262863068651033  0.4797788757349087  0.3228976832793311  1.0000
  C   C188      1.0  0.07265583618188565  0.4837607497390802  0.32188157801920003  1.0000
  C   C189      1.0  0.03821152613045431  0.4799486938588953  0.2912846589729549  1.0000
  C   C190      1.0  0.07391429562721719  0.4720917902516957  0.26189120290544127  1.0000
  C   C191      1.0  0.14382392740468064  0.4699219284746977  0.26282043381973985  1.0000
  C   C192      1.0  0.17801251688811126  0.47407992152622414  0.29319588136013225  1.0000
  H   H125      1.0  0.04494233686497062  0.48830885885504205  0.3447469177276836  1.0000
  H   H126      1.0  0.9841487980105487  0.48171206019277174  0.29060135244770435  1.0000
  H   H127      1.0  0.17171765836579334  0.46435481597164646  0.24011615142293385  1.0000
  H   H128      1.0  0.23194156617879114  0.4724442667786611  0.29364291950697075  1.0000
  N   N1        1.0  0.5862955909549505  0.9672746425314309  0.04002350666129928  1.0000
  C   C193      1.0  0.6592912120533921  0.9595139937169858  0.03991048112642104  1.0000
  C   C194      1.0  0.5543901534047468  0.9442609120014537  0.012800021671003803  1.0000
  C   C195      1.0  0.5731552112883693  0.010562777030330261  0.034872138215653825  1.0000
  C   C196      1.0  0.5584434128349877  0.9547359954587308  0.07249832443094206  1.0000
  H   H129      1.0  0.6846822471129533  0.9761631637520507  0.060395354031848925  1.0000
  H   H130      1.0  0.6818416575265646  0.9689886789407592  0.015832032905359616  1.0000
  H   H131      1.0  0.6709693228792066  0.9270489997871298  0.04338904392598231  1.0000
  H   H132      1.0  0.49915674908870455  0.949258181920695  0.012288731120497554  1.0000
  H   H133      1.0  0.5738864351592015  0.9531392576093085  0.9879101039366558  1.0000
  H   H134      1.0  0.563896445957526  0.9114916680451617  0.015531378062292323  1.0000
  H   H135      1.0  0.5962472636390374  0.028927006106314268  0.054999285045548074  1.0000
  H   H136      1.0  0.5184547998004513  0.017451548995228716  0.03460468835457697  1.0000
  H   H137      1.0  0.5939535036280351  0.021109185131049646  0.010651339300102425  1.0000
  H   H138      1.0  0.5031259543047298  0.9588327807678987  0.0731697084741747  1.0000
  H   H139      1.0  0.5797797112296548  0.9723496977129317  0.09356565964736663  1.0000
  H   H140      1.0  0.5693246978561304  0.9225727875694433  0.07765058873029318  1.0000
  N   N2        1.0  0.6682294850144881  0.5193750822832209  0.4298365378020887  1.0000
  C   C197      1.0  0.6125984053038902  0.5388311355504807  0.44823601776319894  1.0000
  C   C198      1.0  0.7297655109180452  0.5429716587093635  0.43429056936064436  1.0000
  C   C199      1.0  0.6508949158671586  0.5172134671575521  0.39389721773230246  1.0000
  C   C200      1.0  0.679584976343311  0.47847408460589186  0.44302649137991046  1.0000
  H   H141      1.0  0.6226918714771004  0.5395447591781583  0.47564535424876614  1.0000
  H   H142      1.0  0.5646888426927175  0.522927503103741  0.4442342481565596  1.0000
  H   H143      1.0  0.6046466805098343  0.5704704435015728  0.4401542372983923  1.0000
  H   H144      1.0  0.7727170599990125  0.5296897827909487  0.42032572735706636  1.0000
  H   H145      1.0  0.722492344358042  0.5743373677977697  0.42537369611577486  1.0000
  H   H146      1.0  0.7443459618084609  0.5448611861871456  0.46117079285401386  1.0000
  H   H147      1.0  0.6399075954638822  0.5475085630664224  0.3835228327043138  1.0000
  H   H148      1.0  0.605702174389037  0.4985763088794322  0.38967698636461384  1.0000
  H   H149      1.0  0.6925618699698737  0.5038591300243974  0.37897481253367504  1.0000
  H   H150      1.0  0.6929746454734684  0.4791215537383635  0.47009159655915195  1.0000
  H   H151      1.0  0.720846696819732  0.4627865113008092  0.42951317733479316  1.0000
  H   H152      1.0  0.633867134696422  0.45998580371716724  0.44038332260121815  1.0000
  N   N3        1.0  0.840619942749566  0.8787896688653581  0.5522829989623949  1.0000
  C   C201      1.0  0.7774250089989603  0.9000663524413052  0.5606168399276757  1.0000
  C   C202      1.0  0.8353997791895807  0.8360137029806066  0.5614842678400802  1.0000
  C   C203      1.0  0.8967110331886197  0.8969939391170342  0.5708820066190374  1.0000
  C   C204      1.0  0.8531011233309032  0.8819041669147569  0.515996841505223  1.0000
  H   H153      1.0  0.7792676678337059  0.9323318329996944  0.5536605088814401  1.0000
  H   H154      1.0  0.7666026297865798  0.8986867119427753  0.5878931608638951  1.0000
  H   H155      1.0  0.7339781878322122  0.8868935464539535  0.5471885466269364  1.0000
  H   H156      1.0  0.8823666912088425  0.819098676564366  0.5555455933588827  1.0000
  H   H157      1.0  0.8252506835671786  0.8322160153774927  0.5886229674351717  1.0000
  H   H158      1.0  0.7945436119696828  0.8210876568856202  0.5472735403340293  1.0000
  H   H159      1.0  0.9450951421060924  0.8816421669528647  0.5650971782366945  1.0000
  H   H160      1.0  0.8890546956155286  0.8951158075791941  0.5983939591143169  1.0000
  H   H161      1.0  0.9022823150723519  0.9292569775097912  0.5644404444190908  1.0000
  H   H162      1.0  0.900076400581953  0.8657433108989474  0.5088403819444532  1.0000
  H   H163      1.0  0.8578763061293708  0.9135922917451962  0.5078518428763853  1.0000
  H   H164      1.0  0.8117585459231623  0.868343481602415  0.5012184444479874  1.0000
  N   N4        1.0  0.29876048814177536  0.6323909261179752  0.9369609417423339  1.0000
  C   C205      1.0  0.2611195167113272  0.6659045920808782  0.9213366309790127  1.0000
  C   C206      1.0  0.2828227432573052  0.5945304422275657  0.919603323319424  1.0000
  C   C207      1.0  0.27958121541990333  0.629215908287207  0.9724622805943871  1.0000
  C   C208      1.0  0.37131601413922855  0.6398562855968907  0.9345077100980931  1.0000
  H   H165      1.0  0.27243421016954694  0.6949643499600006  0.9336796275228307  1.0000
  H   H166      1.0  0.20627198461318622  0.6614426655099629  0.9233865499915903  1.0000
  H   H167      1.0  0.2732540539047066  0.6687715829095883  0.8942943130389306  1.0000
  H   H168      1.0  0.31088102288542396  0.5687226501894119  0.9306925463613263  1.0000
  H   H169      1.0  0.22854608350325067  0.5877290812788862  0.9213386694720247  1.0000
  H   H170      1.0  0.2955803131774195  0.5960002566482664  0.8925447581057285  1.0000
  H   H171      1.0  0.28816103246970015  0.6577212721065699  0.986241139684628  1.0000
  H   H172      1.0  0.3090500480072298  0.605444713676802  0.9854210911096043  1.0000
  H   H173      1.0  0.2259574908061508  0.6215268374880746  0.9750234429353514  1.0000
  H   H174      1.0  0.40123654138565834  0.6153084062560606  0.9464362306032534  1.0000
  H   H175      1.0  0.3850626137689404  0.6680539477947642  0.9475477312911333  1.0000
  H   H176      1.0  0.3873172836305376  0.6423447216321585  0.9079607658713695  1.0000
  N   N5        1.0  0.2536808999454043  0.17517616091897315  0.38410323865226936  1.0000
  C   C209      1.0  0.2525888207617233  0.1312243591299312  0.3793789094649973  1.0000
  C   C210      1.0  0.20082640837601584  0.18738272925822336  0.40791172853328733  1.0000
  C   C211      1.0  0.24222868146603105  0.19530639321324542  0.3516167767249118  1.0000
  C   C212      1.0  0.3195233990312867  0.1868458223499783  0.3976050214788061  1.0000
  H   H177      1.0  0.20295916760644683  0.1209835094500683  0.37026705060369963  1.0000
  H   H178      1.0  0.2635150689999901  0.11522296430790671  0.40320169940721834  1.0000
  H   H179      1.0  0.291091763366228  0.12110630989861551  0.3610373086899685  1.0000
  H   H180      1.0  0.20065519377766838  0.220395307900751  0.4121166160678217  1.0000
  H   H181      1.0  0.1502712455159967  0.17896171701419025  0.3987119385565863  1.0000
  H   H182      1.0  0.20836658113550222  0.17277351481092854  0.4327140183117633  1.0000
  H   H183      1.0  0.24317232512751263  0.22856886188195527  0.3542771759416409  1.0000
  H   H184      1.0  0.19297944700179182  0.1872729184645819  0.3405897886808207  1.0000
  H   H185      1.0  0.28179155086120455  0.1869663154956912  0.3332385444252988  1.0000
  H   H186      1.0  0.3289056915373705  0.17337605319615715  0.42262588648786226  1.0000
  H   H187      1.0  0.3235013270666167  0.21996559963266402  0.40015109379615726  1.0000
  H   H188      1.0  0.3607118226621282  0.17650992349334985  0.381030699234252  1.0000
  N   N6        1.0  0.5671291840428995  0.34464295036224457  0.21677076538741588  1.0000
  C   C213      1.0  0.6150449827927689  0.31510770747811  0.20265481555414636  1.0000
  C   C214      1.0  0.5411640450278125  0.370847632933883  0.18974726179309942  1.0000
  C   C215      1.0  0.6013562930595199  0.3691937793541677  0.24228256976499526  1.0000
  C   C216      1.0  0.5108116138319508  0.32344055716327375  0.23240502914099626  1.0000
  H   H189      1.0  0.635779045765274  0.29490819226287296  0.22237814688841429  1.0000
  H   H190      1.0  0.6580745061944647  0.3302277185222582  0.1905424836098428  1.0000
  H   H191      1.0  0.5907960206645504  0.29593482625205464  0.18342769655769386  1.0000
  H   H192      1.0  0.5155178651124924  0.35330261838168253  0.16992258155915385  1.0000
  H   H193      1.0  0.5042569689785718  0.3931326254527531  0.1994882993297489  1.0000
  H   H194      1.0  0.5820721870469169  0.38784733642567315  0.17768307587666138  1.0000
  H   H195      1.0  0.5666485812927042  0.39184801814010806  0.2533779315652025  1.0000
  H   H196      1.0  0.6441022991584986  0.38569346969089485  0.23136242915692617  1.0000
  H   H197      1.0  0.6213598708144191  0.3503666006173455  0.26307554801340644  1.0000
  H   H198      1.0  0.4736802306500748  0.34492139908054903  0.24334775508749806  1.0000
  H   H199      1.0  0.5281802273800508  0.3032154549894084  0.25289637756674227  1.0000
  H   H200      1.0  0.4837746254154355  0.30460664174136903  0.21389131293250135  1.0000
  N   N7        1.0  0.11032238807495642  0.5479532157072223  0.16068961761168907  1.0000
  C   C217      1.0  0.14960806241317637  0.5102230321808517  0.15827438427015156  1.0000
  C   C218      1.0  0.13693246942681814  0.5775267863402581  0.13685292803798518  1.0000
  C   C219      1.0  0.11555441072040562  0.5638335534482144  0.19511598668659713  1.0000
  C   C220      1.0  0.03941641182874989  0.5401763437538047  0.15246319350177  1.0000
  H   H201      1.0  0.1305948129018848  0.4870990570588437  0.17575540820211644  1.0000
  H   H202      1.0  0.20322558230183452  0.5150211081029263  0.16477120992962307  1.0000
  H   H203      1.0  0.14734998946963374  0.4974172288711911  0.1325876669626143  1.0000
  H   H204      1.0  0.19020967054877147  0.5842956604103142  0.1423719080314271  1.0000
  H   H205      1.0  0.13447874011406702  0.5662026482322529  0.11068351708593238  1.0000
  H   H206      1.0  0.10821788520852205  0.6062696258704251  0.13781394830923238  1.0000
  H   H207      1.0  0.08636158813782191  0.5922022588973176  0.19805146874474316  1.0000
  H   H208      1.0  0.1686366335982996  0.5699451572725771  0.20197285462033301  1.0000
  H   H209      1.0  0.09624806456265822  0.5420252727717652  0.2137080253175418  1.0000
  H   H210      1.0  0.033957704527711075  0.5282716850034004  0.1265825516083354  1.0000
  H   H211      1.0  0.008002382539601172  0.5678987054499238  0.1543570512827569  1.0000
  H   H212      1.0  0.017886545672169518  0.5177237682829882  0.16974117850947137  1.0000
  N   N8        1.0  0.17498774259629224  0.9601904579396686  0.5238434523012601  1.0000
  C   C221      1.0  0.23048193936815298  0.952730325665074  0.5002191018492995  1.0000
  C   C222      1.0  0.16962089493511634  0.003575914240174116  0.5310570240171579  1.0000
  C   C223      1.0  0.18825341830551579  0.9382359427424829  0.55532616381129  1.0000
  C   C224      1.0  0.11164464000942642  0.946257871206757  0.50881178257103  1.0000
  H   H213      1.0  0.27885970521128955  0.9637742512537919  0.5103564766648107  1.0000
  H   H214      1.0  0.22129353413536368  0.9681077518264172  0.4759031975257562  1.0000
  H   H215      1.0  0.23671874867215092  0.9201971321172108  0.4947055374315318  1.0000
  H   H216      1.0  0.15980351341035215  0.02112751727228268  0.50789017900423  1.0000
  H   H217      1.0  0.1281414919437629  0.010185175307992456  0.548866425559282  1.0000
  H   H218      1.0  0.2165498819788254  0.015015555830423242  0.5425431027681771  1.0000
  H   H219      1.0  0.14870226716468826  0.9444951182443257  0.574286908721677  1.0000
  H   H220      1.0  0.23671030929317483  0.9472655074094035  0.5667940130611383  1.0000
  H   H221      1.0  0.19065245933231623  0.9052713816971342  0.5512464210755553  1.0000
  H   H222      1.0  0.0685351194316215  0.9518965130605835  0.525836373401655  1.0000
  H   H223      1.0  0.11368781372883774  0.9135645638035306  0.5032964142317625  1.0000
  H   H224      1.0  0.10071718637082494  0.9618991470252064  0.484724847414557  1.0000
  N   N9        1.0  0.5615520127244772  0.5602950356792267  0.2539398621693545  1.0000
  C   C225      1.0  0.49686778455750513  0.5713564342355091  0.23815877062246504  1.0000
  C   C226      1.0  0.6159886027129441  0.5826519963017791  0.23774730468768213  1.0000
  C   C227      1.0  0.573781474834157  0.5167411881658635  0.25002934929989995  1.0000
  C   C228      1.0  0.5594396778777216  0.5703658960984462  0.289932334365985  1.0000
  H   H225      1.0  0.4547038853705292  0.555683022213685  0.25033546169342324  1.0000
  H   H226      1.0  0.4957730227714195  0.563202500976885  0.21114524889412967  1.0000
  H   H227      1.0  0.4862403921494131  0.6040972934711463  0.2400115039666706  1.0000
  H   H228      1.0  0.6654603862638024  0.5754100455008788  0.24939077217479855  1.0000
  H   H229      1.0  0.6195529408352927  0.5753223689067152  0.21064104756975732  1.0000
  H   H230      1.0  0.6080493986948751  0.6156182600353098  0.23994894036116032  1.0000
  H   H231      1.0  0.6226290659225827  0.5074199248340735  0.26134662469030845  1.0000
  H   H232      1.0  0.5744103301226778  0.5077448480722583  0.2232175713741853  1.0000
  H   H233      1.0  0.5340401170820747  0.49904525536350963  0.26241207368161  1.0000
  H   H234      1.0  0.6075693980213253  0.5623336272065625  0.30257761242225256  1.0000
  H   H235      1.0  0.5189515171410986  0.5538435061560731  0.3028839394510088  1.0000
  H   H236      1.0  0.5502125608881208  0.6029814828687482  0.2938945776311819  1.0000
  N   N10       1.0  0.8924007142124921  0.7197463482341293  0.32209163977695987  1.0000
  C   C229      1.0  0.9192619450853888  0.6827893901454711  0.3064097027097321  1.0000
  C   C230      1.0  0.9349493707238566  0.7540169210207753  0.31316184098116207  1.0000
  C   C231      1.0  0.8917742291171847  0.714795337635872  0.358821620599182  1.0000
  C   C232      1.0  0.8234616702389682  0.7274737917830522  0.309940249846585  1.0000
  H   H237      1.0  0.8877702833010057  0.6564128490321104  0.3122571765608389  1.0000
  H   H238      1.0  0.9707635978213749  0.6756748137390398  0.31563188989334456  1.0000
  H   H239      1.0  0.9214623597904551  0.6857239330842336  0.2786852524690603  1.0000
  H   H240      1.0  0.915521590610389  0.7824872171265871  0.3242205726810275  1.0000
  H   H241      1.0  0.9871963511803105  0.749852089972422  0.32247342109530713  1.0000
  H   H242      1.0  0.9370089987797583  0.7584618764329786  0.28556072826396595  1.0000
  H   H243      1.0  0.8729967770452801  0.7423579859670438  0.371621188957165  1.0000
  H   H244      1.0  0.9428838306747079  0.7081952085888744  0.36878978753284286  1.0000
  H   H245      1.0  0.8595596716445046  0.6894696091907835  0.36645551314777536  1.0000
  H   H246      1.0  0.8014766927923213  0.7548440734577857  0.3217109455944841  1.0000
  H   H247      1.0  0.7901331129654858  0.7018964531134447  0.31554712630904996  1.0000
  H   H248      1.0  0.8224360157714841  0.7323875981586669  0.2823967372380331  1.0000
  N   N11       1.0  0.24563682030051615  0.007494247416914845  0.28641837522216995  1.0000
  C   C233      1.0  0.1926227172049959  0.9873291023396712  0.2669985797743474  1.0000
  C   C234      1.0  0.24135896156208814  0.051128293369599564  0.280447609212895  1.0000
  C   C235      1.0  0.3118759283724737  0.9921085630792149  0.2757922939510752  1.0000
  C   C236      1.0  0.2368884126991555  0.9996302363349854  0.3224842858259536  1.0000
  H   H249      1.0  0.14190362216132346  0.9984068937934608  0.27420660098274213  1.0000
  H   H250      1.0  0.1938412485946226  0.9543251051509636  0.2710271150828104  1.0000
  H   H251      1.0  0.19816380653977572  0.9927827966127766  0.23964784125638633  1.0000
  H   H252      1.0  0.28020272870761187  0.06722904473785873  0.2950976958374592  1.0000
  H   H253      1.0  0.24879359715774751  0.05824639995901748  0.2535408814048144  1.0000
  H   H254      1.0  0.19147266162853405  0.06347648663280947  0.28771434711971217  1.0000
  H   H255      1.0  0.3529148055127853  0.006473375644800772  0.29024504245903615  1.0000
  H   H256      1.0  0.320675040401843  0.9979966332239621  0.24875327749778536  1.0000
  H   H257      1.0  0.3165374333912139  0.9591811610163936  0.27973092108828496  1.0000
  H   H258      1.0  0.18787847289691584  0.01139413818833157  0.3315819842021781  1.0000
  H   H259      1.0  0.27669712922424305  0.014091802674063958  0.33778407722588866  1.0000
  H   H260      1.0  0.2390674094016907  0.966980754752901  0.3281484678650357  1.0000
  N   N12       1.0  0.9994018504343444  0.9322936847043637  0.7963588917887491  1.0000
  C   C237      1.0  0.011010664795584102  0.9758773472178616  0.7987436054477463  1.0000
  C   C238      1.0  0.03094452977723927  0.9118868311438324  0.8252988608721954  1.0000
  C   C239      1.0  0.028985738735037625  0.9167225437041303  0.7650306239372526  1.0000
  C   C240      1.0  0.9266336287462588  0.9247639702461057  0.7963960306344217  1.0000
  H   H261      1.0  0.987924043457403  0.9921854628562191  0.7771937980076554  1.0000
  H   H262      1.0  0.06550562484849554  0.9825890286263821  0.7988667279502364  1.0000
  H   H263      1.0  0.9891528440882067  0.9886619721771297  0.8220926761152711  1.0000
  H   H264      1.0  0.0227055578396389  0.8789788406145393  0.824380025357575  1.0000
  H   H265      1.0  0.08592024627577088  0.9169130764503498  0.8259330781144105  1.0000
  H   H266      1.0  0.009973679557720105  0.9233880556772783  0.8492564526667886  1.0000
  H   H267      1.0  0.02045733370910674  0.8839915412318601  0.7621086350991072  1.0000
  H   H268      1.0  0.08407268234966159  0.9215108489405484  0.7644227094504371  1.0000
  H   H269      1.0  0.006908198711571778  0.9320781619356076  0.7427460964632743  1.0000
  H   H270      1.0  0.901569467871103  0.9388410147603846  0.7743473050585538  1.0000
  H   H271      1.0  0.9023816625577532  0.9373233794268042  0.8192587549532235  1.0000
  H   H272      1.0  0.9160035642807672  0.8921214433753665  0.7954927550527019  1.0000
  N   N13       1.0  0.09835026999948049  0.5446631584101835  0.4452084221178263  1.0000
  C   C241      1.0  0.057203432610207106  0.5331462426410537  0.47423031229604623  1.0000
  C   C242      1.0  0.06526084024347645  0.5317965637929586  0.4138979475365113  1.0000
  C   C243      1.0  0.16502716914820703  0.525175148218299  0.44778071278186926  1.0000
  C   C244      1.0  0.10610052286711857  0.5886537567209749  0.4449165663112602  1.0000
  H   H273      1.0  0.006658803091805332  0.5475469177291288  0.47317644764277195  1.0000
  H   H274      1.0  0.0806650460084648  0.542651547452989  0.49826892281037244  1.0000
  H   H275      1.0  0.05029711407528237  0.5001458015045349  0.47533056057895473  1.0000
  H   H276      1.0  0.09395047051251004  0.5413360193060832  0.39148977806321894  1.0000
  H   H277      1.0  0.061280200842500854  0.49859149366582295  0.4125034104762894  1.0000
  H   H278      1.0  0.01395682349878058  0.544876046007141  0.411514360414632  1.0000
  H   H279      1.0  0.19729245770394033  0.5332412789303033  0.4261942790393925  1.0000
  H   H280      1.0  0.16130325870197315  0.49190849397959635  0.44768774100659264  1.0000
  H   H281      1.0  0.19144028933282753  0.5340493971389978  0.47121222875601854  1.0000
  H   H282      1.0  0.05669375921620845  0.6042401736608833  0.4429345498703597  1.0000
  H   H283      1.0  0.1365996549685884  0.5984889535196487  0.4232588413022391  1.0000
  H   H284      1.0  0.13087050750369156  0.5994375560233802  0.4681945916009081  1.0000
  N   N14       1.0  0.38785625742323937  0.7064416247424805  0.6891042340197951  1.0000
  C   C245      1.0  0.4553742939460266  0.7067104163881857  0.7043493183128434  1.0000
  C   C246      1.0  0.37932806287656606  0.7415966698960722  0.6669424425101786  1.0000
  C   C247      1.0  0.336850518102801  0.70807495499973  0.7157484333918331  1.0000
  C   C248      1.0  0.3797647025625206  0.6693438062279686  0.6693599381701151  1.0000
  H   H285      1.0  0.4631849263434764  0.6804849228452465  0.721210831977712  1.0000
  H   H286      1.0  0.4631099768600606  0.7343498207047718  0.7194289979679147  1.0000
  H   H287      1.0  0.49511450664734724  0.7053422559408691  0.684917304523741  1.0000
  H   H288      1.0  0.3284081793586153  0.7424545184554591  0.6554181925819439  1.0000
  H   H289      1.0  0.38487947152021906  0.7701909480472646  0.6810392652735225  1.0000
  H   H290      1.0  0.41655176484375644  0.7412950632661175  0.6463379582375997  1.0000
  H   H291      1.0  0.28532508280015345  0.7073154714575564  0.7050727300928108  1.0000
  H   H292      1.0  0.3401679512356839  0.7361871335376237  0.7306615109950237  1.0000
  H   H293      1.0  0.3422211891688589  0.6823536878303424  0.7333057097260914  1.0000
  H   H294      1.0  0.3295650317517367  0.6683861526703508  0.6571588757671514  1.0000
  H   H295      1.0  0.38451243413645786  0.6421482879516799  0.68537105146999  1.0000
  H   H296      1.0  0.41802060968087007  0.6667137999067391  0.6492917317269282  1.0000
  N   N15       1.0  0.8763019818417209  0.25498259161774206  0.7635193598067087  1.0000
  C   C249      1.0  0.9496449037845371  0.2545941159296436  0.7587514629193618  1.0000
  C   C250      1.0  0.8454321306178765  0.28603985770173834  0.7418638751482552  1.0000
  C   C251      1.0  0.8612263150316073  0.26409285606480243  0.7988946145836382  1.0000
  C   C252      1.0  0.8490866863169944  0.21539067794963151  0.754547500652096  1.0000
  H   H297      1.0  0.9713543835331675  0.2845692151599636  0.7639779706310408  1.0000
  H   H298      1.0  0.9630772451333036  0.24662246192148435  0.7326205240273755  1.0000
  H   H299      1.0  0.9749264682830276  0.23246308540621777  0.7755188157108864  1.0000
  H   H300      1.0  0.7899629974343003  0.2871072651203965  0.7444471074821066  1.0000
  H   H301      1.0  0.8636395703713194  0.31632482728455197  0.7485383266466051  1.0000
  H   H302      1.0  0.8572620864712344  0.28078729907538946  0.7150049509285051  1.0000
  H   H303      1.0  0.8063249820574069  0.26660107177502057  0.8032749417810882  1.0000
  H   H304      1.0  0.8836904825225408  0.2930383233553834  0.806670097711936  1.0000
  H   H305      1.0  0.8815884365972184  0.24057479545386318  0.8159988604422455  1.0000
  H   H306      1.0  0.8587474145096321  0.20803816385637008  0.7277927298288877  1.0000
  H   H307      1.0  0.7939435469389226  0.21458485177730366  0.758334059621097  1.0000
  H   H308      1.0  0.8720690791119086  0.19105706126278377  0.7699869390564087  1.0000
  N   N16       1.0  0.9201732005358927  0.9982429044785891  0.045899891447544805  1.0000
  C   C253      1.0  0.9005918808486743  0.955689227437635  0.04701695099416625  1.0000
  C   C254      1.0  0.8597805232266263  0.023960483512534658  0.04194590510225593  1.0000
  C   C255      1.0  0.9656115553355703  0.004590484042180432  0.01737306159655083  1.0000
  C   C256      1.0  0.9548893197154865  0.008620993486312845  0.0774018871022053  1.0000
  H   H309      1.0  0.9452791489869211  0.9355208923401411  0.04967776541341462  1.0000
  H   H310      1.0  0.8734923233090853  0.9467184282180436  0.023872740238619183  1.0000
  H   H311      1.0  0.8677420510380529  0.9496774775407991  0.06879051442823969  1.0000
  H   H312      1.0  0.8726440461432923  0.0563321629915996  0.041326112167320295  1.0000
  H   H313      1.0  0.8327768820350366  0.01744695998041834  0.018199069804444523  1.0000
  H   H314      1.0  0.8240053608591846  0.01963434833508826  0.06284821018713971  1.0000
  H   H315      1.0  0.9805306306032815  0.03650408438920594  0.015351839875767048  1.0000
  H   H316      1.0  0.941531143998338  0.9961553707446864  0.9932227921551579  1.0000
  H   H317      1.0  0.012274862527734909  0.9861926801764898  0.020000738264822626  1.0000
  H   H318      1.0  0.9215346269167729  0.004706806924648754  0.09938298430873149  1.0000
  H   H319      1.0  0.9719659260357514  0.040210560736327894  0.07735232242296597  1.0000
  H   H320      1.0  0.9995621941897936  0.9888523719241614  0.08170695556979735  1.0000
  N   N17       1.0  0.01745631217798649  0.13952425165999774  0.5649466940006693  1.0000
  C   C257      1.0  0.06867859488548045  0.10713544956724277  0.5642102722725612  1.0000
  C   C258      1.0  0.031176359171804613  0.16889092677407402  0.538281089750417  1.0000
  C   C259      1.0  0.019411809252382062  0.15986875233918202  0.5977664068417374  1.0000
  C   C260      1.0  0.950462770140323  0.12229051087661413  0.5595412358627451  1.0000
  H   H321      1.0  0.06007405027404089  0.08457388163038844  0.5842137970260528  1.0000
  H   H322      1.0  0.12001742700284224  0.11913469987742813  0.5677422844360378  1.0000
  H   H323      1.0  0.0681225444971123  0.0909266750117287  0.5398539001505654  1.0000
  H   H324      1.0  0.0809679939416692  0.1829724447655529  0.5419117409307715  1.0000
  H   H325      1.0  0.03174638595723045  0.1543615733349687  0.513198959776905  1.0000
  H   H326      1.0  0.9928469876746189  0.19338418224882167  0.537761543970247  1.0000
  H   H327      1.0  0.982100037051614  0.1849186234677322  0.5989204413250652  1.0000
  H   H328      1.0  0.06956554078215893  0.172773678652427  0.6028924525069019  1.0000
  H   H329      1.0  0.008060823699007624  0.13876349011884268  0.6184817314300194  1.0000
  H   H330      1.0  0.9102600395097145  0.14570315161259176  0.5606301682621123  1.0000
  H   H331      1.0  0.9390781694810615  0.09962491132551225  0.5789447559785665  1.0000
  H   H332      1.0  0.9470849200089192  0.10681732435496526  0.5349049969773433  1.0000
  N   N18       1.0  0.49606686948530454  0.9201620156102683  0.8387199477327448  1.0000
  C   C261      1.0  0.4970212315524254  0.8898620955853852  0.8657171391480182  1.0000
  C   C262      1.0  0.5582563542333034  0.9167314737417663  0.8189291345248493  1.0000
  C   C263      1.0  0.4911529509622634  0.960648283035681  0.8535812633074614  1.0000
  C   C264      1.0  0.4377081207793714  0.9135427623585739  0.8166349016887638  1.0000
  H   H333      1.0  0.5008361296074806  0.85890796185857  0.8554710163020884  1.0000
  H   H334      1.0  0.45050693773644346  0.8914790805220071  0.8810088246109552  1.0000
  H   H335      1.0  0.540298381676168  0.8941215262390668  0.8830227881078567  1.0000
  H   H336      1.0  0.6034568320795937  0.9218481707308797  0.8347160966229068  1.0000
  H   H337      1.0  0.5634899642543967  0.8866729607743441  0.807094911299862  1.0000
  H   H338      1.0  0.559122287793637  0.9392981319160422  0.7983879851480705  1.0000
  H   H339      1.0  0.490837552130464  0.9842657422767928  0.8339228718653676  1.0000
  H   H340      1.0  0.5346529651737364  0.9667001274202405  0.8702666174399818  1.0000
  H   H341      1.0  0.4447237303227878  0.9643495426481083  0.8686368708031075  1.0000
  H   H342      1.0  0.4393102793419428  0.8830879721412268  0.8052692776901317  1.0000
  H   H343      1.0  0.4360507077988678  0.9355003440324218  0.7956680239829194  1.0000
  H   H344      1.0  0.3898195490966523  0.9165803354785714  0.8305646539696766  1.0000
  N   N19       1.0  0.856516463623755  0.47824240730445333  0.898248629847094  1.0000
  C   C265      1.0  0.8697893869709459  0.47987976459823123  0.9346139594474492  1.0000
  C   C266      1.0  0.831064086123028  0.5176504795477327  0.8866457823628076  1.0000
  C   C267      1.0  0.8059893048437745  0.44729832920586443  0.8913032197003637  1.0000
  C   C268      1.0  0.919269993073373  0.46811049119521786  0.8805007791415336  1.0000
  H   H345      1.0  0.8230301176954867  0.4861502377312078  0.9488840257385754  1.0000
  H   H346      1.0  0.9065314853688091  0.5036043788243217  0.9408580569020288  1.0000
  H   H347      1.0  0.8909551449531549  0.45088438263223407  0.9438752247718428  1.0000
  H   H348      1.0  0.8673393078297154  0.5418629011315479  0.8922706302962474  1.0000
  H   H349      1.0  0.8229741851737578  0.5178853324167156  0.8590603531752108  1.0000
  H   H350      1.0  0.7828633669546498  0.525862721050628  0.8988409071156692  1.0000
  H   H351      1.0  0.7963551498436174  0.4441376511457741  0.8639736990827687  1.0000
  H   H352      1.0  0.7574978134573317  0.4543866164519579  0.903760859233454  1.0000
  H   H353      1.0  0.8229150835432515  0.4175124842175488  0.9007363140286955  1.0000
  H   H354      1.0  0.9402625114717349  0.4386469909465865  0.8888261473253111  1.0000
  H   H355      1.0  0.9581423434615906  0.49126199373257895  0.8847102773115814  1.0000
  H   H356      1.0  0.9110268928905607  0.4662271897771702  0.8530171557177019  1.0000
  N   N20       1.0  0.1023070728206581  0.8228515712468538  0.9094555123167135  1.0000
  C   C269      1.0  0.11662567512871669  0.8649160511389842  0.9007946880872307  1.0000
  C   C270      1.0  0.06054615766457205  0.8049301624510798  0.8829420629818648  1.0000
  C   C271      1.0  0.06609568722570347  0.8215110079816254  0.9415537267378156  1.0000
  C   C272      1.0  0.16591274920593313  0.7999894473424598  0.9124705923683523  1.0000
  H   H357      1.0  0.14924274419356798  0.8791599411286865  0.9199818103098572  1.0000
  H   H358      1.0  0.06979427422948459  0.8831697504423321  0.8989784119346768  1.0000
  H   H359      1.0  0.1429234774989705  0.8669909100240043  0.8764043881761259  1.0000
  H   H360      1.0  0.047195880844629556  0.7734738759471141  0.8890608511699231  1.0000
  H   H361      1.0  0.012738020278985962  0.8218643183470409  0.8792582576855433  1.0000
  H   H362      1.0  0.08720033164605634  0.8043739566354756  0.8585516397228328  1.0000
  H   H363      1.0  0.05595814972877422  0.7900460695372982  0.9491907130736454  1.0000
  H   H364      1.0  0.017009762528821026  0.8375719267891504  0.9398710363051498  1.0000
  H   H365      1.0  0.09540820111793868  0.835884138677092  0.9618904393038588  1.0000
  H   H366      1.0  0.1938800633239992  0.7995928490831031  0.8884456614510824  1.0000
  H   H367      1.0  0.15709948593646939  0.7683548892382692  0.9199025321100479  1.0000
  H   H368      1.0  0.19951642285729387  0.8133299160981188  0.9315793912819186  1.0000
  N   N21       1.0  0.19329524200471268  0.39048694379075155  0.6620167475899079  1.0000
  C   C273      1.0  0.1458207643627747  0.37110713424292086  0.6849876483891689  1.0000
  C   C274      1.0  0.22885376507761726  0.3593348057107589  0.64243560677739  1.0000
  C   C275      1.0  0.242044235982515  0.4139914513708427  0.681572236658098  1.0000
  C   C276      1.0  0.15661267582176697  0.4176072898559851  0.638940527509999  1.0000
  H   H369      1.0  0.10813932191239962  0.35314139487268387  0.6711006181907831  1.0000
  H   H370      1.0  0.11805723688152205  0.3936765240482175  0.7002400542787836  1.0000
  H   H371      1.0  0.17221846102900917  0.35051296691830225  0.7026546987582973  1.0000
  H   H372      1.0  0.2613880359244105  0.37300489198832293  0.6232985932443437  1.0000
  H   H373      1.0  0.2612952996451454  0.3400465243065242  0.65861300090108  1.0000
  H   H374      1.0  0.19335658259334032  0.3395651208855479  0.6288722104483633  1.0000
  H   H375      1.0  0.2784173969501613  0.4291111461539465  0.6649568640112601  1.0000
  H   H376      1.0  0.2717676890875449  0.3946691172473211  0.6989518856890358  1.0000
  H   H377      1.0  0.2165410572590769  0.43771317979698987  0.6967088838050486  1.0000
  H   H378      1.0  0.19155127155471385  0.4337415131232218  0.6221569647215193  1.0000
  H   H379      1.0  0.12723143869218534  0.44071711424595117  0.6528910314555904  1.0000
  H   H380      1.0  0.12145943744497735  0.40077444765841447  0.6226843048979754  1.0000
  N   N22       1.0  0.6551780851230713  0.4691593894119522  0.653692557759226  1.0000
  C   C277      1.0  0.6804291398535603  0.42849248944535884  0.6619363827502092  1.0000
  C   C278      1.0  0.5945807222238277  0.47794471297299823  0.6735979830469035  1.0000
  C   C279      1.0  0.6384271759596639  0.4713164264940991  0.6176808191063106  1.0000
  C   C280      1.0  0.7071825011179766  0.49892433690663895  0.6615293060726857  1.0000
  H   H381      1.0  0.6947822503608758  0.4259714202459477  0.6888332979070098  1.0000
  H   H382      1.0  0.7254348147844972  0.4206018065951241  0.6469179776753778  1.0000
  H   H383      1.0  0.6419628304622547  0.40541935223131415  0.6567464809598025  1.0000
  H   H384      1.0  0.5748361725590427  0.5086321263078267  0.6683802056252663  1.0000
  H   H385      1.0  0.5537773689741811  0.4565116223357083  0.6678144912360386  1.0000
  H   H386      1.0  0.6051561788110813  0.4760306265419178  0.7008951019307512  1.0000
  H   H387      1.0  0.6201076284610576  0.5018247811851118  0.6105855426400344  1.0000
  H   H388      1.0  0.5987633946499454  0.44961353579910524  0.6108637271863097  1.0000
  H   H389      1.0  0.6829705661997907  0.46458338684832273  0.6019189312434728  1.0000
  H   H390      1.0  0.7532638406895148  0.4934243360524795  0.6465719061904388  1.0000
  H   H391      1.0  0.7216080020221667  0.49798846883715575  0.6884258265490739  1.0000
  H   H392      1.0  0.689460045181068  0.529956974325306  0.6557154167550229  1.0000
  N   N23       1.0  0.3078886825497942  0.1676717415075477  0.1413409418590105  1.0000
  C   C281      1.0  0.3290613230459274  0.13290130544461953  0.12081328769466718  1.0000
  C   C282      1.0  0.2894519514218399  0.15373159556964233  0.17507203747784447  1.0000
  C   C283      1.0  0.24941734586177233  0.18771202873376436  0.12554721637681526  1.0000
  C   C284      1.0  0.36365711782076926  0.19623773014626367  0.14411381347457514  1.0000
  H   H393      1.0  0.288884148683884  0.11010565143983442  0.11902052626458111  1.0000
  H   H394      1.0  0.37370387175599973  0.11750358125437144  0.13185741016440233  1.0000
  H   H395      1.0  0.34236117892888696  0.14196835244762007  0.09494146181710651  1.0000
  H   H396      1.0  0.2472420849693444  0.13224263744491793  0.17412269278510942  1.0000
  H   H397      1.0  0.33213748625115325  0.1378155597655637  0.18721656592115982  1.0000
  H   H398      1.0  0.2748895398687765  0.1791468285042881  0.19169370949965256  1.0000
  H   H399      1.0  0.20653803406335514  0.16686712810048365  0.12309619663514713  1.0000
  H   H400      1.0  0.2615144907274778  0.19874338162875715  0.100043386644032  1.0000
  H   H401      1.0  0.23201617967709032  0.2139528118083558  0.14056957466243594  1.0000
  H   H402      1.0  0.3789545015239699  0.20760892111776763  0.11919336801249718  1.0000
  H   H403      1.0  0.4085935621025152  0.18202543995722253  0.1559819130435236  1.0000
  H   H404      1.0  0.34985954181719636  0.2225322993588814  0.15997419749225503  1.0000
  N   N24       1.0  0.4341991250046486  0.32763583772483273  0.45682520745876204  1.0000
  C   C285      1.0  0.4702232131429523  0.2997485715600116  0.47950536397158405  1.0000
  C   C286      1.0  0.36915280756803537  0.31027285740151145  0.4472738615575039  1.0000
  C   C287      1.0  0.47451461157073144  0.3340244557525804  0.4264591063458235  1.0000
  C   C288      1.0  0.42288873657240456  0.36640091671427527  0.47398648007356586  1.0000
  H   H405      1.0  0.5197071858232579  0.311756821367719  0.4870892808576458  1.0000
  H   H406      1.0  0.4790529796476511  0.27003990313477316  0.4674441406507112  1.0000
  H   H407      1.0  0.44122117493672974  0.2945325054393945  0.5027604803888946  1.0000
  H   H408      1.0  0.340833491087392  0.33024495184671165  0.42988252868786225  1.0000
  H   H409      1.0  0.3759712344628973  0.2809367175561738  0.43439637655931485  1.0000
  H   H410      1.0  0.3369334992438888  0.30549336157093016  0.46946539756069416  1.0000
  H   H411      1.0  0.4833916603656107  0.30544749531776794  0.4126540484032844  1.0000
  H   H412      1.0  0.5238825936440019  0.3473309107805383  0.4325826881110465  1.0000
  H   H413      1.0  0.4486576412587127  0.3550031095636071  0.40898778986982687  1.0000
  H   H414      1.0  0.39551776992  0.3881487790933335  0.45769492897902786  1.0000
  H   H415      1.0  0.4709107830256929  0.38056299905989127  0.48129442366432634  1.0000
  H   H416      1.0  0.3927219257482005  0.3626882227137774  0.4970562551619564  1.0000
  N   N25       1.0  0.5206289886708437  0.0702364341401029  0.7208486983901017  1.0000
  C   C289      1.0  0.5502897693109797  0.08152675016562447  0.7534362668747687  1.0000
  C   C290      1.0  0.47482227626975726  0.03628394040702297  0.7256531169545689  1.0000
  C   C291      1.0  0.5743812222129288  0.058216271983254325  0.6974371356734858  1.0000
  C   C292      1.0  0.48305311814953994  0.1049491809841155  0.7069727824028674  1.0000
  H   H417      1.0  0.5112282155253373  0.09150433212997391  0.7714804162547533  1.0000
  H   H418      1.0  0.5867970232992438  0.10621693311832876  0.7507249042244605  1.0000
  H   H419      1.0  0.5774436926025908  0.0558718961755885  0.7652700197287593  1.0000
  H   H420      1.0  0.4530714291559195  0.02593259867461913  0.7015034369249332  1.0000
  H   H421      1.0  0.5014700890239139  0.010089055421024673  0.7369997484542996  1.0000
  H   H422      1.0  0.43246636873764643  0.0443993912726672  0.742417509218099  1.0000
  H   H423      1.0  0.5537591920332128  0.04916259801636405  0.6726842329435423  1.0000
  H   H424      1.0  0.6037497530521244  0.03213012961639312  0.707113373864393  1.0000
  H   H425      1.0  0.6100610650706184  0.08301845303322722  0.6931758173350293  1.0000
  H   H426      1.0  0.4598852801822261  0.0978027945836211  0.6824049574405087  1.0000
  H   H427      1.0  0.5161955864486703  0.13106505073501945  0.702961176388091  1.0000
  H   H428      1.0  0.44181197141562223  0.11469175351352906  0.723862893592821  1.0000
  N   N26       1.0  0.5639821116724032  0.7963689760611954  0.07722161854231868  1.0000
  C   C293      1.0  0.5092593954638318  0.8265345162555785  0.07897542437733374  1.0000
  C   C294      1.0  0.6253197184422827  0.8153615091746524  0.06454022049332964  1.0000
  C   C295      1.0  0.5444584960020579  0.7635542057344179  0.05445409878007169  1.0000
  C   C296      1.0  0.5767725257792926  0.7799449402223638  0.11100382091365703  1.0000
  H   H429      1.0  0.4623923712565612  0.8131541978843022  0.08864650538493658  1.0000
  H   H430      1.0  0.4975296289575652  0.8394133270914013  0.053950522152425906  1.0000
  H   H431      1.0  0.5222976105600452  0.8516380087046862  0.09610031114053075  1.0000
  H   H432      1.0  0.667842633781243  0.79347932342267  0.06323597585904261  1.0000
  H   H433      1.0  0.6175172360190254  0.8278505787323245  0.0390046434243565  1.0000
  H   H434      1.0  0.6415558264498726  0.840297968627297  0.08103481924299305  1.0000
  H   H435      1.0  0.5853771674518793  0.7408147900299472  0.051803206555281374  1.0000
  H   H436      1.0  0.5320049865560741  0.7749879363051435  0.02899053869097945  1.0000
  H   H437      1.0  0.4996898478337749  0.747697973753236  0.06389225085787098  1.0000
  H   H438      1.0  0.6176747564599538  0.7569685882488578  0.11071061566913355  1.0000
  H   H439      1.0  0.5312895385275952  0.7655670586194817  0.12132011592417578  1.0000
  H   H440      1.0  0.5916639327509301  0.8039692063912209  0.12884197571743128  1.0000
  N   N27       1.0  0.4976756499899852  0.3365599784186008  0.9685879935722537  1.0000
  C   C297      1.0  0.5524629066709813  0.353817390624828  0.9487500335667601  1.0000
  C   C298      1.0  0.5257374260988502  0.31726412405801874  0.9989201543226374  1.0000
  C   C299      1.0  0.46265945535415315  0.3062263552838752  0.9482589590992901  1.0000
  C   C300      1.0  0.4501389704259124  0.36879554724411034  0.9783380285416603  1.0000
  H   H441      1.0  0.5331862544996218  0.3695014990432261  0.9260673103347405  1.0000
  H   H442      1.0  0.5880759050170551  0.3300749643803236  0.9402324380909052  1.0000
  H   H443      1.0  0.5815432550156655  0.37591527154964427  0.9635406764891646  1.0000
  H   H444      1.0  0.4858843937832146  0.30370093350160715  0.014412121033726244  1.0000
  H   H445      1.0  0.5622055952627759  0.2929350048640649  0.9923917403274177  1.0000
  H   H446      1.0  0.5524892958624051  0.33920798348024794  0.014906009594274128  1.0000
  H   H447      1.0  0.4207066721683525  0.2926554492922304  0.9623177754838426  1.0000
  H   H448      1.0  0.49744769654828036  0.2813599734298627  0.9408083108409645  1.0000
  H   H449      1.0  0.44169806744374623  0.3195107844510542  0.9248763463632045  1.0000
  H   H450      1.0  0.40905062913050844  0.3572071962612275  0.9942086465418699  1.0000
  H   H451      1.0  0.42695901131935843  0.383483354838317  0.9560739126369557  1.0000
  H   H452      1.0  0.47556714798847477  0.39264154952916214  0.9929305848001191  1.0000
  N   N28       1.0  0.06733977016383608  0.7841001363273125  0.06761919817682371  1.0000
  C   C301      1.0  0.053741897653514004  0.8237688822863926  0.08285904292262103  1.0000
  C   C302      1.0  0.056696800813806236  0.7865934158472868  0.031074631842278322  1.0000
  C   C303      1.0  0.021363430180023846  0.7542087993128461  0.08174103769790353  1.0000
  C   C304      1.0  0.13745741612697684  0.771939690280049  0.07470111241993438  1.0000
  H   H453      1.0  0.08956805534141932  0.8466209571591613  0.07387245772398554  1.0000
  H   H454      1.0  0.0583064831665463  0.8227633985914221  0.11059521692543628  1.0000
  H   H455      1.0  0.002452058960614069  0.834991861963905  0.07656549191980733  1.0000
  H   H456      1.0  0.09014295673447958  0.8091342040476137  0.019721334295522253  1.0000
  H   H457      1.0  0.06665165432334597  0.7572304373690766  0.018619387714510216  1.0000
  H   H458      1.0  0.004122522264972116  0.7956884392340016  0.02496101358804692  1.0000
  H   H459      1.0  0.03019025993243685  0.7239665826436075  0.0706769013186157  1.0000
  H   H460      1.0  0.9680653263671289  0.7625038721271398  0.07661734854961955  1.0000
  H   H461      1.0  0.02737543031875367  0.7516161146340147  0.10934290442366534  1.0000
  H   H462      1.0  0.1497864944589864  0.7421086690256823  0.06375279398693467  1.0000
  H   H463      1.0  0.1475226558335061  0.7702405346245915  0.10207073721276783  1.0000
  H   H464      1.0  0.17347251121908203  0.7937731840851221  0.06419402620567305  1.0000
  N   N29       1.0  0.04682139306645783  0.593400169986384  0.6594855950101726  1.0000
  C   C305      1.0  0.07289972624592567  0.6332687788704329  0.6506778961776502  1.0000
  C   C306      1.0  0.056682269316183476  0.5860894049259725  0.6956333280546672  1.0000
  C   C307      1.0  0.0830560709689514  0.5622316010538065  0.6402239241918101  1.0000
  C   C308      1.0  0.9746484890757305  0.591869566519205  0.6512728934518937  1.0000
  H   H465      1.0  0.047117114468365306  0.6575435657202634  0.6649382222885446  1.0000
  H   H466      1.0  0.06602472717072128  0.6396350187542966  0.6235068064575707  1.0000
  H   H467      1.0  0.12739974354873929  0.6352130319682645  0.6562419448082244  1.0000
  H   H468      1.0  0.03527070309362079  0.5568923804350885  0.7031370340357571  1.0000
  H   H469      1.0  0.11082796411807383  0.58513234370335  0.7024464453829588  1.0000
  H   H470      1.0  0.03230523631769455  0.609765157283956  0.7111423975104636  1.0000
  H   H471      1.0  0.13728125972408423  0.561483778934225  0.6466335997717914  1.0000
  H   H472      1.0  0.07911507676525331  0.567979635244271  0.6128681880455906  1.0000
  H   H473      1.0  0.06317684150120373  0.5318449438082539  0.645442070587102  1.0000
  H   H474      1.0  0.9454827429196196  0.6144806633012142  0.6658036980543631  1.0000
  H   H475      1.0  0.9537255819395832  0.5618147405948946  0.6568241311395318  1.0000
  H   H476      1.0  0.9654889678345558  0.5979025151120602  0.6242280397461433  1.0000
  N   N30       1.0  0.7833332666878474  0.015773221039117935  0.2844109019229336  1.0000
  C   C309      1.0  0.7095607281931711  0.014288057770105222  0.28671104462613384  1.0000
  C   C310      1.0  0.8095531837018363  0.9758967929783372  0.27458372725714403  1.0000
  C   C311      1.0  0.8118204336809942  0.0272163478674754  0.31721316894792545  1.0000
  C   C312      1.0  0.8026614588492584  0.04561121250495348  0.25901722227623303  1.0000
  H   H477      1.0  0.6873498440191469  0.04448333847571151  0.2916521762038514  1.0000
  H   H478      1.0  0.6933521854606371  0.9938321428340885  0.30700073339058287  1.0000
  H   H479      1.0  0.6869856313136586  0.003262657214430309  0.26296089032540465  1.0000
  H   H480      1.0  0.7949535645228173  0.9523669942341749  0.2927594580578219  1.0000
  H   H481      1.0  0.7907144380217792  0.9668515074079945  0.24943809555286864  1.0000
  H   H482      1.0  0.8650587953131604  0.9758594668142612  0.27337734563603305  1.0000
  H   H483      1.0  0.8674346913458295  0.029208623961797242  0.3160903300779999  1.0000
  H   H484      1.0  0.799628490433399  0.004980536411531178  0.33699106813813057  1.0000
  H   H485      1.0  0.7922066420566666  0.056910563969224226  0.3255869584354587  1.0000
  H   H486      1.0  0.7821512591715689  0.03793621824327098  0.23397119908524222  1.0000
  H   H487      1.0  0.8581171584004704  0.04731317282441028  0.25657486863511303  1.0000
  H   H488      1.0  0.7832215450627659  0.0760737570923331  0.26532302159099025  1.0000
  N   N31       1.0  0.5904977124284964  0.08954405922846687  0.5523370970784753  1.0000
  C   C313      1.0  0.5358554728446981  0.060048110916634645  0.5527183271740199  1.0000
  C   C314      1.0  0.6131885453103717  0.0974554113233077  0.5869576837159916  1.0000
  C   C315      1.0  0.5657885477021652  0.12731712648894833  0.5371445376559141  1.0000
  C   C316      1.0  0.6470002508166587  0.07341226285886382  0.5325106757196394  1.0000
  H   H489      1.0  0.5175062242456324  0.053475679070098314  0.5270052647555852  1.0000
  H   H490      1.0  0.49234423345903505  0.07116842031520432  0.5674431423926838  1.0000
  H   H491      1.0  0.5525374608582583  0.031199413163010004  0.5641794692608691  1.0000
  H   H492      1.0  0.6546959122000418  0.11946601531157075  0.5876276720382203  1.0000
  H   H493      1.0  0.5717416518549007  0.10983438627506059  0.6025220980974234  1.0000
  H   H494      1.0  0.6316829882167379  0.0695868349667721  0.5993203189941941  1.0000
  H   H495      1.0  0.6056268032181485  0.15032146551429393  0.536324763994326  1.0000
  H   H496      1.0  0.5233959367239689  0.1401637234766293  0.5517497835863825  1.0000
  H   H497      1.0  0.5477474330199762  0.12265487716020385  0.5110305326196082  1.0000
  H   H498      1.0  0.631846624094735  0.06771253763686746  0.506118881191487  1.0000
  H   H499      1.0  0.6659997709854043  0.044513761442808164  0.5430590956358965  1.0000
  H   H500      1.0  0.6895709503727122  0.09461950563237287  0.5321254969730081  1.0000
  N   N32       1.0  0.7429797867305166  0.4913226382534202  0.0807789715142202  1.0000
  C   C317      1.0  0.690733621924493  0.5099579763006196  0.05938599290915869  1.0000
  C   C318      1.0  0.8066328478648522  0.5128253550105109  0.07655434245697723  1.0000
  C   C319      1.0  0.7526356868729741  0.4488272008451649  0.0712285388555649  1.0000
  C   C320      1.0  0.7218250707007661  0.4936893071894085  0.11608506273597766  1.0000
  H   H501      1.0  0.6417770693597149  0.49484675939716766  0.06248799937864025  1.0000
  H   H502      1.0  0.7042098087108432  0.5080977397789718  0.03242689618640493  1.0000
  H   H503      1.0  0.6828998645943432  0.5421760923475877  0.06571351192753473  1.0000
  H   H504      1.0  0.8465149896024295  0.5004328754075273  0.09329374910337807  1.0000
  H   H505      1.0  0.8249906623099301  0.5106658721949089  0.050381482697615006  1.0000
  H   H506      1.0  0.8008739356179523  0.5452344640378428  0.08280041638499469  1.0000
  H   H507      1.0  0.7946028043956185  0.43455276745108296  0.08550019176652945  1.0000
  H   H508      1.0  0.764097825776695  0.4455196718596279  0.044125725378117764  1.0000
  H   H509      1.0  0.707106438713002  0.4311322097134389  0.07647226067961556  1.0000
  H   H510      1.0  0.7177809698916356  0.5253523347145336  0.12479376762512587  1.0000
  H   H511      1.0  0.7581546507431717  0.47789839853477134  0.13265847760748115  1.0000
  H   H512      1.0  0.6725616760782755  0.4791784241069694  0.11997031261097048  1.0000
