data_image0
_chemical_formula_structural       FeS2FeS2FeSFeS3FeS2FeS2FeSFeS3FeS2FeS2FeSFeS3FeS2FeS2FeSFeS3FeS2FeS2FeSFeS3FeS2FeS2FeSFeS3FeS2FeS2FeSFeS3FeS2FeS2FeSFeS3C6H4C6H4C6H4C6H4C6H4C6H4C6H4C6H4C6H4C6H4C6H4C6H4C6H4C6H4C6H4C6H4NC4H12NC4H12NC4H12NC4H12NC4H12NC4H12NC4H12NC4H12NC4H12NC4H12NC4H12NC4H12NC4H12NC4H12NC4H12NC4H12
_chemical_formula_sum              "Fe32 S64 C160 H256 N16"
_cell_length_a       22.89485527717657
_cell_length_b       20.813794541799158
_cell_length_c       31.331651788691676
_cell_angle_alpha    89.58679749289558
_cell_angle_beta     90.12742191594916
_cell_angle_gamma    90.17240088686768

_space_group_name_H-M_alt    "P 1"
_space_group_IT_number       1

loop_
  _space_group_symop_operation_xyz
  'x, y, z'

loop_
  _atom_site_type_symbol
  _atom_site_label
  _atom_site_symmetry_multiplicity
  _atom_site_fract_x
  _atom_site_fract_y
  _atom_site_fract_z
  _atom_site_occupancy
  Fe  Fe1       1.0  0.0269022346340968  0.03288228584308883  0.6263465505341812  1.0000
  S   S1        1.0  0.006520801114764163  0.11614425451625854  0.6682065928621451  1.0000
  S   S2        1.0  0.9936904303764602  0.030930711950591272  0.559333586621063  1.0000
  Fe  Fe2       1.0  0.09937737171012984  0.9674609924555351  0.6934514499533218  1.0000
  S   S3        1.0  0.08599915902652501  0.04498990219177257  0.7419479116548764  1.0000
  S   S4        1.0  0.15457862087665197  0.8804739123528782  0.705911943270478  1.0000
  Fe  Fe3       1.0  0.9933020226563611  0.042000129110852935  0.7190668754590362  1.0000
  S   S5        1.0  0.9204850245801945  0.059798432844549554  0.764643432461398  1.0000
  Fe  Fe4       1.0  0.10028824031136778  0.11249387990244775  0.6869518117752444  1.0000
  S   S6        1.0  0.14014518167040177  0.21060690430573126  0.689816270221696  1.0000
  S   S7        1.0  0.004784490162750288  0.9582221098650859  0.6754662894147273  1.0000
  S   S8        1.0  0.12280444370287946  0.03560713463811016  0.6401229976736098  1.0000
  Fe  Fe5       1.0  0.8520326994024175  0.9049023722061776  0.9695244771652952  1.0000
  S   S9        1.0  0.7964668583096091  0.8645734787513986  0.022206462234534374  1.0000
  S   S10       1.0  0.8585957807551481  0.8578495303275692  0.9054755538421857  1.0000
  Fe  Fe6       1.0  0.9043351053411519  0.009076515401795104  0.024299151124643537  1.0000
  S   S11       1.0  0.8546703353290149  0.9787236287963409  0.08243765000381598  1.0000
  S   S12       1.0  0.973763297005278  0.08534260214395006  0.025028440193303192  1.0000
  Fe  Fe7       1.0  0.8763444666472614  0.8780620412497842  0.06268960572353288  1.0000
  S   S13       1.0  0.9120189040126726  0.7999436864759231  0.10514642843337008  1.0000
  Fe  Fe8       1.0  0.7786823740208833  0.9679563026785845  0.03749909890561631  1.0000
  S   S14       1.0  0.6907590270823649  0.007788127286852076  0.054847202553542695  1.0000
  S   S15       1.0  0.9334121597753975  0.9096312516416217  0.008634483664168968  1.0000
  S   S16       1.0  0.8266238816736328  0.0076558199620822  0.9807862763761425  1.0000
  Fe  Fe9       1.0  0.008402736685988232  0.3527592875365128  0.1682368574484882  1.0000
  S   S17       1.0  0.0661708167641808  0.28663507440450037  0.20516006737381906  1.0000
  S   S18       1.0  0.9202099528339105  0.31419165447037906  0.1502083875479965  1.0000
  Fe  Fe10      1.0  0.10316081065043159  0.4529865233377484  0.15968016788458197  1.0000
  S   S19       1.0  0.17074581772262948  0.39335436267758844  0.1935847366526643  1.0000
  S   S20       1.0  0.11580958397106889  0.5542967618371427  0.13749624567470983  1.0000
  Fe  Fe11      1.0  0.13279834330212886  0.31208536197984804  0.15605368486642224  1.0000
  S   S21       1.0  0.17443973106731514  0.22131706909800444  0.13460416915668091  1.0000
  Fe  Fe12      1.0  0.09819258234086226  0.37330525684067384  0.2393301637225488  1.0000
  S   S22       1.0  0.11704507581167833  0.37426228550425616  0.30944084197706134  1.0000
  S   S23       1.0  0.07333337407959717  0.37394684581606363  0.11658905827261092  1.0000
  S   S24       1.0  0.0323220792098069  0.4379671305645288  0.20812487465760374  1.0000
  Fe  Fe13      1.0  0.791767814039004  0.2594537343314732  0.5017947037008675  1.0000
  S   S25       1.0  0.7694788214784767  0.36357222126798594  0.4929812040838411  1.0000
  S   S26       1.0  0.7649312505720557  0.19522657531010235  0.5558886825208795  1.0000
  Fe  Fe14      1.0  0.870932444526881  0.25536691419253016  0.4250539646131458  1.0000
  S   S27       1.0  0.857032524177269  0.35909375284695244  0.40863918758837253  1.0000
  S   S28       1.0  0.927950942655244  0.1907604236853969  0.38669065896679294  1.0000
  Fe  Fe15      1.0  0.8653344557436737  0.3753820694173133  0.47909539031597936  1.0000
  S   S29       1.0  0.9255226505127769  0.45006064980500543  0.5062256444835085  1.0000
  Fe  Fe16      1.0  0.763240370807582  0.3381467905321753  0.4234126574650586  1.0000
  S   S30       1.0  0.6920817593248716  0.3626775287360373  0.37714624335992825  1.0000
  S   S31       1.0  0.8880313575299222  0.2733740035755825  0.49384887826473045  1.0000
  S   S32       1.0  0.7764155961202845  0.2327027319985226  0.43373996087270317  1.0000
  Fe  Fe17      1.0  0.059065391180783695  0.5686207738681814  0.7903376133135466  1.0000
  S   S33       1.0  0.01984342489254809  0.4726661207407635  0.8066239894136894  1.0000
  S   S34       1.0  0.02508274044785641  0.6640351784401273  0.8116208787810322  1.0000
  Fe  Fe18      1.0  0.14823186582908715  0.5121620213749292  0.7314247040472701  1.0000
  S   S35       1.0  0.11810304343195233  0.41072372022708653  0.7412423888321732  1.0000
  S   S36       1.0  0.22369701175248474  0.5394923440245317  0.6901766197471491  1.0000
  Fe  Fe19      1.0  0.02822030472714654  0.45264575528495027  0.7365890084053025  1.0000
  S   S37       1.0  0.9568146008968197  0.39786368346411966  0.7036394918833843  1.0000
  Fe  Fe20      1.0  0.11244134295882229  0.43819770373174044  0.8100681851118599  1.0000
  S   S38       1.0  0.1461826586302354  0.3763748854299897  0.8636527333936609  1.0000
  S   S39       1.0  0.058922274803131953  0.5517602759160852  0.7199597732824297  1.0000
  S   S40       1.0  0.15120004271734955  0.5362739137178898  0.8006831626442132  1.0000
  Fe  Fe21      1.0  0.41999386841667796  0.0303418198418004  0.9205457188961055  1.0000
  S   S41       1.0  0.33605124787442164  0.9791432851189397  0.9051374956278735  1.0000
  S   S42       1.0  0.5045370661010791  0.979124911648668  0.9073336202747361  1.0000
  Fe  Fe22      1.0  0.35744903612518153  0.1438507656184893  0.9591051773619035  1.0000
  S   S43       1.0  0.2689179618287347  0.10040031527571426  0.9485377989696162  1.0000
  S   S44       1.0  0.359897416128403  0.2420458182008436  0.9881702980223555  1.0000
  Fe  Fe23      1.0  0.3092632755681599  0.008630458885058758  0.9708720987708457  1.0000
  S   S45       1.0  0.2611344034328307  0.9379293453879622  0.012710541803364617  1.0000
  Fe  Fe24      1.0  0.3042885483860431  0.0762738195785877  0.884309885559158  1.0000
  S   S46       1.0  0.24471298854523788  0.09947344739246589  0.8294166427989185  1.0000
  S   S47       1.0  0.39506929005617974  0.053883306822674934  0.987769652844117  1.0000
  S   S48       1.0  0.39082629041966727  0.12515226518824843  0.8931958254843524  1.0000
  Fe  Fe25      1.0  0.4086471642071383  0.39450112178317065  0.4835157954196207  1.0000
  S   S49       1.0  0.333200830206283  0.3951449883930336  0.43768091422541733  1.0000
  S   S50       1.0  0.48164223653809873  0.46604507952991536  0.4850250119525239  1.0000
  Fe  Fe26      1.0  0.36339348517101105  0.28104816696466384  0.534179879366784  1.0000
  S   S51       1.0  0.28359561381100123  0.27074675501080714  0.4936529368458792  1.0000
  S   S52       1.0  0.3773560925640105  0.21270884301193527  0.5887813859411336  1.0000
  Fe  Fe27      1.0  0.3440288264493236  0.2880542200889491  0.4386794369171983  1.0000
  S   S53       1.0  0.3410007122532039  0.22701542365571137  0.38007783368591697  1.0000
  Fe  Fe28      1.0  0.27898074536119355  0.3779834924673977  0.49620353767228975  1.0000
  S   S54       1.0  0.1910681468447792  0.4220067520401614  0.5076846640548837  1.0000
  S   S55       1.0  0.4249301859611185  0.2886214496620345  0.4791151945842561  1.0000
  S   S56       1.0  0.35367299191470364  0.38685774865855205  0.542284804256228  1.0000
  Fe  Fe29      1.0  0.1843449565072623  0.9295396480980113  0.3483148957604822  1.0000
  S   S57       1.0  0.25629063953803577  0.8856407118246408  0.30998038025406466  1.0000
  S   S58       1.0  0.18676398628817545  0.9802769990939603  0.4108814149574523  1.0000
  Fe  Fe30      1.0  0.09324060744976002  0.9092772465860534  0.28078609166446056  1.0000
  S   S59       1.0  0.15527840102922535  0.8633538437871814  0.23498054590832917  1.0000
  S   S60       1.0  0.9997562958778398  0.9360121603631224  0.2711236169734455  1.0000
  Fe  Fe31      1.0  0.18848661758599844  0.8113679644860945  0.29341192171791175  1.0000
  S   S61       1.0  0.20993812194629427  0.7063000775891537  0.2970707468102768  1.0000
  Fe  Fe32      1.0  0.21814109167102413  0.9402775001073457  0.2545374252352009  1.0000
  S   S62       1.0  0.2719131609262994  0.0012878741900366197  0.2097421713387638  1.0000
  S   S63       1.0  0.12030222687032735  0.8503593501728777  0.3371103385925248  1.0000
  S   S64       1.0  0.1526940081985576  0.9913725420764472  0.2947151215918534  1.0000
  C   C1        1.0  0.29695285582507525  0.15928493122458143  0.38824319983318467  1.0000
  C   C2        1.0  0.3134733224486777  0.10064939566613007  0.37058711209663525  1.0000
  C   C3        1.0  0.2789588103864413  0.04583367384379122  0.3770352398512648  1.0000
  C   C4        1.0  0.2285647848137569  0.04932118805717911  0.40196658907948457  1.0000
  C   C5        1.0  0.21156765222367327  0.10801234185849351  0.41941145245728306  1.0000
  C   C6        1.0  0.24546090195919432  0.16321736810656495  0.4120901820856381  1.0000
  H   H1        1.0  0.3533169043360023  0.09742739660475586  0.352191062606628  1.0000
  H   H2        1.0  0.2921370665371799  0.0005194543939781582  0.36344253231788604  1.0000
  H   H3        1.0  0.1716769907383204  0.11110593741609787  0.4377202587708569  1.0000
  H   H4        1.0  0.230994730792425  0.209053133829052  0.42394603841448547  1.0000
  C   C7        1.0  0.26631455861230363  0.9535252512535305  0.06762195165298301  1.0000
  C   C8        1.0  0.2966280789319563  0.007314970651062458  0.08221945017263145  1.0000
  C   C9        1.0  0.2988653618377362  0.02102896071029714  0.1259410025613865  1.0000
  C   C10       1.0  0.27115045650951614  0.9804875430018964  0.15543924020827604  1.0000
  C   C11       1.0  0.24250061905580203  0.925243339916932  0.1409998046286478  1.0000
  C   C12       1.0  0.23975802135630583  0.9120021601282985  0.09713189362173646  1.0000
  H   H5        1.0  0.31788742256381697  0.03875190840163256  0.05975400579275348  1.0000
  H   H6        1.0  0.3213610758996539  0.06373905293164461  0.13680159163030212  1.0000
  H   H7        1.0  0.2225562592487805  0.8925301541678343  0.1634508583832921  1.0000
  H   H8        1.0  0.21709785168498755  0.8695088627989855  0.08608462693384844  1.0000
  C   C13       1.0  0.21204690725825148  0.5118856691486413  0.6383764244405469  1.0000
  C   C14       1.0  0.25561345607850205  0.5200247268142735  0.6076741273727803  1.0000
  C   C15       1.0  0.24788295347823128  0.4949171843414961  0.5667186249880667  1.0000
  C   C16       1.0  0.19649961831435728  0.4620321528633785  0.5564154984710691  1.0000
  C   C17       1.0  0.1515994577800973  0.45695067299388403  0.5864594092444887  1.0000
  C   C18       1.0  0.15973122396203202  0.4810345290432317  0.6277013536122706  1.0000
  H   H9        1.0  0.2959287992709691  0.5444003920942385  0.6157755814915074  1.0000
  H   H10       1.0  0.2820371454131813  0.500557863777016  0.5431851371304343  1.0000
  H   H11       1.0  0.11147553542958247  0.43256264264759875  0.5784084826027954  1.0000
  H   H12       1.0  0.12595340748143355  0.4747557182966965  0.651375448387906  1.0000
  C   C19       1.0  0.17836980971612948  0.3034215895225215  0.849323784906782  1.0000
  C   C20       1.0  0.2237730709914342  0.2791712015454711  0.8744852628916017  1.0000
  C   C21       1.0  0.245818215947203  0.2176839143838506  0.8670279792991448  1.0000
  C   C22       1.0  0.22162760335200968  0.1793237213781473  0.8350398361187987  1.0000
  C   C23       1.0  0.17781273493295172  0.20455523089747898  0.80860413529339  1.0000
  C   C24       1.0  0.156704173316879  0.2670581681175813  0.8154068173204208  1.0000
  H   H13       1.0  0.24188153153385644  0.3078103903719515  0.9000494639800345  1.0000
  H   H14       1.0  0.2811797382453312  0.1999568150195526  0.8865739034517826  1.0000
  H   H15       1.0  0.16007886309108824  0.17558907601812385  0.7830917332579963  1.0000
  H   H16       1.0  0.12282561045361381  0.28640575213432296  0.7951224971578876  1.0000
  C   C25       1.0  0.6329940560914554  0.396748972664491  0.4039968936039644  1.0000
  C   C26       1.0  0.6426373304535018  0.4417241438969836  0.4362138634852872  1.0000
  C   C27       1.0  0.5953699616948895  0.46575794121664926  0.4594985836700943  1.0000
  C   C28       1.0  0.5387257511880198  0.4434264350933417  0.4513615952964222  1.0000
  C   C29       1.0  0.5289592691693934  0.39920263659034005  0.41869003544995126  1.0000
  C   C30       1.0  0.5760715760615109  0.376465694776176  0.39464757964861935  1.0000
  H   H17       1.0  0.6865413027768829  0.4579552508280136  0.4431992182313242  1.0000
  H   H18       1.0  0.6029359582752016  0.4999824393269341  0.4847712976475134  1.0000
  H   H19       1.0  0.48518940873021305  0.3821330440635778  0.4121600464312449  1.0000
  H   H20       1.0  0.5685884387423058  0.34175743570914147  0.3696597914456107  1.0000
  C   C31       1.0  0.9329620548061709  0.438097949097774  0.5614206749562107  1.0000
  C   C32       1.0  0.9777187499107157  0.4691559892510742  0.5838828212610483  1.0000
  C   C33       1.0  0.9851809740510051  0.4574337615802696  0.6277478463261387  1.0000
  C   C34       1.0  0.9476864277944059  0.4149756454068431  0.6491652548038603  1.0000
  C   C35       1.0  0.9030968387836704  0.383899489738125  0.62663497424345  1.0000
  C   C36       1.0  0.8959033587507427  0.3952072995806779  0.5828095777655083  1.0000
  H   H21       1.0  0.006937450064168793  0.5016197252914153  0.5672303227586882  1.0000
  H   H22       1.0  0.01996465399122105  0.48091399800903845  0.644889110418351  1.0000
  H   H23       1.0  0.8741506742418498  0.35078963082754894  0.6430204820264455  1.0000
  H   H24       1.0  0.8613662335992985  0.37093770578193075  0.5656769367343433  1.0000
  C   C37       1.0  0.14336537496713087  0.5977749377282259  0.18077617248493405  1.0000
  C   C38       1.0  0.12040393186371845  0.6581691818399503  0.19029979168989522  1.0000
  C   C39       1.0  0.14006889347892432  0.6912357092277671  0.22644098655535252  1.0000
  C   C40       1.0  0.18403043189470877  0.665013429060686  0.25224178061167735  1.0000
  C   C41       1.0  0.207151489653933  0.6047764899386819  0.24253738816900797  1.0000
  C   C42       1.0  0.18650873779863972  0.5709881357340848  0.20703354178283656  1.0000
  H   H25       1.0  0.08650002180974736  0.6787157907640234  0.17043557447852717  1.0000
  H   H26       1.0  0.12023242244494474  0.7362284810951563  0.23478911791560428  1.0000
  H   H27       1.0  0.24148868195306009  0.5845407609304695  0.2621524291358632  1.0000
  H   H28       1.0  0.20518168517362956  0.5249921931625356  0.19934078130450442  1.0000
  C   C43       1.0  0.23014230395729043  0.23015288667682962  0.09725515661461959  1.0000
  C   C44       1.0  0.2522950793942017  0.1746539642252121  0.07881339004286293  1.0000
  C   C45       1.0  0.29342019171938705  0.17925775172362202  0.046222161609689616  1.0000
  C   C46       1.0  0.3130223602143455  0.23907871662641336  0.03206125759365497  1.0000
  C   C47       1.0  0.2921941817830211  0.29508302759750077  0.051298269312338725  1.0000
  C   C48       1.0  0.2502884782495127  0.2906338025202086  0.08398973202892047  1.0000
  H   H29       1.0  0.23634559180278766  0.1280312232725931  0.08889165916310972  1.0000
  H   H30       1.0  0.3097290646342954  0.13647245566481847  0.03153975198385872  1.0000
  H   H31       1.0  0.3073072785045502  0.34160968286447324  0.04022933196899726  1.0000
  H   H32       1.0  0.23302025584966168  0.3337609818317742  0.09827436747523756  1.0000
  C   C49       1.0  0.0719543248263963  0.3184162910684521  0.3350631986919476  1.0000
  C   C50       1.0  0.06103004095132758  0.25879550215047964  0.3163507114586119  1.0000
  C   C51       1.0  0.0188048806325376  0.2176426414407006  0.33368989098515933  1.0000
  C   C52       1.0  0.9877323119725071  0.2361930810241578  0.3698623163051322  1.0000
  C   C53       1.0  0.0011359303245173091  0.2940343476316181  0.39014911595661256  1.0000
  C   C54       1.0  0.0434346876873799  0.33518642914550384  0.37276204052345707  1.0000
  H   H33       1.0  0.0846410429880824  0.24458137185525458  0.2882684148402307  1.0000
  H   H34       1.0  0.00855829577236289  0.17288365892669202  0.31796065825387065  1.0000
  H   H35       1.0  0.9776576734862304  0.30815936284513756  0.41845632717479175  1.0000
  H   H36       1.0  0.05183316313939934  0.3812129989877851  0.38741423136028796  1.0000
  C   C55       1.0  0.5554904643546253  0.987105324699881  0.9488502927590435  1.0000
  C   C56       1.0  0.5535132045030492  0.03965453495005588  0.976335828262633  1.0000
  C   C57       1.0  0.5951633571665246  0.04575981998255041  0.008997042414793821  1.0000
  C   C58       1.0  0.6394580740403475  1.0880128680446077e-05  0.013698483794442273  1.0000
  C   C59       1.0  0.6412506603449493  0.9472834196502408  0.9863864864430772  1.0000
  C   C60       1.0  0.5989331393427058  0.9405252512164767  0.9542760512420935  1.0000
  H   H37       1.0  0.5206961749563133  0.0763812189124613  0.9719228055904573  1.0000
  H   H38       1.0  0.593787843655844  0.08667888683232583  0.030105349274572424  1.0000
  H   H39       1.0  0.6745860721489204  0.9110666296660467  0.9906314726273542  1.0000
  H   H40       1.0  0.5995297413949039  0.8987805636483513  0.9339511808712028  1.0000
  C   C61       1.0  0.9309911780636573  0.8314732160337763  0.15483691995022464  1.0000
  C   C62       1.0  0.97900629381866  0.8066331714638333  0.1771145638409536  1.0000
  C   C63       1.0  0.9987153253844295  0.8369591210483872  0.21427565492689724  1.0000
  C   C64       1.0  0.9702106845762286  0.8917552711104397  0.22911612602350487  1.0000
  C   C65       1.0  0.9200803323460488  0.9140217385274751  0.20836318389955705  1.0000
  C   C66       1.0  0.9005476052695117  0.883890490141359  0.17116800551809094  1.0000
  H   H41       1.0  0.0024265358272879123  0.7657219637582997  0.1648156890255823  1.0000
  H   H42       1.0  0.036349075864451574  0.8183934699811188  0.2310561301612926  1.0000
  H   H43       1.0  0.8972896001952086  0.9556691810752217  0.22027438300044874  1.0000
  H   H44       1.0  0.8617442482207844  0.9011048108321322  0.15524618426020162  1.0000
  C   C67       1.0  0.9564146256075569  0.1466278885121722  0.06081787985561404  1.0000
  C   C68       1.0  0.002027570084065289  0.18003349851487507  0.08014765400393521  1.0000
  C   C69       1.0  0.9903516864136825  0.22973283708800799  0.10838336160585613  1.0000
  C   C70       1.0  0.93290650132571  0.24798605792773956  0.11689200487096668  1.0000
  C   C71       1.0  0.8867218322093614  0.21374541473001435  0.09823808163383863  1.0000
  C   C72       1.0  0.898501578020156  0.16246411757490545  0.07043622642528069  1.0000
  H   H45       1.0  0.04663581867421396  0.16692174266432344  0.07398639908178063  1.0000
  H   H46       1.0  0.02633371917453764  0.2536237231828866  0.12347325302448327  1.0000
  H   H47       1.0  0.8420418761184859  0.2270902578392339  0.1049099260901678  1.0000
  H   H48       1.0  0.862868450318114  0.13627433339026698  0.05581204674612028  1.0000
  C   C73       1.0  0.11924345948227089  0.8225675943469796  0.7375808760633966  1.0000
  C   C74       1.0  0.14723108844568267  0.764250718117727  0.7460997611907517  1.0000
  C   C75       1.0  0.11812155320734756  0.7154124081023204  0.7685691388141072  1.0000
  C   C76       1.0  0.06169397488555872  0.7255713811940342  0.7840540807527678  1.0000
  C   C77       1.0  0.034453368396383695  0.7848865200023476  0.7770144614656276  1.0000
  C   C78       1.0  0.06297756085405881  0.8331636830411946  0.7533732753256079  1.0000
  H   H49       1.0  0.19129442556837883  0.7564103526661626  0.7348889444701702  1.0000
  H   H50       1.0  0.13973212120825662  0.670136036075105  0.7743637753161661  1.0000
  H   H51       1.0  0.9908265467969687  0.7929149427492178  0.7890881492438927  1.0000
  H   H52       1.0  0.04129276317556729  0.878367734561142  0.74741885021411  1.0000
  C   C79       1.0  0.9241893402201864  0.06600519065787291  0.5583166616593318  1.0000
  C   C80       1.0  0.8935216146442476  0.07689660073284799  0.596222437321626  1.0000
  C   C81       1.0  0.8419477364916746  0.11328443750446948  0.5955583787566997  1.0000
  C   C82       1.0  0.8210603088760363  0.13821072112056476  0.5568941320122011  1.0000
  C   C83       1.0  0.849569218733288  0.12324067448671139  0.5188254346109845  1.0000
  C   C84       1.0  0.9010755744727931  0.08743219769703758  0.5195191923049183  1.0000
  H   H53       1.0  0.9098841153990102  0.05826009604304794  0.6261698876126998  1.0000
  H   H54       1.0  0.819876754345187  0.1243969003640184  0.6250823496317872  1.0000
  H   H55       1.0  0.8330043778396811  0.1410211747998551  0.4887456147776043  1.0000
  H   H56       1.0  0.9238660324725051  0.07873655544446967  0.4900895497186866  1.0000
  C   C85       1.0  0.2072219677626612  0.21172402498110077  0.6635944783706331  1.0000
  C   C86       1.0  0.2223288153785522  0.2650385079214068  0.6385989432224509  1.0000
  C   C87       1.0  0.2748314257699489  0.2654204651132719  0.6158558726835308  1.0000
  C   C88       1.0  0.3137982422838266  0.21408611588030135  0.6198621314021692  1.0000
  C   C89       1.0  0.29979291654115214  0.16196733317360623  0.646474115610627  1.0000
  C   C90       1.0  0.24578274792997673  0.1600305118583174  0.6675186796669189  1.0000
  H   H57       1.0  0.1927928330739409  0.305434161827971  0.6359420333725339  1.0000
  H   H58       1.0  0.28507941391026514  0.3058214564754107  0.5954347261987735  1.0000
  H   H59       1.0  0.3300918769051278  0.12261049679287273  0.6503478707773181  1.0000
  H   H60       1.0  0.234521395455761  0.11928099187239338  0.6876006052479132  1.0000
  C   C91       1.0  0.916016658708281  0.0008234591657489965  0.8042678965506698  1.0000
  C   C92       1.0  0.9123863866837446  0.019697470226132774  0.8468595785909455  1.0000
  C   C93       1.0  0.900043885392567  0.9742438848038749  0.8786238003390053  1.0000
  C   C94       1.0  0.8888499110120284  0.9104635381554912  0.8676767408381945  1.0000
  C   C95       1.0  0.8959762872410472  0.8907760775094821  0.8253674413478554  1.0000
  C   C96       1.0  0.9101873558262937  0.9360026170397363  0.7935920219159213  1.0000
  H   H61       1.0  0.9176002013655898  0.06969453640408219  0.8552655625309522  1.0000
  H   H62       1.0  0.8970445864005528  0.9891957598003459  0.91134389682645  1.0000
  H   H63       1.0  0.8880785277175507  0.8411424329811387  0.8169058276883532  1.0000
  H   H64       1.0  0.91317137889842  0.9213169996659863  0.7605947159423594  1.0000
  N   N1        1.0  0.46504984728961785  0.9231272596778792  0.07665529162397644  1.0000
  C   C97       1.0  0.5254485584103857  0.8981677971837768  0.07756761816388535  1.0000
  C   C98       1.0  0.4663975787434473  0.9935745559881518  0.0823155918021019  1.0000
  C   C99       1.0  0.4307372753440541  0.8933033087886285  0.11153430693908128  1.0000
  C   C100      1.0  0.4376880887227192  0.9075656028269237  0.035171456717588256  1.0000
  H   H65       1.0  0.5263767632011771  0.8450793027480905  0.07372130117840658  1.0000
  H   H66       1.0  0.5479769734079819  0.9099080592995173  0.10808668977992975  1.0000
  H   H67       1.0  0.5521543206381153  0.9194767343373097  0.051365024162920214  1.0000
  H   H68       1.0  0.42165149712733146  0.014180106879979837  0.08223585905668496  1.0000
  H   H69       1.0  0.4875285787612632  0.007033540245834358  0.1130213305036456  1.0000
  H   H70       1.0  0.491295151809416  0.01774517753221949  0.05627479816909542  1.0000
  H   H71       1.0  0.3848538486430193  0.9110780638243745  0.11157277300044854  1.0000
  H   H72       1.0  0.4498656250494635  0.9042865581173385  0.1433689581879274  1.0000
  H   H73       1.0  0.4287628336806227  0.8401079579352366  0.10835223697793395  1.0000
  H   H74       1.0  0.4364262930336097  0.8548259229684277  0.029680920674958644  1.0000
  H   H75       1.0  0.4620844595266947  0.9297911738272608  0.008039441275638826  1.0000
  H   H76       1.0  0.39178310123142457  0.9250478993237651  0.03348156807907654  1.0000
  N   N2        1.0  0.09973213385811963  0.690795875171866  0.6257136618675837  1.0000
  C   C101      1.0  0.08151289196743239  0.6281429378902699  0.6080080055387442  1.0000
  C   C102      1.0  0.15497105193714056  0.6829383488653931  0.6496822351320798  1.0000
  C   C103      1.0  0.053973905963192514  0.7151091844220798  0.6546450419256056  1.0000
  C   C104      1.0  0.10866895793732478  0.7373534677037402  0.5904727063802965  1.0000
  H   H77       1.0  0.03965858250320986  0.6319143755580765  0.5900130564493972  1.0000
  H   H78       1.0  0.07500451465781333  0.5917799504696734  0.633664123140709  1.0000
  H   H79       1.0  0.11509312859640919  0.6084577130647069  0.5860301575119112  1.0000
  H   H80       1.0  0.17207590878329282  0.729970233519125  0.6609500837782734  1.0000
  H   H81       1.0  0.14897736635573722  0.6516417400646137  0.67833876129382  1.0000
  H   H82       1.0  0.18955650287088344  0.6604468261501976  0.6298696374954151  1.0000
  H   H83       1.0  0.01112259113790115  0.7197307310611218  0.6381064844195103  1.0000
  H   H84       1.0  0.06566941074365085  0.7632723606590638  0.6673897155140491  1.0000
  H   H85       1.0  0.047524110159821165  0.6827186989290507  0.6826894484452536  1.0000
  H   H86       1.0  0.12207661923908297  0.7853017676806905  0.6028703304627934  1.0000
  H   H87       1.0  0.067883584851133  0.744296961590607  0.571593939839374  1.0000
  H   H88       1.0  0.14338276661494653  0.7208976939386855  0.568289745833447  1.0000
  N   N3        1.0  0.9595598119387444  0.6108221158804072  0.08512362826827524  1.0000
  C   C105      1.0  0.9037003576354438  0.6280429790512279  0.06426730528532576  1.0000
  C   C106      1.0  0.9738505074011693  0.5432857149376342  0.0752924597742366  1.0000
  C   C107      1.0  0.9541610625945147  0.6184886255649162  0.13183313311130246  1.0000
  C   C108      1.0  0.006489095506172715  0.6535310625157941  0.06908294483364874  1.0000
  H   H89       1.0  0.8913122713445861  0.6785740227224731  0.07110595363989815  1.0000
  H   H90       1.0  0.8673029580850187  0.5968358665521005  0.07562608418865004  1.0000
  H   H91       1.0  0.9064809268893403  0.6235759160973767  0.028949508007761974  1.0000
  H   H92       1.0  0.9785520126087376  0.5359139776310187  0.04033139656266905  1.0000
  H   H93       1.0  0.015725378941815027  0.5285581011101712  0.09043551393454852  1.0000
  H   H94       1.0  0.9395338589645493  0.5097035014621264  0.08720907315891481  1.0000
  H   H95       1.0  0.9958546850915597  0.6064440436628077  0.1484582701649646  1.0000
  H   H96       1.0  0.9195303191965795  0.5867375534092459  0.1452480809080092  1.0000
  H   H97       1.0  0.9429080799579291  0.668895357649291  0.14023141920601134  1.0000
  H   H98       1.0  0.01200878666120464  0.6492154846414101  0.03395628746236512  1.0000
  H   H99       1.0  0.049263506723846495  0.6419483881664023  0.08427846723583943  1.0000
  H   H100      1.0  0.9969397251221428  0.7048491443306035  0.07606584632250103  1.0000
  N   N4        1.0  0.2529651832389428  0.19405197834642696  0.25298023815955006  1.0000
  C   C109      1.0  0.30130025233148183  0.15026973051263925  0.2644500733832966  1.0000
  C   C110      1.0  0.27415024502651075  0.2425991073757663  0.22199038807626734  1.0000
  C   C111      1.0  0.23152897288564733  0.22655569069502723  0.2917044575405823  1.0000
  C   C112      1.0  0.2048906812741611  0.15664842934959933  0.23365950002005506  1.0000
  H   H101      1.0  0.33671895138451635  0.17589496917906788  0.2819388789510242  1.0000
  H   H102      1.0  0.32075502230522  0.1279556324607649  0.2355962370051026  1.0000
  H   H103      1.0  0.2857763489157832  0.11007952164242218  0.2851250473184675  1.0000
  H   H104      1.0  0.23874666492466146  0.27630858631682287  0.21261029204971632  1.0000
  H   H105      1.0  0.3107308884285944  0.27146154031255376  0.23544431738107016  1.0000
  H   H106      1.0  0.28985564817649756  0.21973967276262907  0.19208986124600963  1.0000
  H   H107      1.0  0.19504566488035846  0.2600742056340186  0.28419869490263505  1.0000
  H   H108      1.0  0.26667173814056566  0.25545128829512076  0.30705873566574676  1.0000
  H   H109      1.0  0.21562225119062894  0.191306531039676  0.3159370302870279  1.0000
  H   H110      1.0  0.16731052929226764  0.18798994283886516  0.2251357212120332  1.0000
  H   H111      1.0  0.188821437274038  0.11863747458381568  0.25582242864052457  1.0000
  H   H112      1.0  0.2194472830002514  0.13247906658291364  0.2038968704154402  1.0000
  N   N5        1.0  0.056109353807695106  0.26921003234429425  0.5587633825440853  1.0000
  C   C113      1.0  0.04367819301099374  0.29259114657945473  0.6022458458529427  1.0000
  C   C114      1.0  0.02345848413895002  0.20876958360870737  0.5515488168659127  1.0000
  C   C115      1.0  0.11943431515433511  0.25745832946019237  0.554364380760128  1.0000
  C   C116      1.0  0.037788845277184624  0.31803100366806947  0.5269830873274989  1.0000
  H   H113      1.0  0.06704625804604891  0.33831638102407174  0.6090304339857165  1.0000
  H   H114      1.0  0.05718430953635956  0.2570426058464144  0.6270175030179509  1.0000
  H   H115      1.0  0.9962235138407076  0.3015645805013657  0.6066847265903297  1.0000
  H   H116      1.0  0.9755750849772715  0.21560683709189904  0.5558355860689559  1.0000
  H   H117      1.0  0.030198566505028168  0.1902354226917393  0.5187158622670479  1.0000
  H   H118      1.0  0.037055773107713685  0.17036768249721895  0.5743878525098548  1.0000
  H   H119      1.0  0.130362937078762  0.24011476757257197  0.5218489270226422  1.0000
  H   H120      1.0  0.13485996890744345  0.22103933755056024  0.577992267952137  1.0000
  H   H121      1.0  0.14513041973507357  0.3023502525922535  0.5596100550401627  1.0000
  H   H122      1.0  0.044573333057451814  0.3012620696399809  0.49372001485974504  1.0000
  H   H123      1.0  0.0626208398693473  0.36372694218228085  0.530538574376104  1.0000
  H   H124      1.0  0.9908506960876005  0.33002493793692583  0.5304547975630415  1.0000
  N   N6        1.0  0.07280395061040146  0.009596176246118748  0.13787418370634047  1.0000
  C   C117      1.0  0.06941601056315472  0.9419183213926705  0.12410550790895641  1.0000
  C   C118      1.0  0.10172293401885132  0.013129374389809543  0.17999832496951004  1.0000
  C   C119      1.0  0.01311706177830163  0.036006836360845895  0.1411494130437693  1.0000
  C   C120      1.0  0.10685485894411936  0.04720761508637384  0.10634430421796304  1.0000
  H   H125      1.0  0.04384973085140231  0.9123561365377434  0.14709836438055007  1.0000
  H   H126      1.0  0.11354861109172097  0.9200500197904362  0.12159100241763544  1.0000
  H   H127      1.0  0.047597267336482625  0.9375715182657629  0.0924288106420319  1.0000
  H   H128      1.0  0.10463738382490864  0.06355810788139828  0.1913641232797968  1.0000
  H   H129      1.0  0.07734717810732805  0.9848392474321025  0.20445247179987408  1.0000
  H   H130      1.0  0.14691064030325712  0.9938480978877074  0.17879502558723595  1.0000
  H   H131      1.0  0.013805747059913331  0.08765610052394779  0.1500898830422387  1.0000
  H   H132      1.0  0.9869712365962339  0.00976607769091853  0.16563220371196272  1.0000
  H   H133      1.0  0.989059931183203  0.031936332029298464  0.11038439636114078  1.0000
  H   H134      1.0  0.11156070838520933  0.09820305139170671  0.11630514495969553  1.0000
  H   H135      1.0  0.0853711305799163  0.046798700722558984  0.07441792704640826  1.0000
  H   H136      1.0  0.1517567512758843  0.027543576776714044  0.10256484590220773  1.0000
  N   N7        1.0  0.0036947374902014385  0.002240296907006999  0.4051095586926884  1.0000
  C   C121      1.0  0.9396287427744447  0.00997991145666677  0.4024981413844676  1.0000
  C   C122      1.0  0.018711022597805993  0.9342292382077833  0.39805686366610793  1.0000
  C   C123      1.0  0.024608103169684092  0.02182089953125743  0.4477217232044698  1.0000
  C   C124      1.0  0.03203205591217295  0.04277285102965567  0.37220792436703437  1.0000
  H   H137      1.0  0.9168316303723388  0.9797576242503323  0.42675730638594783  1.0000
  H   H138      1.0  0.9227767146840762  0.9963968587895974  0.37039794390363356  1.0000
  H   H139      1.0  0.9265747307792178  0.060565308871038066  0.40824028215726565  1.0000
  H   H140      1.0  0.06654370980733093  0.9265037051414197  0.40144489160627594  1.0000
  H   H141      1.0  0.9966671930291877  0.9021025291514516  0.42157721572035517  1.0000
  H   H142      1.0  0.005496799804708408  0.9184187122995934  0.36551319633859597  1.0000
  H   H143      1.0  0.0727421778337003  0.015856425875005575  0.4508392525023649  1.0000
  H   H144      1.0  0.003856721532282892  0.9924169569725954  0.47334742405733526  1.0000
  H   H145      1.0  0.014573448146344425  0.07316161006235733  0.4540455271919007  1.0000
  H   H146      1.0  0.08035795125075618  0.037337462432514235  0.3729513341767886  1.0000
  H   H147      1.0  0.022169448517218582  0.0944137864661785  0.37721108975538153  1.0000
  H   H148      1.0  0.016766907270739706  0.030024045569031713  0.33957626665662666  1.0000
  N   N8        1.0  0.13004045623575644  0.9210291467421464  0.8630968726779354  1.0000
  C   C125      1.0  0.16159852616477255  0.9486831078201313  0.8261273024939579  1.0000
  C   C126      1.0  0.15123669395641137  0.9516628857241446  0.9027011532501387  1.0000
  C   C127      1.0  0.14085874894244244  0.8510838794929502  0.8654300836006955  1.0000
  C   C128      1.0  0.06663652389568853  0.932686321865323  0.8580892357717006  1.0000
  H   H149      1.0  0.14744836350975477  0.9263317613703479  0.7956559637542981  1.0000
  H   H150      1.0  0.20966418847483315  0.9416879376756119  0.8289972734769718  1.0000
  H   H151      1.0  0.15404867543256673  0.001309196160429904  0.8230689115037042  1.0000
  H   H152      1.0  0.12790958944541675  0.9327291884882033  0.931320621192171  1.0000
  H   H153      1.0  0.19873380882255454  0.942758117040475  0.9078264429113697  1.0000
  H   H154      1.0  0.1451456284527497  0.004692778718649482  0.9015409607148435  1.0000
  H   H155      1.0  0.11724661010310666  0.8284028918536525  0.8927034229288192  1.0000
  H   H156      1.0  0.18821233541654458  0.8404746204289844  0.8693475472852126  1.0000
  H   H157      1.0  0.12590533156545725  0.8265116113717778  0.8359130508440613  1.0000
  H   H158      1.0  0.0412892937320859  0.9123008913983119  0.885349511036612  1.0000
  H   H159      1.0  0.04923847694287664  0.9100664149904957  0.8285676729300253  1.0000
  H   H160      1.0  0.05674949435826071  0.9849281929399024  0.8559673490341245  1.0000
  N   N9        1.0  0.12012499644529152  0.23205765851553634  0.9795789263567422  1.0000
  C   C129      1.0  0.11322077684980489  0.20697111108282426  0.9358554586019945  1.0000
  C   C130      1.0  0.1335403685833801  0.17842698980011723  0.009100475343714276  1.0000
  C   C131      1.0  0.06529347212032421  0.26330604997632856  0.9929794471759466  1.0000
  C   C132      1.0  0.16836137993859082  0.27943562148972056  0.9804466189949121  1.0000
  H   H161      1.0  0.15383304177929247  0.18289200091976016  0.9249077941601218  1.0000
  H   H162      1.0  0.10351081773939212  0.24638488294399863  0.9127074174550064  1.0000
  H   H163      1.0  0.07703989355336893  0.17123927109505438  0.9340908454707176  1.0000
  H   H164      1.0  0.1375508539762978  0.1956117202135811  0.042505546568246455  1.0000
  H   H165      1.0  0.09877711888194823  0.14088728778548523  0.008377411099121712  1.0000
  H   H166      1.0  0.1756092695906115  0.15506586059992353  0.0009157158876211824  1.0000
  H   H167      1.0  0.06888642174921289  0.28231109115994446  0.026058461130735733  1.0000
  H   H168      1.0  0.027914468587692864  0.2288429570642326  0.9926737042505974  1.0000
  H   H169      1.0  0.054071396287798126  0.3043772058746974  0.9715509930228249  1.0000
  H   H170      1.0  0.17381148672116503  0.3004552841035961  0.012761356495825327  1.0000
  H   H171      1.0  0.16047217311550638  0.31988860174327727  0.9576664089648104  1.0000
  H   H172      1.0  0.21086285638884805  0.25710267158922395  0.9717021119485403  1.0000
  N   N10       1.0  0.5990562886599873  0.26663132175689985  0.5392467294169271  1.0000
  C   C133      1.0  0.6262351212447231  0.21444175034553226  0.5145250743500577  1.0000
  C   C134      1.0  0.544640699715823  0.24290517143284363  0.5593172395323145  1.0000
  C   C135      1.0  0.585527275896218  0.32080161620876346  0.5102524748216298  1.0000
  C   C136      1.0  0.640009297976776  0.28861936563991164  0.5726777901687349  1.0000
  H   H173      1.0  0.6383411761088097  0.17304898573408733  0.5354259247199836  1.0000
  H   H174      1.0  0.667078463118209  0.2311857043638057  0.49863691422430645  1.0000
  H   H175      1.0  0.5965057214266984  0.19655128199035587  0.4890770340633077  1.0000
  H   H176      1.0  0.5535234878219752  0.20305053919457117  0.5822649164761827  1.0000
  H   H177      1.0  0.5219071876191091  0.2817226912256725  0.5770158458118908  1.0000
  H   H178      1.0  0.5133540488906514  0.22446475496393847  0.5350745134345486  1.0000
  H   H179      1.0  0.5641381932660806  0.3611544281782806  0.5273408767609612  1.0000
  H   H180      1.0  0.5557326439457891  0.30592980824033766  0.48401514966108605  1.0000
  H   H181      1.0  0.6258204099362472  0.3402304946898367  0.4950376213652392  1.0000
  H   H182      1.0  0.6208857042698543  0.32796972837345195  0.5919603372753836  1.0000
  H   H183      1.0  0.6814288533379952  0.30710074933882625  0.5585271741461778  1.0000
  H   H184      1.0  0.6523021173591131  0.24865244981602364  0.5947257552305032  1.0000
  N   N11       1.0  0.30350429774683974  0.3541878597805009  0.7469549073643745  1.0000
  C   C137      1.0  0.28878753994291984  0.38614410472893107  0.7060405078243053  1.0000
  C   C138      1.0  0.36765291523690746  0.3518730644735516  0.7520097722421396  1.0000
  C   C139      1.0  0.27985173738358937  0.2880614320281815  0.7470718020629247  1.0000
  C   C140      1.0  0.27791607088526243  0.39054982570896607  0.7826862117782322  1.0000
  H   H185      1.0  0.24066827680689581  0.3889486592765786  0.7011392202804865  1.0000
  H   H186      1.0  0.3073393957637148  0.3599978699846126  0.678379627846168  1.0000
  H   H187      1.0  0.30602931682945556  0.4361959853746757  0.7047247385571621  1.0000
  H   H188      1.0  0.3802124899548749  0.32746385966686237  0.7824262868103535  1.0000
  H   H189      1.0  0.38836498122635527  0.32507697653115153  0.7254038076306617  1.0000
  H   H190      1.0  0.38688803531927335  0.40107061355090534  0.7523451566011502  1.0000
  H   H191      1.0  0.2888392963970974  0.2628846593238329  0.7778435504062184  1.0000
  H   H192      1.0  0.2993630164345725  0.25875610357278733  0.7212389684404167  1.0000
  H   H193      1.0  0.2316540680708439  0.28780628932587143  0.7421012748385847  1.0000
  H   H194      1.0  0.28967938791980935  0.3689585948651329  0.8141690819247611  1.0000
  H   H195      1.0  0.229483603751655  0.3909835422683224  0.7809381397776731  1.0000
  H   H196      1.0  0.2928008944182957  0.4415374086587942  0.7825366371118019  1.0000
  N   N12       1.0  0.7085831841261234  0.958720919102865  0.8493354763346991  1.0000
  C   C141      1.0  0.7381587604024352  0.012573079884023786  0.827110454801478  1.0000
  C   C142      1.0  0.7260248418499375  0.9583158836684336  0.8947778853025163  1.0000
  C   C143      1.0  0.7258978976042796  0.8973584986733706  0.8295928515296347  1.0000
  C   C144      1.0  0.6445391778715116  0.9665658212085747  0.8459227208780888  1.0000
  H   H197      1.0  0.7258412945830821  0.014800418926850245  0.7927506234182812  1.0000
  H   H198      1.0  0.786570819475503  0.007435038027022056  0.8285815521294736  1.0000
  H   H199      1.0  0.7268694305586139  0.059490391963370026  0.8417397264047256  1.0000
  H   H200      1.0  0.7090471123653272  0.9150656212922962  0.911765019173414  1.0000
  H   H201      1.0  0.7742913615326915  0.9574859976439104  0.8983295289660497  1.0000
  H   H202      1.0  0.7098587319984091  0.001544354648343127  0.9118044443498826  1.0000
  H   H203      1.0  0.7043848994417098  0.8556123902869144  0.8455536680866399  1.0000
  H   H204      1.0  0.7738125616794619  0.889494433133472  0.8323177353249711  1.0000
  H   H205      1.0  0.714332282447109  0.8961235699858671  0.7951068807445437  1.0000
  H   H206      1.0  0.6299194585172255  0.9690269102674269  0.8120750069279316  1.0000
  H   H207      1.0  0.6294307470783956  0.011151707505645314  0.8619657083321883  1.0000
  H   H208      1.0  0.6208317199446404  0.9257758986980144  0.8612360396123109  1.0000
  N   N13       1.0  0.298632072751163  0.04941717098493026  0.5325039248538447  1.0000
  C   C145      1.0  0.2683455562641979  0.9904246975749934  0.5184561455663644  1.0000
  C   C146      1.0  0.2549483238152194  0.09978507178851093  0.5412668205968341  1.0000
  C   C147      1.0  0.3387415885592516  0.07212897963967735  0.4986283638553948  1.0000
  C   C148      1.0  0.3324696706398118  0.03532412956915976  0.571674353900032  1.0000
  H   H209      1.0  0.29982406941531775  0.9517531437299888  0.5103567234088334  1.0000
  H   H210      1.0  0.24151518398279057  0.9996413391418764  0.4894833484335761  1.0000
  H   H211      1.0  0.23841616739167895  0.9715502041851602  0.5435839020138744  1.0000
  H   H212      1.0  0.27636929632838086  0.1455945368726057  0.5504949656743455  1.0000
  H   H213      1.0  0.22774223238683888  0.11023094431177505  0.5125908112957023  1.0000
  H   H214      1.0  0.2251490914549199  0.08545454028888533  0.567747950313596  1.0000
  H   H215      1.0  0.31490257793590953  0.08255352442359443  0.46846073334367716  1.0000
  H   H216      1.0  0.3726112530650244  0.03564889580949693  0.4912700789289125  1.0000
  H   H217      1.0  0.36160355034512215  0.11725103059922892  0.5080692400192868  1.0000
  H   H218      1.0  0.3034159167269674  0.021134025812308055  0.5986393552504983  1.0000
  H   H219      1.0  0.3580840502083593  0.07797475340711357  0.5819944543621279  1.0000
  H   H220      1.0  0.36410579881210237  0.9956360911587163  0.5665968345027812  1.0000
  N   N14       1.0  0.1882411490690132  0.5260453998558696  0.37484121671234555  1.0000
  C   C149      1.0  0.2472158928252209  0.5516806326361373  0.36564260958918177  1.0000
  C   C150      1.0  0.16189493342091132  0.5625253172541312  0.4101799332272485  1.0000
  C   C151      1.0  0.192608440380081  0.4576106708888009  0.3873122007557057  1.0000
  C   C152      1.0  0.1512373953114209  0.5323966755303182  0.33631604346330496  1.0000
  H   H221      1.0  0.2681226812660461  0.5253893446439964  0.33891929849905605  1.0000
  H   H222      1.0  0.2764823585364975  0.5474343914262195  0.3939472543338589  1.0000
  H   H223      1.0  0.24551015014890717  0.6033521601820548  0.3561304217184072  1.0000
  H   H224      1.0  0.15831889766982332  0.6145230950449657  0.40192716348367097  1.0000
  H   H225      1.0  0.1172585174287862  0.5443484326541004  0.41773600753967843  1.0000
  H   H226      1.0  0.18845242756374467  0.5580553397731673  0.4399032006768631  1.0000
  H   H227      1.0  0.14881756289451145  0.4363434337129901  0.39369224424531324  1.0000
  H   H228      1.0  0.21887648703295176  0.45132870059865  0.4169115108251446  1.0000
  H   H229      1.0  0.21321402043854065  0.42857333240079204  0.3617520168686916  1.0000
  H   H230      1.0  0.10668218141149699  0.5124523140761156  0.3417668157091173  1.0000
  H   H231      1.0  0.17010970362994648  0.5058903645061603  0.3088689494815992  1.0000
  H   H232      1.0  0.14652312703248835  0.5835737464929917  0.32628526015408027  1.0000
  N   N15       1.0  0.9718369465808286  0.2428468086128115  0.7833030261992874  1.0000
  C   C153      1.0  0.9441970288441178  0.2407393279773471  0.740621484963094  1.0000
  C   C154      1.0  0.9286144682276891  0.2243482526483147  0.8161526512697552  1.0000
  C   C155      1.0  0.9929758246736495  0.3086131062990105  0.791723850863506  1.0000
  C   C156      1.0  0.021760154136415855  0.19807243191804114  0.7846258415257654  1.0000
  H   H233      1.0  0.9757966961195988  0.2542426124135577  0.7150612011327296  1.0000
  H   H234      1.0  0.9070083198591413  0.2749299075755989  0.7381250667631877  1.0000
  H   H235      1.0  0.9271889533175609  0.19190110041383956  0.7332607496008068  1.0000
  H   H236      1.0  0.9482255712400609  0.22470407299399464  0.8486591715830988  1.0000
  H   H237      1.0  0.8907492294870428  0.2577840966878031  0.8160358169560162  1.0000
  H   H238      1.0  0.9111175398167284  0.17525473548248094  0.8104371351291018  1.0000
  H   H239      1.0  0.02469696862955995  0.32426071783120936  0.7669195469188068  1.0000
  H   H240      1.0  0.01516415511736513  0.3122017562704409  0.8232773661496692  1.0000
  H   H241      1.0  0.9564478047744007  0.3438437874619311  0.791094264688517  1.0000
  H   H242      1.0  0.0443075205411787  0.19895171885268326  0.816070580336549  1.0000
  H   H243      1.0  0.05449967721499127  0.21024149713033058  0.7595766624816055  1.0000
  H   H244      1.0  0.007580520259302004  0.1479184371683182  0.7789211975737075  1.0000
  N   N16       1.0  0.852818186300046  0.30203831155124644  0.27763840837288956  1.0000
  C   C157      1.0  0.8197323454200409  0.33444926230574434  0.2431551621674488  1.0000
  C   C158      1.0  0.8117057325346223  0.2787207753192554  0.31064451823869876  1.0000
  C   C159      1.0  0.8944482387509705  0.3480604556785623  0.29676824969136173  1.0000
  C   C160      1.0  0.8853732047095422  0.2470231569907592  0.26006730913369536  1.0000
  H   H245      1.0  0.8494756491145796  0.35481700404864214  0.21846844058219617  1.0000
  H   H246      1.0  0.7929963200426202  0.37468213666296035  0.25575497308245865  1.0000
  H   H247      1.0  0.7895958793747982  0.3005463675190788  0.22674082381865546  1.0000
  H   H248      1.0  0.8349960405656449  0.2536042027462905  0.3371052228898799  1.0000
  H   H249      1.0  0.7868123449927948  0.31906858268624677  0.32492899643325  1.0000
  H   H250      1.0  0.7792371771989298  0.24443526675848826  0.29724034873449146  1.0000
  H   H251      1.0  0.9197573989341652  0.3253472321409138  0.32312918029169224  1.0000
  H   H252      1.0  0.8714813317704639  0.3903840661253974  0.310237721110868  1.0000
  H   H253      1.0  0.9265546765409005  0.3660423945410301  0.27280275933791787  1.0000
  H   H254      1.0  0.9092324778310896  0.22048224401673888  0.285660466208276  1.0000
  H   H255      1.0  0.9181435849916267  0.263079968617139  0.23602274260523348  1.0000
  H   H256      1.0  0.8556432475459023  0.21232713625301639  0.24401975425627986  1.0000
