data_image0
_chemical_formula_structural       FeS2FeS2FeSFeS3FeS2FeS2FeSFeS3FeS2FeS2FeSFeS3FeS2FeS2FeSFeS3FeS2FeS2FeSFeS3FeS2FeS2FeSFeS3FeS2FeS2FeSFeS3FeS2FeS2FeSFeS3FeS2FeS2FeSFeS3FeS2FeS2FeSFeS3FeS2FeS2FeSFeS3FeS2FeS2FeSFeS3FeS2FeS2FeSFeS3FeS2FeS2FeSFeS3FeS2FeS2FeSFeS3FeS2FeS2FeSFeS3FeS2FeS2FeSFeS3FeS2FeS2FeSFeS3FeS2FeS2FeSFeS3FeS2FeS2FeSFeS3FeS2FeS2FeSFeS3FeS2FeS2FeSFeS3FeS2FeS2FeSFeS3FeS2FeS2FeSFeS3FeS2FeS2FeSFeS3FeS2FeS2FeSFeS3FeS2FeS2FeSFeS3FeS2FeS2FeSFeS3FeS2FeS2FeSFeS3FeS2FeS2FeSFeS3FeS2FeS2FeSFeS3FeS2FeS2FeSFeS3C6H4C6H4C6H4C6H4C6H4C6H4C6H4C6H4C6H4C6H4C6H4C6H4C6H4C6H4C6H4C6H4C6H4C6H4C6H4C6H4C6H4C6H4C6H4C6H4C6H4C6H4C6H4C6H4C6H4C6H4C6H4C6H4C6H4C6H4C6H4C6H4C6H4C6H4C6H4C6H4C6H4C6H4C6H4C6H4C6H4C6H4C6H4C6H4C6H4C6H4C6H4C6H4C6H4C6H4C6H4C6H4C6H4C6H4C6H4C6H4C6H4C6H4C6H4C6H4NC4H12NC4H12NC4H12NC4H12NC4H12NC4H12NC4H12NC4H12NC4H12NC4H12NC4H12NC4H12NC4H12NC4H12NC4H12NC4H12NC4H12NC4H12NC4H12NC4H12NC4H12NC4H12NC4H12NC4H12NC4H12NC4H12NC4H12NC4H12NC4H12NC4H12NC4H12NC4H12NC4H12NC4H12NC4H12NC4H12NC4H12NC4H12NC4H12NC4H12NC4H12NC4H12NC4H12NC4H12NC4H12NC4H12NC4H12NC4H12NC4H12NC4H12NC4H12NC4H12NC4H12NC4H12NC4H12NC4H12NC4H12NC4H12NC4H12NC4H12NC4H12NC4H12NC4H12NC4H12
_chemical_formula_sum              "Fe128 S256 C640 H1024 N64"
_cell_length_a       47.99889170744222
_cell_length_b       47.43409996282663
_cell_length_c       32.366841658370404
_cell_angle_alpha    90.57408214684493
_cell_angle_beta     90.26512257960911
_cell_angle_gamma    88.57446428814518

_space_group_name_H-M_alt    "P 1"
_space_group_IT_number       1

loop_
  _space_group_symop_operation_xyz
  'x, y, z'

loop_
  _atom_site_type_symbol
  _atom_site_label
  _atom_site_symmetry_multiplicity
  _atom_site_fract_x
  _atom_site_fract_y
  _atom_site_fract_z
  _atom_site_occupancy
  Fe  Fe1       1.0  0.16935441779423627  0.337847358162372  0.05738375191842815  1.0000
  S   S1        1.0  0.12928688515062847  0.3182457211800507  0.07503944971144305  1.0000
  S   S2        1.0  0.17105253693336667  0.3785185011709243  0.02309002328828047  1.0000
  Fe  Fe2       1.0  0.20508934422834732  0.294106912242166  0.10100628935397693  1.0000
  S   S3        1.0  0.16817719611354298  0.2701816469826815  0.12283294567270435  1.0000
  S   S4        1.0  0.25029616776806934  0.2818510244806805  0.11184354295220866  1.0000
  Fe  Fe3       1.0  0.1510686058082705  0.27727724168875545  0.05908481856998837  1.0000
  S   S5        1.0  0.12454935203682914  0.24373006966913763  0.030497350158404046  1.0000
  Fe  Fe4       1.0  0.1491104948914653  0.31275130440557214  0.13712922750397477  1.0000
  S   S6        1.0  0.12126770388460989  0.3194268555962904  0.1922376692163242  1.0000
  S   S7        1.0  0.18971800317788107  0.29750262649242265  0.035531054522323746  1.0000
  S   S8        1.0  0.18747228387281425  0.336271004504142  0.12101399474493713  1.0000
  Fe  Fe5       1.0  0.12476469917035984  0.1825645328059137  0.8149648508523689  1.0000
  S   S9        1.0  0.10818460131272212  0.2063808321857011  0.7604057001874304  1.0000
  S   S10       1.0  0.1600131202340594  0.19914541081599602  0.8532666322385837  1.0000
  Fe  Fe6       1.0  0.08411601911346384  0.1354910966246047  0.8044154765209357  1.0000
  S   S11       1.0  0.06317503298127702  0.1548807385189216  0.7490534834755584  1.0000
  S   S12       1.0  0.07119637390668565  0.09651468973818744  0.8376995198214121  1.0000
  Fe  Fe7       1.0  0.10670087491679456  0.1641910283198683  0.7291054567098025  1.0000
  S   S13       1.0  0.11713673301286644  0.16087672402059625  0.6617509904643664  1.0000
  Fe  Fe8       1.0  0.06625164391639671  0.1956310070912632  0.7840772829554581  1.0000
  S   S14       1.0  0.033625941818757  0.23009337034357186  0.7846248532097216  1.0000
  S   S15       1.0  0.1276403781712405  0.14100930516893265  0.7813062622590503  1.0000
  S   S16       1.0  0.08270302452730607  0.17565013997879303  0.841668595040238  1.0000
  Fe  Fe9       1.0  0.9799520846522096  0.28776217215859184  0.018999417029824883  1.0000
  S   S17       1.0  0.9616303758073758  0.2863317562540418  0.9553047935127637  1.0000
  S   S18       1.0  0.02312060784349068  0.3029723939793035  0.02988101710924629  1.0000
  Fe  Fe10      1.0  0.9301390259866025  0.26209114328094874  0.05844294060067463  1.0000
  S   S19       1.0  0.9068503545203409  0.2576985521959456  0.9986830389414055  1.0000
  S   S20       1.0  0.91293631789072  0.2511444116158403  0.12043513108017082  1.0000
  Fe  Fe11      1.0  0.9480058948568215  0.24323970467930872  0.9727561474426232  1.0000
  S   S21       1.0  0.9517120088128261  0.20569834948729224  0.9304193591446748  1.0000
  Fe  Fe12      1.0  0.9220717512904174  0.3009510503826867  0.9856790637605884  1.0000
  S   S22       1.0  0.8925871656528886  0.3309262554257107  0.9535727714521657  1.0000
  S   S23       1.0  0.9701340831402524  0.24336544545600225  0.033780489218469434  1.0000
  S   S24       1.0  0.9416125784310336  0.30699476592667346  0.04804037412472151  1.0000
  Fe  Fe13      1.0  0.9982556034203139  0.45070709855777313  0.8736387573754952  1.0000
  S   S25       1.0  0.0021780498124328584  0.48225028624849947  0.9252436850702404  1.0000
  S   S26       1.0  0.959788695859168  0.4520465226191825  0.8341916281845713  1.0000
  Fe  Fe14      1.0  0.05254663706959817  0.42011990683479034  0.8949530266656203  1.0000
  S   S27       1.0  0.061308266577351445  0.4492110677588444  0.9480440966994121  1.0000
  S   S28       1.0  0.07848969320439414  0.38077522516422946  0.884145240472203  1.0000
  Fe  Fe15      1.0  0.01627331131794585  0.4451505906006323  0.9627674596961348  1.0000
  S   S29       1.0  0.001287088673443515  0.4337610688502111  0.02559112585762069  1.0000
  Fe  Fe16      1.0  0.04680988002786224  0.4833642102126937  0.9053109326734267  1.0000
  S   S30       1.0  0.07014506012566013  0.5236303270466844  0.9051845223294108  1.0000
  S   S31       1.0  0.008348693698514653  0.41347638402999787  0.9129076776849367  1.0000
  S   S32       1.0  0.04192386987267338  0.4546388857382769  0.8501559608286983  1.0000
  Fe  Fe17      1.0  0.15246249213145832  0.7894605139597907  0.5381137436435697  1.0000
  S   S33       1.0  0.14268960420165244  0.8355954214525468  0.5304720875906795  1.0000
  S   S34       1.0  0.11652687530765456  0.7623275854855822  0.5544591530743271  1.0000
  Fe  Fe18      1.0  0.21108889051135615  0.7944059295136967  0.5038343997350896  1.0000
  S   S35       1.0  0.205939569222376  0.8408021389451321  0.4931773520578274  1.0000
  S   S36       1.0  0.24948947495289678  0.7700345653381515  0.4839377990784008  1.0000
  Fe  Fe19      1.0  0.1858108271848777  0.8413819805934233  0.5555698285227185  1.0000
  S   S37       1.0  0.19498901344670835  0.877063427730871  0.5991957235435117  1.0000
  Fe  Fe20      1.0  0.16371254741187044  0.830260363801314  0.4692960415830775  1.0000
  S   S38       1.0  0.14609734740778163  0.8459062801384155  0.40923572772994865  1.0000
  S   S39       1.0  0.19417318393001523  0.795522391457754  0.568513882196804  1.0000
  S   S40       1.0  0.17038011116190438  0.7836030381689493  0.4749863214216413  1.0000
  Fe  Fe21      1.0  0.11008325973029584  0.941564166301424  0.7981114660129943  1.0000
  S   S41       1.0  0.0762782998582765  0.9318291886010693  0.8431592424791515  1.0000
  S   S42       1.0  0.11304643912319522  0.9805609749811679  0.7595866846971411  1.0000
  Fe  Fe22      1.0  0.13878095831278353  0.8844938181053024  0.8066238290052676  1.0000
  S   S43       1.0  0.10783775262980498  0.8693539967727189  0.8519810068695378  1.0000
  S   S44       1.0  0.17272420211688727  0.8539600284907714  0.7873963933100622  1.0000
  Fe  Fe23      1.0  0.07586228519112213  0.8897755961370682  0.8113569735938053  1.0000
  S   S45       1.0  0.036837994486354164  0.8664188179495854  0.7994791641323333  1.0000
  Fe  Fe24      1.0  0.11100516599008539  0.9122035914869441  0.8806417095538577  1.0000
  S   S46       1.0  0.112445255425853  0.9186933678040607  0.9494291740676123  1.0000
  S   S47       1.0  0.10628551229321268  0.9009325739200126  0.7625610206538104  1.0000
  S   S48       1.0  0.14517001633299098  0.9258778163171719  0.8386813905165615  1.0000
  Fe  Fe25      1.0  0.9440569863842624  0.8877359087370135  0.532813074575767  1.0000
  S   S49       1.0  0.9129496859577403  0.8990406532171671  0.5821497262501252  1.0000
  S   S50       1.0  0.9380935111625935  0.9031191173333217  0.46786136264753037  1.0000
  Fe  Fe26      1.0  0.9765690107313094  0.8471500041452887  0.5873726898538694  1.0000
  S   S51       1.0  0.9482348688364938  0.8544759368823746  0.6412906058952118  1.0000
  S   S52       1.0  0.013543816418861487  0.8178090827074965  0.593147032191523  1.0000
  Fe  Fe27      1.0  0.9136989263536823  0.8526574572313079  0.5948098384387323  1.0000
  S   S53       1.0  0.8764969019033234  0.8256091942376197  0.6032301379206139  1.0000
  Fe  Fe28      1.0  0.9504432173404408  0.8999295447607965  0.6238688479302072  1.0000
  S   S54       1.0  0.9574004086953389  0.9309166388176915  0.6753528215859522  1.0000
  S   S55       1.0  0.9419524088147979  0.8411118252706985  0.5420846409534307  1.0000
  S   S56       1.0  0.9817197281469318  0.892776171767287  0.5734329955424229  1.0000
  Fe  Fe29      1.0  0.04053324431278793  0.6475890832748015  0.7683650138778972  1.0000
  S   S57       1.0  0.07343703372542043  0.6684971466261009  0.8066069368899946  1.0000
  S   S58       1.0  0.03224279397315666  0.6016335777639384  0.7582771761354308  1.0000
  Fe  Fe30      1.0  0.013152547067857068  0.702752289950685  0.7431806185208816  1.0000
  S   S59       1.0  0.043290539544251994  0.7291788937868433  0.77870709364667  1.0000
  S   S60       1.0  0.9761985447981625  0.7205273115708932  0.708776406026071  1.0000
  Fe  Fe31      1.0  0.07569885415564714  0.6987041103479585  0.7538254442168637  1.0000
  S   S61       1.0  0.1173762434773986  0.7150686497528997  0.7354633047384073  1.0000
  Fe  Fe32      1.0  0.03875686800985578  0.6972952126349979  0.828705426941519  1.0000
  S   S62       1.0  0.032866544036636025  0.7078232787608921  0.8961942236943676  1.0000
  S   S63       1.0  0.04586719100858572  0.6751099670181084  0.7133117928159777  1.0000
  S   S64       1.0  0.005522901835184113  0.673630273757909  0.7954595504161399  1.0000
  Fe  Fe33      1.0  0.550213756659473  0.9562460771574048  0.37083724620935105  1.0000
  S   S65       1.0  0.509456681107945  0.9759669678477555  0.3903376457790657  1.0000
  S   S66       1.0  0.573924688420961  0.9405900423698559  0.42631506590835244  1.0000
  Fe  Fe34      1.0  0.535494690725664  0.960821383751423  0.27975863105464194  1.0000
  S   S67       1.0  0.4933116309749086  0.9799580664037983  0.29265735677022897  1.0000
  S   S68       1.0  0.5455634254923233  0.9523584242561571  0.2128707208058436  1.0000
  Fe  Fe35      1.0  0.5158195559827208  0.006423815303796765  0.3392005072020107  1.0000
  S   S69       1.0  0.5010127904347111  0.05176530593546702  0.3451152341494701  1.0000
  Fe  Fe36      1.0  0.49142846407166935  0.9477468975730675  0.3422842879656347  1.0000
  S   S70       1.0  0.4542786590338292  0.9229372547011757  0.3591009380306165  1.0000
  S   S71       1.0  0.5586763739746347  0.9893884798704015  0.32343306647763154  1.0000
  S   S72       1.0  0.5317488874152502  0.9259633626269921  0.3254330384370011  1.0000
  Fe  Fe37      1.0  0.6724573469544213  0.8411345611704212  0.5458919455093346  1.0000
  S   S73       1.0  0.6911964482354028  0.8807615065360256  0.5225645913960273  1.0000
  S   S74       1.0  0.6324449560395998  0.8361571955108473  0.5804760233237777  1.0000
  Fe  Fe38      1.0  0.7184431135946534  0.8040303061651404  0.5092874333432003  1.0000
  S   S75       1.0  0.7412914372849455  0.8400592231320118  0.4821937126479897  1.0000
  S   S76       1.0  0.726226273867202  0.7583883356242012  0.49583727790190485  1.0000
  Fe  Fe39      1.0  0.7316430919272611  0.8610881129514266  0.5433678025613004  1.0000
  S   S77       1.0  0.7604637702249195  0.888692188391604  0.579255198031295  1.0000
  Fe  Fe40      1.0  0.6987198910666556  0.8562309999404851  0.463936764644839  1.0000
  S   S78       1.0  0.6854539914977006  0.8700835827807302  0.40069735907218124  1.0000
  S   S79       1.0  0.7123301103858097  0.8234031076242011  0.5720591802127147  1.0000
  S   S80       1.0  0.6768000461638346  0.8185194936993884  0.48575935933745307  1.0000
  Fe  Fe41      1.0  0.42894489256141416  0.7658533069149043  0.522000500854647  1.0000
  S   S81       1.0  0.466385036122767  0.7801156977420927  0.5565306142894255  1.0000
  S   S82       1.0  0.4346831735057562  0.7273494957093971  0.48197358615163066  1.0000
  Fe  Fe42      1.0  0.39344835266867906  0.815634412150549  0.5506991985423767  1.0000
  S   S83       1.0  0.42810765966189945  0.8347550820070931  0.5877137454156288  1.0000
  S   S84       1.0  0.35250285116808217  0.8392366800883908  0.5440192792013847  1.0000
  Fe  Fe43      1.0  0.45465957881623276  0.8229069780553278  0.5333316500035491  1.0000
  S   S85       1.0  0.4902472846986464  0.8483212309498087  0.5111029030669686  1.0000
  Fe  Fe44      1.0  0.4368941386660418  0.7904543613164943  0.6080995930657306  1.0000
  S   S86       1.0  0.4494921147694225  0.7798659123577985  0.6731906532974689  1.0000
  S   S87       1.0  0.4193026759810508  0.8079105049035795  0.49409215111694926  1.0000
  S   S88       1.0  0.3999366113384229  0.771922615310212  0.5758257816018051  1.0000
  Fe  Fe45      1.0  0.5924510484206975  0.710148644549288  0.41957368293812874  1.0000
  S   S89       1.0  0.5944219606131305  0.7374749198707505  0.36390475782510345  1.0000
  S   S90       1.0  0.6004841011956209  0.7271707095570237  0.4831073248037865  1.0000
  Fe  Fe46      1.0  0.5683457920345233  0.660661631355722  0.37246296360022796  1.0000
  S   S91       1.0  0.5668914926080546  0.6835937559573776  0.31187561098142347  1.0000
  S   S92       1.0  0.5570520770690006  0.6170512204162887  0.39183930989715077  1.0000
  Fe  Fe47      1.0  0.6093789716967504  0.6982871156660553  0.33061413905783066  1.0000
  S   S93       1.0  0.6455680005437731  0.6968046057262953  0.28662080392309297  1.0000
  Fe  Fe48      1.0  0.5521164023593348  0.7210718398522872  0.34967893795201765  1.0000
  S   S94       1.0  0.5182209811295933  0.7532209703102625  0.3382143490126912  1.0000
  S   S95       1.0  0.6120377561955939  0.6724224574923227  0.38826213168095175  1.0000
  S   S96       1.0  0.5491073569764843  0.6966752312093892  0.40800711969946807  1.0000
  Fe  Fe49      1.0  0.3621821266392836  0.39088997981907947  0.13187032203034801  1.0000
  S   S97       1.0  0.38964555363096265  0.37719117279219333  0.07918944150337612  1.0000
  S   S98       1.0  0.31556059014527754  0.3947201458176201  0.12961214763675677  1.0000
  Fe  Fe50      1.0  0.4102883996332559  0.4000043591177519  0.19010906604009725  1.0000
  S   S99       1.0  0.442326994251618  0.3866706680223292  0.14347892525381803  1.0000
  S   S100      1.0  0.4253147883731871  0.4167724255574759  0.2506021537984134  1.0000
  Fe  Fe51      1.0  0.416846777301628  0.4126444659079942  0.09940014603063205  1.0000
  S   S101      1.0  0.4354915684108075  0.44417775847508656  0.05691748327483803  1.0000
  Fe  Fe52      1.0  0.41283479336492457  0.3524112077712622  0.12768075977314056  1.0000
  S   S102      1.0  0.4298419395937852  0.30915764501162374  0.11227973120184545  1.0000
  S   S103      1.0  0.38704542672511066  0.42891507168904  0.14750912325061644  1.0000
  S   S104      1.0  0.3830035670403802  0.36306722713099354  0.17901770068786882  1.0000
  Fe  Fe53      1.0  0.5838170041622275  0.47835303650874983  0.2838221794001027  1.0000
  S   S105      1.0  0.56475214359167  0.4481315096279721  0.32778061536919384  1.0000
  S   S106      1.0  0.5627570928500372  0.5179888160440126  0.260205257147773  1.0000
  Fe  Fe54      1.0  0.6330257958540702  0.43906698181844994  0.26589194396868343  1.0000
  S   S107      1.0  0.6184207549983143  0.4056080939126775  0.3081956257084011  1.0000
  S   S108      1.0  0.6722577563274044  0.4306375877778028  0.23011182571402555  1.0000
  Fe  Fe55      1.0  0.5766335301259577  0.4150223144787198  0.28070065543034944  1.0000
  S   S109      1.0  0.5512512341755729  0.3783450490742726  0.2605135762389308  1.0000
  Fe  Fe56      1.0  0.6083654150269082  0.44134768968982846  0.3517460178141262  1.0000
  S   S110      1.0  0.6137672014294576  0.43776770980144186  0.4207907707345228  1.0000
  S   S111      1.0  0.591741589796528  0.44571206426769905  0.23467843485771372  1.0000
  S   S112      1.0  0.6267421165396085  0.47462654501024554  0.3116639535153169  1.0000
  Fe  Fe57      1.0  0.5605109783474431  0.1880223262147058  0.2690877999300301  1.0000
  S   S113      1.0  0.5900047065794144  0.22397790347605778  0.2649896445456456  1.0000
  S   S114      1.0  0.5793389247646273  0.14435774657070236  0.27442342603589853  1.0000
  Fe  Fe58      1.0  0.5094756738676732  0.22582243310361513  0.2619345119849841  1.0000
  S   S115      1.0  0.5343870890982592  0.26460518478296857  0.2554734037334113  1.0000
  S   S116      1.0  0.4635329854220395  0.2342571953861764  0.2650602949716033  1.0000
  Fe  Fe59      1.0  0.5617157028703311  0.23856996851656634  0.21394427492220575  1.0000
  S   S117      1.0  0.5769031255115318  0.2613498003281491  0.1585227134261865  1.0000
  Fe  Fe60      1.0  0.5599756430134316  0.2466787990589832  0.3071346739339994  1.0000
  S   S118      1.0  0.5721037493896826  0.2748410352550701  0.3600531798607721  1.0000
  S   S119      1.0  0.5341538659502094  0.201106151983064  0.21451753356593917  1.0000
  S   S120      1.0  0.5331909308777575  0.20937978722401884  0.3167543005101421  1.0000
  Fe  Fe61      1.0  0.7533743715587106  0.3236177971490225  0.0567860747929592  1.0000
  S   S121      1.0  0.7247882920940796  0.34175288098175943  0.008073788143685423  1.0000
  S   S122      1.0  0.7931238024524658  0.34239005911043313  0.07927009283623114  1.0000
  Fe  Fe62      1.0  0.7152222097544985  0.2758053999230064  0.07704553274074853  1.0000
  S   S123      1.0  0.6840096186950766  0.288986669301277  0.029286957650565437  1.0000
  S   S124      1.0  0.7039107487924198  0.24040021977181514  0.11858618931246252  1.0000
  Fe  Fe63      1.0  0.7205239055492155  0.2964043058747847  0.9887792398424744  1.0000
  S   S125      1.0  0.7195535568191063  0.2806712491990699  0.9231105067100805  1.0000
  Fe  Fe64      1.0  0.6909993745139889  0.33246824128347663  0.05335264385608319  1.0000
  S   S126      1.0  0.6524380584992217  0.35754965620991647  0.06900505791671101  1.0000
  S   S127      1.0  0.7516844839853967  0.27873371944340536  0.034338153867199184  1.0000
  S   S128      1.0  0.7199173242178467  0.31884619440908635  0.10396911447961651  1.0000
  Fe  Fe65      1.0  0.7382947064968274  0.35971022097890754  0.6181665190875382  1.0000
  S   S129      1.0  0.747033334879404  0.3272178328696  0.5693242087421525  1.0000
  S   S130      1.0  0.7709368693218929  0.39091079849075067  0.6346273912432235  1.0000
  Fe  Fe66      1.0  0.6819590298544348  0.33623534747214345  0.6372927383639558  1.0000
  S   S131      1.0  0.6861371481244476  0.30135290430367107  0.5901462638964555  1.0000
  S   S132      1.0  0.6420221123770792  0.33877364130352566  0.6727260527857728  1.0000
  Fe  Fe67      1.0  0.7298038685349123  0.2968477429925131  0.6143493988668416  1.0000
  S   S133      1.0  0.7549812154597275  0.25730451629648904  0.6262123488750657  1.0000
  Fe  Fe68      1.0  0.7027103444920123  0.33523534857637227  0.5499615533728898  1.0000
  S   S134      1.0  0.6935040766317832  0.3383025488964089  0.48207588300788945  1.0000
  S   S135      1.0  0.7242786193857763  0.32877158653808086  0.6651530553487488  1.0000
  S   S136      1.0  0.695227522666454  0.3706418399570142  0.5951888742533162  1.0000
  Fe  Fe69      1.0  0.6120027222821921  0.19928229891456256  0.8240855806823826  1.0000
  S   S137      1.0  0.6342366728866237  0.1579789646077605  0.811258467040755  1.0000
  S   S138      1.0  0.6058731968060824  0.2217929058803907  0.8846128901195798  1.0000
  Fe  Fe70      1.0  0.6051968236034849  0.21390858631585427  0.7344674892045477  1.0000
  S   S139      1.0  0.6266306085576533  0.17441397388334257  0.7120965380895018  1.0000
  S   S140      1.0  0.5920809450451164  0.2519005030768778  0.6985650618992199  1.0000
  Fe  Fe71      1.0  0.6021551957014625  0.15290230609001526  0.7612048319190969  1.0000
  S   S141      1.0  0.5860077021046985  0.11082123360050948  0.7406259048076232  1.0000
  Fe  Fe72      1.0  0.6570277214722994  0.18182129430600977  0.7631415441468046  1.0000
  S   S142      1.0  0.7025699941734066  0.17375102390884414  0.7534119905226968  1.0000
  S   S143      1.0  0.5773704410203514  0.19215601651960174  0.7787126644001353  1.0000
  S   S144      1.0  0.6381468456744945  0.2235192594742837  0.7808202005104556  1.0000
  Fe  Fe73      1.0  0.5590111190664898  0.4273198849048005  0.9215264307248676  1.0000
  S   S145      1.0  0.5215249982336398  0.43474399968195904  0.8813310543491267  1.0000
  S   S146      1.0  0.5570799562397202  0.41960111041924714  0.9898372246034165  1.0000
  Fe  Fe74      1.0  0.5986482133254574  0.4267334869391577  0.849461068532156  1.0000
  S   S147      1.0  0.5648432025066861  0.4348821898766405  0.8028366868590089  1.0000
  S   S148      1.0  0.6429082529687491  0.41795872822605873  0.8306476893739084  1.0000
  Fe  Fe75      1.0  0.5479349259916241  0.4661290857349443  0.8492233626870102  1.0000
  S   S149      1.0  0.5266927847128363  0.5065015978714025  0.8283298556808197  1.0000
  Fe  Fe76      1.0  0.5415380732440124  0.402997926195012  0.8385630424890911  1.0000
  S   S150      1.0  0.5160460413395636  0.36886837203426004  0.810060676697583  1.0000
  S   S151      1.0  0.5842134891286793  0.46126229007003655  0.8930090213273021  1.0000
  S   S152      1.0  0.5766023673124223  0.39240769858702806  0.8817125250701023  1.0000
  Fe  Fe77      1.0  0.4806314167955588  0.34020133368798605  0.588238098722149  1.0000
  S   S153      1.0  0.4566850454214156  0.3074648232480256  0.6217020979706492  1.0000
  S   S154      1.0  0.512016309084835  0.36965126713758256  0.6152553992609848  1.0000
  Fe  Fe78      1.0  0.45943879232013074  0.3215905737431488  0.5046140629727811  1.0000
  S   S155      1.0  0.43357955396537784  0.2872104918592411  0.530193898898586  1.0000
  S   S156      1.0  0.46170229070067587  0.3276683330898265  0.4364140578819864  1.0000
  Fe  Fe79      1.0  0.4217785294834843  0.31960315137673606  0.5785431160947327  1.0000
  S   S157      1.0  0.3784888502109085  0.3254090919074211  0.6040458480903774  1.0000
  Fe  Fe80      1.0  0.47064720314999087  0.2783847208197439  0.5705480002671696  1.0000
  S   S158      1.0  0.4892276594350034  0.23519938370708893  0.5800611105602471  1.0000
  S   S159      1.0  0.4445268810330823  0.3549964140235384  0.5491799065713249  1.0000
  S   S160      1.0  0.49755243074287026  0.30992802717899914  0.540693071753194  1.0000
  Fe  Fe81      1.0  0.19188086810164984  0.8260352363395772  0.08115949360524546  1.0000
  S   S161      1.0  0.2092196886734008  0.8672829124456571  0.06239242434553633  1.0000
  S   S162      1.0  0.15238181794881278  0.8122108223535757  0.050163292408202054  1.0000
  Fe  Fe82      1.0  0.2387547745795696  0.8144340554283745  0.14119048793783548  1.0000
  S   S163      1.0  0.2601814797571167  0.8548722945807166  0.12758934130637076  1.0000
  S   S164      1.0  0.25964952703570326  0.7858441185700679  0.18740158808377724  1.0000
  Fe  Fe83      1.0  0.21710903367288126  0.8739674782397047  0.12976541162115943  1.0000
  S   S165      1.0  0.2063652994192158  0.9167411858405675  0.15589111644890016  1.0000
  Fe  Fe84      1.0  0.25046032005673224  0.844541787055692  0.06148026343163946  1.0000
  S   S166      1.0  0.279169085906469  0.8550970266411623  0.00952402297073496  1.0000
  S   S167      1.0  0.19621946359760437  0.8345226041583378  0.14914014814616355  1.0000
  S   S168      1.0  0.23271377005802305  0.8022949324068227  0.07447869809075836  1.0000
  Fe  Fe85      1.0  0.0845681222270762  0.6736301019524819  0.2541575877253965  1.0000
  S   S169      1.0  0.05684351370289775  0.712452442222143  0.2525324213926909  1.0000
  S   S170      1.0  0.06998075731674523  0.6294495613878562  0.2425938704036696  1.0000
  Fe  Fe86      1.0  0.13721106897048538  0.7065750588354176  0.26742692606624785  1.0000
  S   S171      1.0  0.11472855211922163  0.7483549182036503  0.2671036631721233  1.0000
  S   S172      1.0  0.1830046051537198  0.7008276449084779  0.28028853219317645  1.0000
  Fe  Fe87      1.0  0.08282489592355355  0.7273815095814631  0.30568107547875867  1.0000
  S   S173      1.0  0.06481165136739908  0.7488137779041959  0.36191171853993115  1.0000
  Fe  Fe88      1.0  0.09066051181441286  0.7303416837723481  0.2140101873460965  1.0000
  S   S174      1.0  0.08093603017752127  0.7590821349654594  0.16125577481530926  1.0000
  S   S175      1.0  0.10757457957776544  0.6869093108949359  0.31118713648132446  1.0000
  S   S176      1.0  0.1162651102400551  0.6902933741407181  0.21033100459714674  1.0000
  Fe  Fe89      1.0  0.0434545780808937  0.9809109862536819  0.3476077312619471  1.0000
  S   S177      1.0  0.02927519148116331  0.01319993979100298  0.301513122891066  1.0000
  S   S178      1.0  0.03394420035888812  0.9835414293675504  0.4151827990821005  1.0000
  Fe  Fe90      1.0  0.07980268831426485  0.948682553757576  0.28595120469942337  1.0000
  S   S179      1.0  0.06925102479975109  0.9783912739260991  0.23435900919109584  1.0000
  S   S180      1.0  0.10832024687059905  0.9104341900732342  0.28387382539000044  1.0000
  Fe  Fe91      1.0  0.07403245789381807  0.012318306492022701  0.28213667186864705  1.0000
  S   S181      1.0  0.09711505989142721  0.05162930062613591  0.2688393923852823  1.0000
  Fe  Fe92      1.0  0.025594392246386377  0.9761017009993145  0.25834020245773137  1.0000
  S   S182      1.0  0.9888119034286239  0.9710997813543404  0.2161769546450518  1.0000
  S   S183      1.0  0.08863308207841825  0.9829461586876242  0.3316673502865297  1.0000
  S   S184      1.0  0.035751395850055934  0.9436596083670366  0.30640960757561064  1.0000
  Fe  Fe93      1.0  0.9535924252618464  0.8273105998200692  0.9822317293759776  1.0000
  S   S185      1.0  0.9198425361029511  0.8028750825923747  0.012375880962668175  1.0000
  S   S186      1.0  0.9690070349383917  0.8249766026569982  0.9170930860157004  1.0000
  Fe  Fe94      1.0  0.9746859793913505  0.8518403310729221  0.06285015062454626  1.0000
  S   S187      1.0  0.9426145599603516  0.8305468623453073  0.10066560396615705  1.0000
  S   S188      1.0  0.012816376193593548  0.8726932637437793  0.08731972955772131  1.0000
  Fe  Fe95      1.0  0.9520572001674628  0.792797417038555  0.060634166460334385  1.0000
  S   S189      1.0  0.9598395059383935  0.7501844243190818  0.08840452470793154  1.0000
  Fe  Fe96      1.0  0.9127900719705652  0.842649778991737  0.0497777010841507  1.0000
  S   S190      1.0  0.8704002317425662  0.8601198693423413  0.06781114972232705  1.0000
  S   S191      1.0  0.9863917620209077  0.8131724237244052  0.026679019302911392  1.0000
  S   S192      1.0  0.9441402769565173  0.8680649257738751  0.015623578920080485  1.0000
  Fe  Fe97      1.0  0.24544472536033177  0.2862174336786698  0.4953913492979983  1.0000
  S   S193      1.0  0.2236023719148827  0.2981716464340305  0.5544160541968723  1.0000
  S   S194      1.0  0.2848430168814923  0.3042320004326255  0.4711778189363764  1.0000
  Fe  Fe98      1.0  0.201916968523751  0.24443343386473837  0.4699711857140304  1.0000
  S   S195      1.0  0.17652919155432495  0.25190416500703555  0.5269967639335491  1.0000
  S   S196      1.0  0.18624782197601317  0.21713230303801329  0.4187180163021838  1.0000
  Fe  Fe99      1.0  0.18455797321794734  0.29735834698476954  0.5160179263104372  1.0000
  S   S197      1.0  0.14773264160806743  0.3272085255625897  0.5188636659174647  1.0000
  Fe  Fe100     1.0  0.21762422412261478  0.2514861494072731  0.5597702600452753  1.0000
  S   S198      1.0  0.2243094467649555  0.22967504646263853  0.6202656913356538  1.0000
  S   S199      1.0  0.20705781698801148  0.29001479425050203  0.45629068556512586  1.0000
  S   S200      1.0  0.24258677359673872  0.23951751697325072  0.5036054232006438  1.0000
  Fe  Fe101     1.0  0.09680497968805409  0.45634595797343375  0.3000402797130284  1.0000
  S   S201      1.0  0.12837226482339234  0.4825893596112708  0.3328371407335927  1.0000
  S   S202      1.0  0.10111926901603337  0.44872086762438707  0.23204664185942528  1.0000
  Fe  Fe102     1.0  0.06683044977278407  0.4417865761813784  0.3788115735328417  1.0000
  S   S203      1.0  0.09599495123770004  0.4663446486852734  0.4186667273800526  1.0000
  S   S204      1.0  0.029826814733596274  0.4185147169628452  0.40191950821755984  1.0000
  Fe  Fe103     1.0  0.09193171409659445  0.4992267553262307  0.36950554467812674  1.0000
  S   S205      1.0  0.08632429449419986  0.5443730516730428  0.3904773405543321  1.0000
  Fe  Fe104     1.0  0.12948785095276616  0.44741770749322074  0.37837990107379654  1.0000
  S   S206      1.0  0.16995587650033447  0.4287364478229547  0.4009428808756999  1.0000
  S   S207      1.0  0.05996436255720128  0.47616230490046396  0.3323832202894173  1.0000
  S   S208      1.0  0.10072390134325794  0.4197548424059245  0.3428278323747753  1.0000
  Fe  Fe105     1.0  0.9714498362026833  0.3155071311735064  0.594742423450787  1.0000
  S   S209      1.0  0.963579339589305  0.3517132448173625  0.5522918993607736  1.0000
  S   S210      1.0  0.9932159070790915  0.27539416427508334  0.5745707196786294  1.0000
  Fe  Fe106     1.0  0.9462826066874565  0.3461681855821088  0.6681333815746333  1.0000
  S   S211      1.0  0.9361130515533412  0.38571219250779026  0.6328628965864179  1.0000
  S   S212      1.0  0.9390205424246381  0.33929486249621754  0.7355919198487274  1.0000
  Fe  Fe107     1.0  0.9219603208443041  0.35555839241621723  0.5834542511092651  1.0000
  S   S213      1.0  0.8839145701075459  0.3604268874480195  0.5432722075968609  1.0000
  Fe  Fe108     1.0  0.9784496876521273  0.3786492799164651  0.6046897813011435  1.0000
  S   S214      1.0  0.01006473115190376  0.41214083702704657  0.594328217845692  1.0000
  S   S215      1.0  0.9284751262069582  0.31656017426746236  0.6212258372067346  1.0000
  S   S216      1.0  0.9900378152982054  0.34190386147380863  0.6448109997023482  1.0000
  Fe  Fe109     1.0  0.015526519074410716  0.2037860069367783  0.28273968748896267  1.0000
  S   S217      1.0  0.9955382141644045  0.1810809433990378  0.3348178363513713  1.0000
  S   S218      1.0  0.010485123329496249  0.1888946449810515  0.2172000249410875  1.0000
  Fe  Fe110     1.0  0.04797267574160213  0.24191212705754098  0.3393316393620612  1.0000
  S   S219      1.0  0.03152897502993901  0.22221965282739162  0.3962278783103487  1.0000
  S   S220      1.0  0.07696217837535668  0.2772398510997967  0.3514876764722192  1.0000
  Fe  Fe111     1.0  0.03822142563523734  0.18112015954449248  0.36305509419788135  1.0000
  S   S221      1.0  0.05444230979650411  0.14301956967139257  0.39700540209070717  1.0000
  Fe  Fe112     1.0  0.990480981343064  0.2241487861964353  0.3633149207559151  1.0000
  S   S222      1.0  0.9525331984632197  0.24055216067841523  0.3967789219204121  1.0000
  S   S223      1.0  0.05880291088758072  0.20052796193191588  0.3088030564516329  1.0000
  S   S224      1.0  0.006485320056929478  0.24723105106747537  0.30839372866932235  1.0000
  Fe  Fe113     1.0  0.49399946965308045  0.8071386378153312  0.011878653355472002  1.0000
  S   S225      1.0  0.45778029012621  0.8192714159541277  0.9714162829587855  1.0000
  S   S226      1.0  0.5328764053692624  0.7851239530746592  0.9886260664056192  1.0000
  Fe  Fe114     1.0  0.471092549730394  0.8395974978878282  0.08640555676149184  1.0000
  S   S227      1.0  0.4333128968691734  0.855595120435658  0.051925415104713046  1.0000
  S   S228      1.0  0.47613067443697354  0.8474305873565866  0.1546244616273911  1.0000
  Fe  Fe115     1.0  0.43155423334071746  0.8113288496825174  0.027091407068924322  1.0000
  S   S229      1.0  0.3926004175783527  0.7859026672147446  0.026891082659871612  1.0000
  Fe  Fe116     1.0  0.46319416081314896  0.8621904821040305  0.9997018941437019  1.0000
  S   S230      1.0  0.4664236798221017  0.89956928800255  0.9581271768962069  1.0000
  S   S231      1.0  0.4675162135122356  0.7947557161373213  0.06516911798296948  1.0000
  S   S232      1.0  0.5011201828091476  0.8505161127033287  0.03684476964251493  1.0000
  Fe  Fe117     1.0  0.6806538880728099  0.8050434771060512  0.12315564961660219  1.0000
  S   S233      1.0  0.695594990483276  0.7643155911635284  0.0944253948630549  1.0000
  S   S234      1.0  0.6585227612737898  0.8085596561644639  0.18430366611164073  1.0000
  Fe  Fe118     1.0  0.6917485598277573  0.8387345737391932  0.045314430836304265  1.0000
  S   S235      1.0  0.7073015938384217  0.8008790177080883  0.009845252596015541  1.0000
  S   S236      1.0  0.6858758541114841  0.8823092553319041  0.019376014973062627  1.0000
  Fe  Fe119     1.0  0.671741804461467  0.7786653073358397  0.03865777062161091  1.0000
  S   S237      1.0  0.640066606860874  0.7509890214207974  0.009144778395397735  1.0000
  Fe  Fe120     1.0  0.7299970697340533  0.7901210574965142  0.06868130081359625  1.0000
  S   S238      1.0  0.7737102125761111  0.7725479391564388  0.06258007204544813  1.0000
  S   S239      1.0  0.6541179715434573  0.8175597970773846  0.0690582704022078  1.0000
  S   S240      1.0  0.7172442922085973  0.8300379361907864  0.10234313042575098  1.0000
  Fe  Fe121     1.0  0.5741095305865552  0.696518075741884  0.7208713170273818  1.0000
  S   S241      1.0  0.5501046581067531  0.6617547196966205  0.7495281907628037  1.0000
  S   S242      1.0  0.5662801022644098  0.7173434516118707  0.6601591834456076  1.0000
  Fe  Fe122     1.0  0.6109073160880296  0.7053221191053577  0.7954406180320434  1.0000
  S   S243      1.0  0.5904480708746848  0.6713038145904496  0.8313244747887194  1.0000
  S   S244      1.0  0.6455051964555915  0.7334398705593043  0.8159204317113579  1.0000
  Fe  Fe123     1.0  0.5920329155993485  0.6464431776215208  0.7722347801505636  1.0000
  S   S245      1.0  0.6085021236478005  0.6017696552663034  0.7750706970425881  1.0000
  Fe  Fe124     1.0  0.5504518169625018  0.6896224443237352  0.8060512666724666  1.0000
  S   S246      1.0  0.5118536614247222  0.6977793098947792  0.8438353875610408  1.0000
  S   S247      1.0  0.6160927368941471  0.6789049311839284  0.7382642061678368  1.0000
  S   S248      1.0  0.5707068599903847  0.7256753165758856  0.7753547590463913  1.0000
  Fe  Fe125     1.0  0.6058692203056318  0.9405396485073204  0.7381306742501645  1.0000
  S   S249      1.0  0.6363226476485794  0.9615301515506869  0.7804838664388641  1.0000
  S   S250      1.0  0.605685308552385  0.9507686706762238  0.6705572842475341  1.0000
  Fe  Fe126     1.0  0.5812797456125114  0.9057757481318124  0.8057921661138632  1.0000
  S   S251      1.0  0.6083865827198569  0.9244616268101773  0.8547562852528574  1.0000
  S   S252      1.0  0.5558035888368432  0.8685403392065384  0.8221457921457345  1.0000
  Fe  Fe127     1.0  0.5996904707062152  0.9656362993799376  0.8230087141014731  1.0000
  S   S253      1.0  0.5936551893543804  0.005767708683756423  0.8597904310785256  1.0000
  Fe  Fe128     1.0  0.6425697256020945  0.9188338677849446  0.808481308579474  1.0000
  S   S254      1.0  0.6829355878533387  0.8970920186200797  0.8255717585489132  1.0000
  S   S255      1.0  0.5684842555156863  0.9475913723629305  0.7786780625279496  1.0000
  S   S256      1.0  0.6161706908626514  0.8972246920057171  0.7616135545104636  1.0000
  C   C1        1.0  0.6846151413886553  0.8931500166412977  0.8793669104141171  1.0000
  C   C2        1.0  0.6975064909418921  0.8691275136846685  0.896444785513611  1.0000
  C   C3        1.0  0.697723581286599  0.8653622645142681  0.9394257227251855  1.0000
  C   C4        1.0  0.6853767284377863  0.8858111657360395  0.9654039240604816  1.0000
  C   C5        1.0  0.6730831201247273  0.910100102043607  0.9483133569640059  1.0000
  C   C6        1.0  0.6725101177093302  0.913668659478761  0.9053890300369613  1.0000
  H   H1        1.0  0.7069313231487602  0.8532208495028796  0.8763733964618866  1.0000
  H   H2        1.0  0.7075063064341949  0.8466739808407342  0.9522234092793299  1.0000
  H   H3        1.0  0.663943845213447  0.9262133674606504  0.9683073884186442  1.0000
  H   H4        1.0  0.663221866290687  0.9326353449522065  0.8924530579754049  1.0000
  C   C7        1.0  0.6439030997453579  0.7442070802303843  0.956127368519855  1.0000
  C   C8        1.0  0.6660402524127426  0.7549079500750904  0.9335239839827667  1.0000
  C   C9        1.0  0.6667959493665209  0.7514557915806754  0.8903527146315342  1.0000
  C   C10       1.0  0.6455971717458701  0.737000840810605  0.8699541038093006  1.0000
  C   C11       1.0  0.6239251133335056  0.7259803811092518  0.8928164323456818  1.0000
  C   C12       1.0  0.6230984010865217  0.7294074355710316  0.9357198423441672  1.0000
  H   H5        1.0  0.6824602501118539  0.7659372599495463  0.9491156801065945  1.0000
  H   H6        1.0  0.6837864828893084  0.7598718277213091  0.872843920608403  1.0000
  H   H7        1.0  0.607475272135316  0.7152260789237923  0.8774096935197263  1.0000
  H   H8        1.0  0.6059307470719931  0.721102286538272  0.9530044525179729  1.0000
  C   C13       1.0  0.5264747975996009  0.7611408309394011  0.9482593563910703  1.0000
  C   C14       1.0  0.5487090611407389  0.751291264643956  0.9238569790527743  1.0000
  C   C15       1.0  0.544119119201092  0.7321249732029269  0.8914299253963094  1.0000
  C   C16       1.0  0.517387951008341  0.722341922101708  0.883738343730732  1.0000
  C   C17       1.0  0.4950589097138384  0.7322222815728284  0.9080241789266499  1.0000
  C   C18       1.0  0.49955732676442555  0.7517938573718475  0.9401043945262321  1.0000
  H   H9        1.0  0.5694913724378496  0.7584861305187203  0.9300886167671846  1.0000
  H   H10       1.0  0.5612377081288538  0.7248122978593204  0.8724040820611696  1.0000
  H   H11       1.0  0.47428054624327476  0.7247296816841222  0.9021414829491623  1.0000
  H   H12       1.0  0.4822761861547762  0.7592002984231162  0.9589847624902269  1.0000
  C   C19       1.0  0.4900219649963213  0.8905079997213166  0.9187289684299437  1.0000
  C   C20       1.0  0.49460417318692707  0.9091770148520311  0.8863532231396503  1.0000
  C   C21       1.0  0.5152556440424265  0.9028827750416837  0.8568154333853488  1.0000
  C   C22       1.0  0.5304373522153698  0.877372787848661  0.8588488867632426  1.0000
  C   C23       1.0  0.5253439302570819  0.8584457387020253  0.8905135934339438  1.0000
  C   C24       1.0  0.5056088579663541  0.8652532626367316  0.9208188190586641  1.0000
  H   H13       1.0  0.4822704387319835  0.9285226571445554  0.8843273109122181  1.0000
  H   H14       1.0  0.5189034466871704  0.91737874919877  0.8319184949362645  1.0000
  H   H15       1.0  0.5369495195796745  0.8386790893165281  0.8921311262694092  1.0000
  H   H16       1.0  0.5027660938632189  0.8509751105170326  0.9460104685713083  1.0000
  C   C25       1.0  0.9793412937198889  0.2637425502902587  0.5274500465605088  1.0000
  C   C26       1.0  0.9906932568743457  0.239583919738996  0.5082223849166251  1.0000
  C   C27       1.0  0.9812925644601899  0.23147009505101676  0.4689073407459793  1.0000
  C   C28       1.0  0.9609482517657216  0.2477837935974016  0.4484561725361581  1.0000
  C   C29       1.0  0.9486436553717796  0.27115387980413985  0.4685393330269063  1.0000
  C   C30       1.0  0.957781055653473  0.2790808305184086  0.5080930139808534  1.0000
  H   H17       1.0  0.0069506071049687534  0.2273136074723196  0.523406388435978  1.0000
  H   H18       1.0  0.9897748589794514  0.21256348502405673  0.4543711140460264  1.0000
  H   H19       1.0  0.9326276403203714  0.28359703568221317  0.453013893398361  1.0000
  H   H20       1.0  0.9483264808479861  0.2972608841384753  0.5232379189045234  1.0000
  C   C31       1.0  0.024746319371140357  0.41837580596950874  0.4555459702316629  1.0000
  C   C32       1.0  0.9981900585078533  0.41296395171850414  0.47069516764397284  1.0000
  C   C33       1.0  0.9935797640837886  0.41174017902065935  0.5133148770166699  1.0000
  C   C34       1.0  0.01553800811506778  0.41576699142766105  0.5410685605262084  1.0000
  C   C35       1.0  0.04201188804054201  0.42195848163431277  0.5260251070159356  1.0000
  C   C36       1.0  0.046668179335373594  0.423084802671598  0.4832234555599638  1.0000
  H   H21       1.0  0.9810638267649117  0.4097294787322046  0.449423591738537  1.0000
  H   H22       1.0  0.9728819892017203  0.4079351253783146  0.5246964627141377  1.0000
  H   H23       1.0  0.059124538284409445  0.4249185805339175  0.5473942302397378  1.0000
  H   H24       1.0  0.067361103572811  0.42673194125389113  0.47176764396408183  1.0000
  C   C37       1.0  0.15375113555043837  0.35600519186721413  0.48722358012656913  1.0000
  C   C38       1.0  0.1807274756983944  0.36094045100725874  0.47347482375029043  1.0000
  C   C39       1.0  0.18563297683628974  0.38365528824836126  0.44744831739771507  1.0000
  C   C40       1.0  0.16352530320820932  0.40127461370323686  0.43484747149439407  1.0000
  C   C41       1.0  0.13647321690189979  0.396352984419448  0.4485053331229059  1.0000
  C   C42       1.0  0.13160087600944484  0.37377619497075204  0.47493461058004366  1.0000
  H   H25       1.0  0.19779175952483868  0.3472883108623071  0.48316967000827654  1.0000
  H   H26       1.0  0.206396284070485  0.3873385934551959  0.43642049985522163  1.0000
  H   H27       1.0  0.11929790506139785  0.40987468685488687  0.4387611381599926  1.0000
  H   H28       1.0  0.11070883296202023  0.3699926613949475  0.4856432947166885  1.0000
  C   C43       1.0  0.15649763736917469  0.23443352760445607  0.39889883004589993  1.0000
  C   C44       1.0  0.1438323812836175  0.2245511405376256  0.36277153851276017  1.0000
  C   C45       1.0  0.11944898673620141  0.23789373210951983  0.3479414801217046  1.0000
  C   C46       1.0  0.10779126083004568  0.2611212382173359  0.36918079091099126  1.0000
  C   C47       1.0  0.12045643030639783  0.2710438794195457  0.4052023582349367  1.0000
  C   C48       1.0  0.14472544649515273  0.2576729371973021  0.4200494478793064  1.0000
  H   H29       1.0  0.15287789175197217  0.2066427085347529  0.3462271401802542  1.0000
  H   H30       1.0  0.10998852418585153  0.2305039307312354  0.3196203355838069  1.0000
  H   H31       1.0  0.11128088694396811  0.2886585270059983  0.422242938271089  1.0000
  H   H32       1.0  0.15390920167546523  0.2652089981837079  0.44833060984531065  1.0000
  C   C49       1.0  0.8434525655745776  0.8358594281355699  0.06591701353769364  1.0000
  C   C50       1.0  0.8205601552908774  0.839501018014156  0.09230557709162515  1.0000
  C   C51       1.0  0.7985493674259522  0.8205777739571892  0.09066524524179437  1.0000
  C   C52       1.0  0.7995473048427114  0.7978870831535999  0.06275802566161182  1.0000
  C   C53       1.0  0.8223023271191614  0.7944061303664371  0.036170811096458255  1.0000
  C   C54       1.0  0.8440989942710377  0.8135170843104522  0.037482992353116584  1.0000
  H   H33       1.0  0.8200333983459825  0.8567966893516827  0.1143889861851063  1.0000
  H   H34       1.0  0.7812199454698995  0.8230596239086259  0.11175519244280005  1.0000
  H   H35       1.0  0.8229882999182415  0.7769448930959262  0.014363284602740833  1.0000
  H   H36       1.0  0.861156245255013  0.8111588274788943  0.01603653236697089  1.0000
  C   C55       1.0  0.08897026502673233  0.07673162429221914  0.30715466040758105  1.0000
  C   C56       1.0  0.07649821167288717  0.06853791095218842  0.3439694394424261  1.0000
  C   C57       1.0  0.06695792201001449  0.08902783121577551  0.372404858953735  1.0000
  C   C58       1.0  0.06942300814749136  0.1176754142337908  0.36365892257884325  1.0000
  C   C59       1.0  0.08298448915295875  0.12579024303096814  0.3276966860212148  1.0000
  C   C60       1.0  0.09308185074702524  0.10530661286807064  0.2996888310534701  1.0000
  H   H37       1.0  0.07351517777264993  0.04646575845742862  0.3502048410558094  1.0000
  H   H38       1.0  0.05663535594025859  0.08265035253204545  0.40035754632156056  1.0000
  H   H39       1.0  0.08575318415287136  0.1478177823972399  0.3214028375516015  1.0000
  H   H40       1.0  0.10303838705799628  0.11168464721566207  0.27146151963995463  1.0000
  C   C61       1.0  0.9948276035439074  0.9430416460052228  0.1812194163370341  1.0000
  C   C62       1.0  0.021132912697864548  0.9297858679573267  0.1791943553026754  1.0000
  C   C63       1.0  0.026474221954373878  0.9084380830911934  0.14996222663300285  1.0000
  C   C64       1.0  0.005261689758951693  0.8994063456019209  0.12364739799537147  1.0000
  C   C65       1.0  0.9786255209787873  0.9119547118933928  0.12631915322852985  1.0000
  C   C66       1.0  0.9735120838431419  0.9340479892552377  0.15480277459712372  1.0000
  H   H41       1.0  0.03747274590418592  0.936060959804653  0.1999393862399162  1.0000
  H   H42       1.0  0.047027838810364875  0.8988687747247941  0.1479343078326809  1.0000
  H   H43       1.0  0.9621072146141226  0.9049817218491097  0.1061015485758148  1.0000
  H   H44       1.0  0.9530659665613046  0.9441108333807865  0.15647139240672064  1.0000
  C   C67       1.0  0.07340032736671008  0.606027777785605  0.28416744292202434  1.0000
  C   C68       1.0  0.07424192514886196  0.5769067506490161  0.2763463337930658  1.0000
  C   C69       1.0  0.07820560479388393  0.5578318298736511  0.3088752421749433  1.0000
  C   C70       1.0  0.0809964380248301  0.5678506039643871  0.3494274929544814  1.0000
  C   C71       1.0  0.0798449570133624  0.5969499145968776  0.3573475045909387  1.0000
  C   C72       1.0  0.0761081522445577  0.6160148012219607  0.3247573685911313  1.0000
  H   H45       1.0  0.07210978444281689  0.5690822152237155  0.24498831933070636  1.0000
  H   H46       1.0  0.07910507609244238  0.5354020585497086  0.30247667827537855  1.0000
  H   H47       1.0  0.08184004796206303  0.6047723574794444  0.38870998258113515  1.0000
  H   H48       1.0  0.07482268173528706  0.6383972175096143  0.3311431076615828  1.0000
  C   C73       1.0  0.9920330977557922  0.7522630116892711  0.11387450462203585  1.0000
  C   C74       1.0  0.006124133747064775  0.7280480407501766  0.128234379520826  1.0000
  C   C75       1.0  0.03313015411119036  0.7300944035712464  0.1449207168501061  1.0000
  C   C76       1.0  0.04606825109816004  0.7562442385454906  0.1462414435663311  1.0000
  C   C77       1.0  0.03162321856702044  0.780340072710872  0.13276356696857647  1.0000
  C   C78       1.0  0.004544978889767126  0.7784272397239971  0.11750175547481097  1.0000
  H   H49       1.0  0.9964855269095133  0.7077232244187431  0.1257211324096824  1.0000
  H   H50       1.0  0.04429969798735289  0.7113316392622673  0.1552443606564614  1.0000
  H   H51       1.0  0.04131311638363422  0.8005913687226753  0.1337097407036412  1.0000
  H   H52       1.0  0.9935354412443652  0.7973806381448993  0.10830795641303066  1.0000
  C   C79       1.0  0.3104756941518174  0.8352264612383746  0.010810081416879225  1.0000
  C   C80       1.0  0.31057464411730207  0.8068951701522421  0.022331719882789706  1.0000
  C   C81       1.0  0.33587583500530266  0.7915841158550598  0.025334327763758102  1.0000
  C   C82       1.0  0.3611963112064953  0.804752666752599  0.018112804082171863  1.0000
  C   C83       1.0  0.36108198436572353  0.8329963039785716  0.00610386670125096  1.0000
  C   C84       1.0  0.33569279154973636  0.8481121520503101  0.0019279100940134963  1.0000
  H   H53       1.0  0.2911719541777466  0.7967708685667293  0.02895098895349757  1.0000
  H   H54       1.0  0.33587591481155415  0.7696523969102246  0.03424724790547873  1.0000
  H   H55       1.0  0.3805246620052918  0.8432000020752506  4.257460857126639e-05  1.0000
  H   H56       1.0  0.335668307509471  0.8700211172651026  0.9929166946822632  1.0000
  C   C85       1.0  0.2379007831218751  0.7612706906294373  0.21039159345879882  1.0000
  C   C86       1.0  0.24953140117463316  0.7421216249981047  0.23861755311835356  1.0000
  C   C87       1.0  0.23257871536993394  0.7231751853655326  0.2590947856365925  1.0000
  C   C88       1.0  0.20383818020581018  0.7233856657517942  0.2517146436760255  1.0000
  C   C89       1.0  0.19212281860744795  0.7422563353129845  0.22307428784804462  1.0000
  C   C90       1.0  0.20919302164396741  0.7611513120961836  0.20228026331909743  1.0000
  H   H57       1.0  0.2716985102717669  0.7420604931564839  0.24487219574284752  1.0000
  H   H58       1.0  0.24173635943470054  0.7085867168043124  0.28109165546788545  1.0000
  H   H59       1.0  0.16994651581350664  0.7423494726108125  0.21697313214480798  1.0000
  H   H60       1.0  0.20011155487961882  0.7756598834944717  0.1801933145437905  1.0000
  C   C91       1.0  0.1793345620467596  0.9148316397086609  0.1915963243357854  1.0000
  C   C92       1.0  0.17914004889263183  0.8932883149179863  0.22076250010731996  1.0000
  C   C93       1.0  0.15748948922234857  0.8923459081250312  0.2496303552955808  1.0000
  C   C94       1.0  0.1358237743937115  0.9126329150729797  0.2488433756735956  1.0000
  C   C95       1.0  0.13594476962962165  0.9339698443606654  0.21939845433009766  1.0000
  C   C96       1.0  0.15776639929073788  0.9351591230301777  0.19094900929624078  1.0000
  H   H61       1.0  0.19595911893493004  0.8776810906896122  0.22153834308212755  1.0000
  H   H62       1.0  0.1575170194415531  0.8758641630815055  0.27253526005732553  1.0000
  H   H63       1.0  0.1190971200961805  0.9493304780282925  0.21806802566096706  1.0000
  H   H64       1.0  0.15766992228730886  0.9514628684113198  0.1677855356794201  1.0000
  C   C97       1.0  0.35245389370437524  0.3213514418244201  0.5666334715291836  1.0000
  C   C98       1.0  0.32453623981899093  0.3208024748239484  0.5788526854323169  1.0000
  C   C99       1.0  0.30360894779366276  0.31511243190256333  0.5497848613367244  1.0000
  C   C100      1.0  0.31055611867232874  0.3108530020832834  0.5082418476000656  1.0000
  C   C101      1.0  0.33831240859650014  0.31268895394084123  0.4957536440993894  1.0000
  C   C102      1.0  0.35929520866299053  0.31768741416121754  0.5249789502596965  1.0000
  H   H65       1.0  0.319233900636908  0.3242308281573989  0.6110067105350195  1.0000
  H   H66       1.0  0.2821768773392836  0.3141992317749969  0.5595373710767322  1.0000
  H   H67       1.0  0.34370311093490236  0.30975625281964797  0.4635249689501515  1.0000
  H   H68       1.0  0.3807527176921529  0.318684402393718  0.5152365611625636  1.0000
  C   C103      1.0  0.5854344905053864  0.5751560989040454  0.7880530560052262  1.0000
  C   C104      1.0  0.5565725371116201  0.5793813730386144  0.7847489502195102  1.0000
  C   C105      1.0  0.5386225656366145  0.5579356860657928  0.7964616947637172  1.0000
  C   C106      1.0  0.549501787413692  0.5323949933345601  0.8118045142999469  1.0000
  C   C107      1.0  0.5783336309723512  0.5280162857867158  0.8144552624772187  1.0000
  C   C108      1.0  0.5962533398992659  0.5493426045701307  0.8024477566256314  1.0000
  H   H69       1.0  0.5481585985059312  0.5990405700710779  0.7728553562869824  1.0000
  H   H70       1.0  0.5163039866852237  0.5611495842679982  0.7937470249895586  1.0000
  H   H71       1.0  0.586893761334644  0.5082627055039005  0.8258704374287155  1.0000
  H   H72       1.0  0.6185940105701454  0.545936054368446  0.8046948042416028  1.0000
  C   C109      1.0  0.5154434862205217  0.36892028908728186  0.7559402249046552  1.0000
  C   C110      1.0  0.4928345992835012  0.35729587854636474  0.7350934008957588  1.0000
  C   C111      1.0  0.4917472158746767  0.3574274786925312  0.6918534640213455  1.0000
  C   C112      1.0  0.5134931310128346  0.36872175933229173  0.669295965412814  1.0000
  C   C113      1.0  0.5362713938768174  0.38016329120770015  0.6901407058087948  1.0000
  C   C114      1.0  0.5372419720147792  0.38026045349194676  0.7334537213038341  1.0000
  H   H73       1.0  0.47588812740715297  0.3485534712354375  0.7523774240003569  1.0000
  H   H74       1.0  0.47372998355547574  0.34938036104864656  0.6761331626263912  1.0000
  H   H75       1.0  0.5532469959261371  0.38880502954068563  0.6728100232834752  1.0000
  H   H76       1.0  0.5551677904844279  0.3884995214567691  0.7492631881759578  1.0000
  C   C115      1.0  0.5878971328146376  0.08217796946787459  0.7747551807221033  1.0000
  C   C116      1.0  0.5842196312423946  0.054921192443885936  0.7589136276953259  1.0000
  C   C117      1.0  0.5864536606822301  0.03145607111671378  0.7848356137374186  1.0000
  C   C118      1.0  0.5916370192528851  0.03516148876018632  0.8270472971469743  1.0000
  C   C119      1.0  0.595142241731791  0.06244204344131732  0.8430865296701154  1.0000
  C   C120      1.0  0.5935731248033804  0.0859345281549202  0.8168792915389098  1.0000
  H   H77       1.0  0.5797145765835482  0.0519058117525979  0.7263928163231967  1.0000
  H   H78       1.0  0.5836642142116898  0.010531504921152735  0.7721722229531798  1.0000
  H   H79       1.0  0.5991600606873095  0.06540627463782167  0.8757288594316437  1.0000
  H   H80       1.0  0.5962522514876032  0.10692566887417825  0.8293619874863049  1.0000
  C   C121      1.0  0.5625038580418062  0.24619453958528564  0.6682675506889985  1.0000
  C   C122      1.0  0.5555636671312072  0.21908851918398928  0.6549590481986409  1.0000
  C   C123      1.0  0.5328134555764406  0.21550265169957938  0.628050011769294  1.0000
  C   C124      1.0  0.5170211522280516  0.23900208652159838  0.6148953796949417  1.0000
  C   C125      1.0  0.5237875831456749  0.2659271180743742  0.6290987512722955  1.0000
  C   C126      1.0  0.5463558781754057  0.2694855646569544  0.6558558849083437  1.0000
  H   H81       1.0  0.5680134583146059  0.20098846983015378  0.6646585331846626  1.0000
  H   H82       1.0  0.527584387036624  0.19461300268996543  0.6172987218811837  1.0000
  H   H83       1.0  0.5117458208361434  0.28416260973303425  0.6194799326841688  1.0000
  H   H84       1.0  0.5514262629695358  0.29037610384560275  0.6666930460716377  1.0000
  C   C127      1.0  0.8024896867717525  0.3831898471429328  0.6092106558204349  1.0000
  C   C128      1.0  0.8278327130432187  0.3850307773390095  0.6305948034696127  1.0000
  C   C129      1.0  0.8530470731091011  0.37802222143664793  0.6106492189613189  1.0000
  C   C130      1.0  0.8529569957379609  0.37002102477207066  0.5689362281932565  1.0000
  C   C131      1.0  0.8276484694143976  0.36876521050851147  0.5473538148726089  1.0000
  C   C132      1.0  0.8024528557951442  0.3749875126119433  0.5675962619237663  1.0000
  H   H85       1.0  0.8279414525171521  0.3914588647157925  0.6627741083334278  1.0000
  H   H86       1.0  0.8725190990155065  0.3790323350969052  0.6274630180712604  1.0000
  H   H87       1.0  0.827551413949601  0.3626011386969409  0.5150698902406934  1.0000
  H   H88       1.0  0.7830346153509874  0.37371113721400784  0.5509090702483639  1.0000
  C   C133      1.0  0.6429313832830759  0.3605419044020392  0.7167289165634496  1.0000
  C   C134      1.0  0.6189969648481211  0.3636410560492398  0.7409540601846415  1.0000
  C   C135      1.0  0.6191309442681591  0.38089319078588457  0.7763324827070154  1.0000
  C   C136      1.0  0.6432353405940376  0.39515808293261495  0.7875726418395361  1.0000
  C   C137      1.0  0.6674394956155212  0.3914819220012503  0.7638914606193472  1.0000
  C   C138      1.0  0.6672623450504259  0.37426726155019396  0.728319678769069  1.0000
  H   H89       1.0  0.6002053408936671  0.35306609431462005  0.7318622940314701  1.0000
  H   H90       1.0  0.6004914351754989  0.38331407191402667  0.7946816613246791  1.0000
  H   H91       1.0  0.6860805610121723  0.40256299189072425  0.7724317862617479  1.0000
  H   H92       1.0  0.6857869788045741  0.3720499476739352  0.70957536357867  1.0000
  C   C139      1.0  0.7397189874543029  0.23442127251615558  0.6613185284945855  1.0000
  C   C140      1.0  0.7563423221910586  0.21339632718026197  0.6797696360843452  1.0000
  C   C141      1.0  0.744785880793717  0.19497699335258403  0.7081834352814732  1.0000
  C   C142      1.0  0.7164832444645389  0.19729650307740548  0.7179727427512684  1.0000
  C   C143      1.0  0.6997070445596343  0.21823808229667074  0.6993849207575505  1.0000
  C   C144      1.0  0.7113675874760841  0.23686956597149966  0.6710981563174839  1.0000
  H   H93       1.0  0.7782351938322235  0.21138688107595674  0.6722036332965804  1.0000
  H   H94       1.0  0.7577944859707015  0.17882223259917734  0.7224513328745711  1.0000
  H   H95       1.0  0.6777176361059317  0.21987290336899856  0.7063407303065735  1.0000
  H   H96       1.0  0.6983342483603799  0.25273819296442035  0.6562545406101808  1.0000
  C   C145      1.0  0.6878611880744364  0.2644500712194077  0.9129165468107653  1.0000
  C   C146      1.0  0.6875620676982341  0.2398688434752584  0.8887548394406549  1.0000
  C   C147      1.0  0.6623616583087848  0.22665357963650543  0.8804230834246836  1.0000
  C   C148      1.0  0.6373583062168251  0.2380849616673926  0.8959943636224649  1.0000
  C   C149      1.0  0.637585667685345  0.26269323393991423  0.9201483713485116  1.0000
  C   C150      1.0  0.6628324820887032  0.27598685731306133  0.9283814911105  1.0000
  H   H97       1.0  0.7068905034365826  0.23073680279943662  0.877045120461251  1.0000
  H   H98       1.0  0.6623930576205675  0.20734708455278564  0.862353430619807  1.0000
  H   H99       1.0  0.6182441007410415  0.2717208703590586  0.9319482530120174  1.0000
  H   H100      1.0  0.6628695172623522  0.29545436327594293  0.9460514348602515  1.0000
  C   C151      1.0  0.5418554742866262  0.2907209298409328  0.3808713208151984  1.0000
  C   C152      1.0  0.5162898146325359  0.28793107412927893  0.3606000169597727  1.0000
  C   C153      1.0  0.4919546350190954  0.2999689950322888  0.37739714898333443  1.0000
  C   C154      1.0  0.4928114770072411  0.31387090723646166  0.4155234377036307  1.0000
  C   C155      1.0  0.5183661708230362  0.31679961086949104  0.43606143925833646  1.0000
  C   C156      1.0  0.5429566415843794  0.30551293097104837  0.4184643012607161  1.0000
  H   H101      1.0  0.5149466482743634  0.27611591747847103  0.33220589350377117  1.0000
  H   H102      1.0  0.4722991348203903  0.2977653091228246  0.3612450836407258  1.0000
  H   H103      1.0  0.5193422236241592  0.32824277378794275  0.46497893126952305  1.0000
  H   H104      1.0  0.562724861298192  0.30783354629250814  0.43417089931293334  1.0000
  C   C157      1.0  0.612925007722206  0.25643240226028224  0.15251522058982322  1.0000
  C   C158      1.0  0.6282095999716668  0.2777131198170739  0.13448745170053084  1.0000
  C   C159      1.0  0.6567469528325498  0.273585305197053  0.12733244098230426  1.0000
  C   C160      1.0  0.6699647672825126  0.24777460819974712  0.13663380065279543  1.0000
  C   C161      1.0  0.6549332471433353  0.22692674590166423  0.15643988595660613  1.0000
  C   C162      1.0  0.6264067436537192  0.23130633800400577  0.16455860431426175  1.0000
  H   H105      1.0  0.6180252617485252  0.2973614828559115  0.12559425709131325  1.0000
  H   H106      1.0  0.6681875054734249  0.29020295590679823  0.11331218872112886  1.0000
  H   H107      1.0  0.6650738910855619  0.20703211898011414  0.1642029984776687  1.0000
  H   H108      1.0  0.6146565104721348  0.21479910638198857  0.17865841953273232  1.0000
  C   C163      1.0  0.6359038871051081  0.41005886939940206  0.43771003906796935  1.0000
  C   C164      1.0  0.6368346715859554  0.40323322469422934  0.47977660550609935  1.0000
  C   C165      1.0  0.6544451280683303  0.38119199710495405  0.4938008437901496  1.0000
  C   C166      1.0  0.670997908496696  0.36578249535645074  0.46572771701557275  1.0000
  C   C167      1.0  0.670153868260123  0.3726892778747962  0.42379368053108957  1.0000
  C   C168      1.0  0.6528694388646846  0.3949318626652756  0.409886896762405  1.0000
  H   H109      1.0  0.6239120888478786  0.4150410462149923  0.5014960681532903  1.0000
  H   H110      1.0  0.6551411950575341  0.3761451323059169  0.5262270751267674  1.0000
  H   H111      1.0  0.683145389848984  0.3610076883947341  0.40201763556539877  1.0000
  H   H112      1.0  0.6530334992148805  0.40057501637414245  0.3777194065798236  1.0000
  C   C169      1.0  0.6667957102864933  0.40960495308280437  0.1859538692304222  1.0000
  C   C170      1.0  0.6891771898175851  0.40259769571350656  0.15991542847330006  1.0000
  C   C171      1.0  0.6849212431372803  0.386233888313313  0.12418353669605836  1.0000
  C   C172      1.0  0.6581808022066005  0.3771972951629893  0.11417472709032214  1.0000
  C   C173      1.0  0.6358092806503624  0.3841297878335677  0.14013742381804178  1.0000
  C   C174      1.0  0.6402176053988492  0.3999140078081262  0.17630084837246418  1.0000
  H   H113      1.0  0.7098120314662003  0.40989052072226023  0.16733796390103994  1.0000
  H   H114      1.0  0.7022855030341766  0.3810700819187108  0.10407364412058422  1.0000
  H   H115      1.0  0.6151513450216652  0.37701287876844236  0.13256140069816344  1.0000
  H   H116      1.0  0.6230423501187967  0.40443593903159303  0.1966806871327533  1.0000
  C   C175      1.0  0.46891104676633727  0.4361287932419246  0.03767136778570457  1.0000
  C   C176      1.0  0.48586355084905136  0.41497736023013715  0.05529232772007053  1.0000
  C   C177      1.0  0.5131517652248824  0.4102507568249829  0.04092795135042837  1.0000
  C   C178      1.0  0.523244824595586  0.4261481255377254  0.00826685559378082  1.0000
  C   C179      1.0  0.5063173719649384  0.44722756359936533  0.990647482934947  1.0000
  C   C180      1.0  0.4792965864057305  0.45238302148362153  0.005615582393937446  1.0000
  H   H117      1.0  0.4780740655685687  0.4024032675145375  0.07999431753056019  1.0000
  H   H118      1.0  0.526297162266338  0.3939360595305937  0.05439113126124284  1.0000
  H   H119      1.0  0.5141648939921293  0.4598669900684675  0.9658534513292673  1.0000
  H   H120      1.0  0.46633917893188453  0.4689014870161942  0.9921237630921315  1.0000
  C   C181      1.0  0.4403699637133751  0.28942986030733553  0.15528170306794695  1.0000
  C   C182      1.0  0.4543624481967474  0.2635288916355896  0.1491302223112058  1.0000
  C   C183      1.0  0.46203824153448236  0.24687250332537883  0.18301903815394124  1.0000
  C   C184      1.0  0.4549663261278023  0.25571417663551677  0.2230217840818168  1.0000
  C   C185      1.0  0.44134690472827365  0.2818328753704381  0.22929653164330688  1.0000
  C   C186      1.0  0.43441733880507594  0.29890714649904765  0.19543129145153676  1.0000
  H   H121      1.0  0.4591626758673274  0.25623801822376735  0.11811854322852369  1.0000
  H   H122      1.0  0.47282411685598513  0.2268096138849676  0.17816580545173186  1.0000
  H   H123      1.0  0.43647259092696933  0.2889641930083094  0.2603664535760007  1.0000
  H   H124      1.0  0.4241836809484239  0.31916603098913693  0.2004621066986948  1.0000
  C   C187      1.0  0.4600205799831117  0.4056471216963565  0.2549426681924291  1.0000
  C   C188      1.0  0.4802638475991634  0.4252707931383886  0.26486397721791294  1.0000
  C   C189      1.0  0.5084192329968965  0.4169900980364486  0.2652212603783052  1.0000
  C   C190      1.0  0.5162113857510884  0.3888214573975947  0.2578210229247752  1.0000
  C   C191      1.0  0.49591480960192513  0.36901421231629616  0.24882189721670528  1.0000
  C   C192      1.0  0.4678080047912015  0.3775685955712571  0.24646148233990736  1.0000
  H   H125      1.0  0.4741787700763933  0.4469918180249381  0.2712655568525989  1.0000
  H   H126      1.0  0.5240377940304806  0.43245688074956645  0.27117130875173756  1.0000
  H   H127      1.0  0.5018715951379813  0.34711144586472814  0.24369773697154282  1.0000
  H   H128      1.0  0.4520818772702793  0.3623559460632896  0.23888703624683472  1.0000
  C   C193      1.0  0.6477695119544994  0.7268809199389507  0.25549295421136414  1.0000
  C   C194      1.0  0.6704884594674686  0.7295561454651772  0.22891919417419837  1.0000
  C   C195      1.0  0.6735597468558432  0.7542884366604368  0.20602657072699296  1.0000
  C   C196      1.0  0.6541169571612315  0.7765776241587293  0.21011891335417876  1.0000
  C   C197      1.0  0.6312696813656264  0.773805519462552  0.23643295334315953  1.0000
  C   C198      1.0  0.6278922640425063  0.7488738094079685  0.2586472011790418  1.0000
  H   H129      1.0  0.6859567659244077  0.7126483925490474  0.22638412623555862  1.0000
  H   H130      1.0  0.6914150922937904  0.756405655620332  0.18615400761838485  1.0000
  H   H131      1.0  0.6161873949072734  0.7910133564227397  0.23969810939774402  1.0000
  H   H132      1.0  0.6100927782671436  0.7468620824676447  0.2785781574917357  1.0000
  C   C199      1.0  0.5574671758709505  0.5896483436058948  0.35504288961796676  1.0000
  C   C200      1.0  0.5510039797180218  0.5947604309879752  0.31358348926356827  1.0000
  C   C201      1.0  0.5522402060490386  0.5725183412148245  0.2846388894520859  1.0000
  C   C202      1.0  0.5601659158325587  0.5452377732317188  0.29707083936934564  1.0000
  C   C203      1.0  0.566471197729158  0.5401095109158329  0.338545706987607  1.0000
  C   C204      1.0  0.5647710710190649  0.5622410292433345  0.3675691791104254  1.0000
  H   H133      1.0  0.5448358867467304  0.61579404248817  0.3039537090451327  1.0000
  H   H134      1.0  0.547182408007617  0.5764724923296082  0.25257568091085003  1.0000
  H   H135      1.0  0.5725412737307347  0.519078912640494  0.348326365322288  1.0000
  H   H136      1.0  0.5695816042190296  0.5582018942998119  0.3997100686443533  1.0000
  C   C205      1.0  0.48271181435021626  0.7639246152689015  0.6716203386490257  1.0000
  C   C206      1.0  0.503084551394767  0.7740385022842011  0.6451449778262438  1.0000
  C   C207      1.0  0.5289847808010135  0.759908261322944  0.6418090842173756  1.0000
  C   C208      1.0  0.5346434293544613  0.7360114392388721  0.6656468973848628  1.0000
  C   C209      1.0  0.5148118731371985  0.7267977164978425  0.6936644837749241  1.0000
  C   C210      1.0  0.4887915027089845  0.740649063680762  0.6964787825363069  1.0000
  H   H137      1.0  0.49886388812380567  0.7928311005722591  0.6273250103859228  1.0000
  H   H138      1.0  0.54449447268709  0.7674113121741755  0.6207092763793709  1.0000
  H   H139      1.0  0.5190640653245411  0.7083800725482587  0.7121916768008923  1.0000
  H   H140      1.0  0.47305732945375434  0.7327524735033386  0.716905008696199  1.0000
  C   C211      1.0  0.4564567129493462  0.7351701577400116  0.4404894876660628  1.0000
  C   C212      1.0  0.468836698900608  0.761530543939927  0.43830632175208006  1.0000
  C   C213      1.0  0.48710969029853063  0.767380867847889  0.406096792181623  1.0000
  C   C214      1.0  0.4934280796947839  0.7467222736376672  0.3762604405463366  1.0000
  C   C215      1.0  0.4814801639871316  0.7201871811778076  0.3787251052964962  1.0000
  C   C216      1.0  0.46281413674781074  0.7144877364129913  0.41063977521113276  1.0000
  H   H141      1.0  0.4648761837389335  0.7772789015639555  0.4619046103067488  1.0000
  H   H142      1.0  0.4969496557528955  0.7875766115914097  0.40523245371337163  1.0000
  H   H143      1.0  0.48668444290924706  0.7039955914182042  0.35605447300488396  1.0000
  H   H144      1.0  0.4535664971036864  0.6939620158815499  0.4124716157871758  1.0000
  C   C217      1.0  0.6206043976434249  0.8683926531661733  0.6012491213160089  1.0000
  C   C218      1.0  0.6044114408470705  0.868789664567415  0.637036793969887  1.0000
  C   C219      1.0  0.5982762396274575  0.8944462680153793  0.6572331759744829  1.0000
  C   C220      1.0  0.6084221055544978  0.9195744645613549  0.6416503641236916  1.0000
  C   C221      1.0  0.6227553790494484  0.9193543549854337  0.6041774854767463  1.0000
  C   C222      1.0  0.6287537644777954  0.893737924989661  0.5839174565235234  1.0000
  H   H145      1.0  0.5975390154013136  0.8492433718387421  0.650091854873224  1.0000
  H   H146      1.0  0.5861451561921838  0.8947137574478636  0.685291965454248  1.0000
  H   H147      1.0  0.6301590814198579  0.9388508106002553  0.5916110432801355  1.0000
  H   H148      1.0  0.6398855338875357  0.8936755274758381  0.5551178253121708  1.0000
  C   C223      1.0  0.692664624809241  0.7449497689774409  0.4967774477392692  1.0000
  C   C224      1.0  0.6735548457277379  0.7554393474535902  0.5260085431912779  1.0000
  C   C225      1.0  0.6453393347342391  0.748969285778737  0.5226830261618253  1.0000
  C   C226      1.0  0.6361661963552301  0.732287144775743  0.4897611723742284  1.0000
  C   C227      1.0  0.6553394898063198  0.7212076163460126  0.4610717568666183  1.0000
  C   C228      1.0  0.6836922098329676  0.7272347882495457  0.4649058034671855  1.0000
  H   H149      1.0  0.6804280590332615  0.7694579948445767  0.5502910373001157  1.0000
  H   H150      1.0  0.6305084625429641  0.7578343074235929  0.5445895422907481  1.0000
  H   H151      1.0  0.6483367250454716  0.7083098175459387  0.4356172833094414  1.0000
  H   H152      1.0  0.6984508209704575  0.719218066884874  0.4422375321440034  1.0000
  C   C229      1.0  0.5255091941327372  0.924105928886675  0.1951044293019826  1.0000
  C   C230      1.0  0.5304985478175298  0.9117988951154281  0.15617442581696106  1.0000
  C   C231      1.0  0.5149510236436421  0.8886240676958642  0.14278544445652722  1.0000
  C   C232      1.0  0.4945185247439151  0.8777090679829403  0.16845238333614204  1.0000
  C   C233      1.0  0.4892187568748437  0.8904224627569249  0.2068403310947039  1.0000
  C   C234      1.0  0.5045598172461548  0.9135696401937549  0.22009023848350706  1.0000
  H   H153      1.0  0.5466394877160282  0.9199173028500786  0.13671234098437113  1.0000
  H   H154      1.0  0.5191727515585517  0.878927071377383  0.11310571959047923  1.0000
  H   H155      1.0  0.47292913078148513  0.8825832704161283  0.22615258608782707  1.0000
  H   H156      1.0  0.49997644106380806  0.9233205371042451  0.24960968661579208  1.0000
  C   C235      1.0  0.5236687425948634  0.07819784319406553  0.3299069875126503  1.0000
  C   C236      1.0  0.5519982780715715  0.07225963340941455  0.32361278190862147  1.0000
  C   C237      1.0  0.5690837790686368  0.09289528842678026  0.3071765414513956  1.0000
  C   C238      1.0  0.5579847397547093  0.11964748010347667  0.29762053103410085  1.0000
  C   C239      1.0  0.5298418055698423  0.12591761346986052  0.30518604816035094  1.0000
  C   C240      1.0  0.5127284143467493  0.10521515352335853  0.32143683640256665  1.0000
  H   H157      1.0  0.5607129656882025  0.051697315944005506  0.3309947379588054  1.0000
  H   H158      1.0  0.5909362552673362  0.08812067691428316  0.3017476166831375  1.0000
  H   H159      1.0  0.5211400752622701  0.1464948992771574  0.29770249545370187  1.0000
  H   H160      1.0  0.4908093204322772  0.10989508648907975  0.3263883928976485  1.0000
  C   C241      1.0  0.46383864804413516  0.9025156821529091  0.4018851692391724  1.0000
  C   C242      1.0  0.4436520559374442  0.8885402884307194  0.4243069829167744  1.0000
  C   C243      1.0  0.4515786672241895  0.8721287491163535  0.45840887272770997  1.0000
  C   C244      1.0  0.4797437202021596  0.8689035157952446  0.4691055946893287  1.0000
  C   C245      1.0  0.49990290886252886  0.8824528641791411  0.44623014005032574  1.0000
  C   C246      1.0  0.49189720932034686  0.8997417071174969  0.41335720923669095  1.0000
  H   H161      1.0  0.42185945392154034  0.8909361889811871  0.41598251856996593  1.0000
  H   H162      1.0  0.4357903124102138  0.8625320700296446  0.47680679591674535  1.0000
  H   H163      1.0  0.5217119375890412  0.8799515928119217  0.4541615270070296  1.0000
  H   H164      1.0  0.5075815138848367  0.9108801710236333  0.3970773773639412  1.0000
  C   C247      1.0  0.6033048423011019  0.9190328729841907  0.41652513006708014  1.0000
  C   C248      1.0  0.6142264079419808  0.9026680953004965  0.4487278104536358  1.0000
  C   C249      1.0  0.6386673202360431  0.8865436062260709  0.4429350820957354  1.0000
  C   C250      1.0  0.6528755319130088  0.8874048606222144  0.40538930408533236  1.0000
  C   C251      1.0  0.6414119822428753  0.9028745693513213  0.3725120332939169  1.0000
  C   C252      1.0  0.6164390407125439  0.9185982063924032  0.378000246127323  1.0000
  H   H165      1.0  0.6040739602392903  0.9027894508020189  0.4784555465842556  1.0000
  H   H166      1.0  0.6467484289533255  0.8739320865193948  0.46793032315878896  1.0000
  H   H167      1.0  0.6522340071078986  0.90342396657559  0.3432877738078327  1.0000
  H   H168      1.0  0.6079729764236125  0.9311896642124646  0.35300040066046046  1.0000
  C   C253      1.0  0.016001451557520197  0.7407588348276107  0.9027066425742655  1.0000
  C   C254      1.0  0.022671306213657427  0.7635067156988328  0.8777027280881466  1.0000
  C   C255      1.0  0.00864349456105895  0.7896252435327954  0.8827678182107411  1.0000
  C   C256      1.0  0.9875474762270872  0.7928166068560395  0.912193517926732  1.0000
  C   C257      1.0  0.9815572286395903  0.7703396777238101  0.9381088054465454  1.0000
  C   C258      1.0  0.9959780403026733  0.7444365372764542  0.9336672817452247  1.0000
  H   H169      1.0  0.03898393462038041  0.7611176650966053  0.8549713382380243  1.0000
  H   H170      1.0  0.014161094108065875  0.8073433684459717  0.863947717358567  1.0000
  H   H171      1.0  0.9653636640880223  0.7726562729933545  0.9610719013374848  1.0000
  H   H172      1.0  0.9909916448274827  0.7270351825585737  0.9534654839704206  1.0000
  C   C259      1.0  0.9634304411628062  0.9270707106520483  0.45341717268970644  1.0000
  C   C260      1.0  0.980182323314632  0.9398395671988826  0.483285198083999  1.0000
  C   C261      1.0  0.0014128578440129047  0.9577372472391912  0.4713286746491727  1.0000
  C   C262      1.0  0.005831313231436708  0.96303299184996  0.4294726158864888  1.0000
  C   C263      1.0  0.9885169181520106  0.9510205151806267  0.3995894042274584  1.0000
  C   C264      1.0  0.9673306092296095  0.9329966241200734  0.4115752766255018  1.0000
  H   H173      1.0  0.9766105980013295  0.9362342775913378  0.5156288864360995  1.0000
  H   H174      1.0  0.0145369712987935  0.9673446927569932  0.4945139380887018  1.0000
  H   H175      1.0  0.9914286765740342  0.9555606153540778  0.36726902312420356  1.0000
  H   H176      1.0  0.9541824732511455  0.9234324971636401  0.38837776273714564  1.0000
  C   C265      1.0  0.7922417202697288  0.8709236507274329  0.588591261764794  1.0000
  C   C266      1.0  0.8153044647075286  0.8859576394545224  0.6023609248454852  1.0000
  C   C267      1.0  0.841256566378834  0.8721036836810337  0.6074825851560426  1.0000
  C   C268      1.0  0.8440338961022158  0.8431573018014076  0.5993528236744261  1.0000
  C   C269      1.0  0.8207957224806834  0.8280550513289178  0.586498321022518  1.0000
  C   C270      1.0  0.7949677525458084  0.8419479530349663  0.5807796207053266  1.0000
  H   H177      1.0  0.8132183919267275  0.9083730700265478  0.6085129819362487  1.0000
  H   H178      1.0  0.8590196092464376  0.8837410660054198  0.6181512891050571  1.0000
  H   H179      1.0  0.8229041841128596  0.8056413063057849  0.5802260593117462  1.0000
  H   H180      1.0  0.7772664870303361  0.8302069918949018  0.5700666475136842  1.0000
  C   C271      1.0  0.003217174974576631  0.7886470650928976  0.6212020455785113  1.0000
  C   C272      1.0  0.9749162487717621  0.7831856158774992  0.6258078704899757  1.0000
  C   C273      1.0  0.966661101890116  0.7612198266003221  0.6512404344755283  1.0000
  C   C274      1.0  0.9866956350658359  0.74511132514664  0.6726235871751751  1.0000
  C   C275      1.0  0.015007218769556463  0.7499595294863483  0.6668857170994618  1.0000
  C   C276      1.0  0.023263146732164897  0.7714351137123848  0.6405689351517899  1.0000
  H   H181      1.0  0.959305450494759  0.7959683257065389  0.6100618085058733  1.0000
  H   H182      1.0  0.9447253135798677  0.7572481708766804  0.6552364102029596  1.0000
  H   H183      1.0  0.030465064122263907  0.7373640339166797  0.6831578508747022  1.0000
  H   H184      1.0  0.04509669633051572  0.7750344295576885  0.6357906032896978  1.0000
  C   C277      1.0  0.12083466086384378  0.8887051602842909  0.9788258732259293  1.0000
  C   C278      1.0  0.11689674621168383  0.8614925188016542  0.9631122860280583  1.0000
  C   C279      1.0  0.12548981844278728  0.8378805992383663  0.9859126768225401  1.0000
  C   C280      1.0  0.1378938762446451  0.8414331693132037  0.024669876770393007  1.0000
  C   C281      1.0  0.14033296653693725  0.8685110748313464  0.0415375500501578  1.0000
  C   C282      1.0  0.13176664380904995  0.8921300647951159  0.01864254663108822  1.0000
  H   H185      1.0  0.10756538166009666  0.8584362706586999  0.9333075314454186  1.0000
  H   H186      1.0  0.12359629890311569  0.8169612383553332  0.9727737411888701  1.0000
  H   H187      1.0  0.1492556841123863  0.871359819670485  0.07199856854226261  1.0000
  H   H188      1.0  0.13438804965655946  0.9131016494211099  0.031372841401404505  1.0000
  C   C283      1.0  0.015877884402295317  0.8856230915906094  0.7650696505938427  1.0000
  C   C284      1.0  0.01769283447282244  0.8800036271280115  0.7226887040256665  1.0000
  C   C285      1.0  0.9996059413432469  0.8939231241520349  0.6952232041618429  1.0000
  C   C286      1.0  0.9801230039326304  0.9139560658168543  0.7099712473967571  1.0000
  C   C287      1.0  0.9788914754432012  0.9202507328852646  0.7522671147388524  1.0000
  C   C288      1.0  0.9966338604144352  0.9058656904591648  0.7799179812213928  1.0000
  H   H189      1.0  0.03259580114277938  0.864460189332278  0.7110029872280081  1.0000
  H   H190      1.0  0.0008163097391038487  0.8891565180002606  0.662530049138699  1.0000
  H   H191      1.0  0.9637590009113026  0.9356954555421175  0.7636896408562203  1.0000
  H   H192      1.0  0.995191882820456  0.9101778746247572  0.8127377174249449  1.0000
  C   C289      1.0  0.12080389022513668  0.8215286368051261  0.39573786407568534  1.0000
  C   C290      1.0  0.11237321189190637  0.8179620460998094  0.3545942140593475  1.0000
  C   C291      1.0  0.09427764652626135  0.7961871828491943  0.3440052883369202  1.0000
  C   C292      1.0  0.08496916553404602  0.7779422284537816  0.37450089745703546  1.0000
  C   C293      1.0  0.09267718262124194  0.7823269860769557  0.4155844120261044  1.0000
  C   C294      1.0  0.1102435668252484  0.8042439033376736  0.4262798111269746  1.0000
  H   H193      1.0  0.12025834793018321  0.8315531332571703  0.3309009371851782  1.0000
  H   H194      1.0  0.08763388984124325  0.7934073958010827  0.31231525432674095  1.0000
  H   H195      1.0  0.08626917866507375  0.7678872099024314  0.43889528762401714  1.0000
  H   H196      1.0  0.11612421393407688  0.8072106787254774  0.4582248373050653  1.0000
  C   C295      1.0  0.27974277027380745  0.7887169474996722  0.4951464127103075  1.0000
  C   C296      1.0  0.27994565513876174  0.8179683563033684  0.49039799941407625  1.0000
  C   C297      1.0  0.3030721941003202  0.8331986161977177  0.5034392735319095  1.0000
  C   C298      1.0  0.32608028967065156  0.8192580825436405  0.5213737918984922  1.0000
  C   C299      1.0  0.3265126769983431  0.7898416815844254  0.5241774120943461  1.0000
  C   C300      1.0  0.3033613616348188  0.7745626257677627  0.5109349524057798  1.0000
  H   H197      1.0  0.2622959135039471  0.8289292009072637  0.47680545843632005  1.0000
  H   H198      1.0  0.302926598541147  0.8558901279765465  0.5002768572738282  1.0000
  H   H199      1.0  0.34424738584562503  0.7788984344509933  0.5377581652869122  1.0000
  H   H200      1.0  0.3033901098530341  0.7518842854678347  0.5143070925671941  1.0000
  C   C301      1.0  0.1890348851364736  0.8701753774830938  0.6514300375711118  1.0000
  C   C302      1.0  0.19330694435830667  0.843078668189498  0.6673699837019621  1.0000
  C   C303      1.0  0.18996941266295786  0.8384258838625462  0.7097908203863759  1.0000
  C   C304      1.0  0.18114626729720446  0.8605942575656796  0.735891724180497  1.0000
  C   C305      1.0  0.17676369046501295  0.8876033306265263  0.719891041371144  1.0000
  C   C306      1.0  0.18121532489902278  0.8924733724071193  0.6778586430363689  1.0000
  H   H201      1.0  0.19972217496328426  0.825852798775446  0.6472467676267376  1.0000
  H   H202      1.0  0.19341047814169063  0.8174978698658858  0.7221183140143638  1.0000
  H   H203      1.0  0.17001496640052893  0.90483941963324  0.7399146182666607  1.0000
  H   H204      1.0  0.17814347757791063  0.9135042052686838  0.6656735318402334  1.0000
  C   C307      1.0  0.11803675183483972  0.747136889241377  0.6034831364493858  1.0000
  C   C308      1.0  0.14246924941671388  0.7473126420061104  0.6271696120458519  1.0000
  C   C309      1.0  0.14256177560407124  0.7363473139223333  0.6672972471176711  1.0000
  C   C310      1.0  0.11813647930920826  0.7256205011455541  0.683842485987818  1.0000
  C   C311      1.0  0.09393825431410686  0.7250977434141768  0.6598691124537137  1.0000
  C   C312      1.0  0.09388123391457334  0.7357468930336641  0.6197689099759548  1.0000
  H   H205      1.0  0.1612642640243133  0.755782846738734  0.6146296719562775  1.0000
  H   H206      1.0  0.16140687036097337  0.7365945162655733  0.6857676171221794  1.0000
  H   H207      1.0  0.07509207972929088  0.7169867343872505  0.6724857729246227  1.0000
  H   H208      1.0  0.07482217758051755  0.7358094745266182  0.6020051206629977  1.0000
  C   C313      1.0  0.9540102065217463  0.42056297825809846  0.8071712615052378  1.0000
  C   C314      1.0  0.9325422943199825  0.4195248511348023  0.7778269536153933  1.0000
  C   C315      1.0  0.9281048832987042  0.39462686445501743  0.7552718889684985  1.0000
  C   C316      1.0  0.9447810198144553  0.370626578251361  0.7627480148346824  1.0000
  C   C317      1.0  0.9661391612375854  0.3715988843385121  0.7922144286102558  1.0000
  C   C318      1.0  0.9709216753324699  0.3966346818484204  0.8140994920483107  1.0000
  H   H209      1.0  0.9195053934514876  0.4380598461978015  0.7722207977546154  1.0000
  H   H210      1.0  0.9115982071863576  0.39392089213493914  0.7324000303628717  1.0000
  H   H211      1.0  0.979312905023074  0.353136223807378  0.7976047886194838  1.0000
  H   H212      1.0  0.9878766130346859  0.3973726964022978  0.8359620611687381  1.0000
  C   C319      1.0  0.0613846536730116  0.5440330140354654  0.8621372011149883  1.0000
  C   C320      1.0  0.040299778985463774  0.5356452009101584  0.8350631941756421  1.0000
  C   C321      1.0  0.032244112429064886  0.5530169288853685  0.8021156329543949  1.0000
  C   C322      1.0  0.04488611664020503  0.5790019417950619  0.7967058755624878  1.0000
  C   C323      1.0  0.06630269659817878  0.5871571756639747  0.8233190646850463  1.0000
  C   C324      1.0  0.07469266520162421  0.5695475814574437  0.8558739490061794  1.0000
  H   H213      1.0  0.02976665384604149  0.5161116737368877  0.8400086078739488  1.0000
  H   H214      1.0  0.01557866432876831  0.5467700082467551  0.7816136749211773  1.0000
  H   H215      1.0  0.07644921329920651  0.6069478214142535  0.8187502725186748  1.0000
  H   H216      1.0  0.09125258109087087  0.5758515794990247  0.876532819343331  1.0000
  C   C325      1.0  0.9386371562355239  0.2323754511746831  0.14834966252406123  1.0000
  C   C326      1.0  0.9561749505356724  0.21278142305507772  0.1281319899196391  1.0000
  C   C327      1.0  0.9780108622744688  0.19928154210120105  0.14963275722297714  1.0000
  C   C328      1.0  0.9822117304118756  0.20511218480644033  0.19159384417359066  1.0000
  C   C329      1.0  0.9641284213573057  0.2239814442325678  0.21229077091175336  1.0000
  C   C330      1.0  0.942286363294895  0.23757517420628807  0.19066618062955237  1.0000
  H   H217      1.0  0.952605526166877  0.2076144280852689  0.09602053534241181  1.0000
  H   H218      1.0  0.9916530343557842  0.18435286769707668  0.13364729331249714  1.0000
  H   H219      1.0  0.9669541205407677  0.2282151153109924  0.24487406863652633  1.0000
  H   H220      1.0  0.9286353050521128  0.252551171051523  0.20654450545231245  1.0000
  C   C331      1.0  0.8644787682184532  0.3359766198217856  0.9873283514551926  1.0000
  C   C332      1.0  0.8370706706888196  0.33283429668066405  0.9733398398970742  1.0000
  C   C333      1.0  0.814848007824154  0.33495524371949786  0.001393628785970824  1.0000
  C   C334      1.0  0.8200857163689161  0.3411271463171014  0.04304365865616356  1.0000
  C   C335      1.0  0.8474324315228922  0.3451024667643981  0.056618062872869364  1.0000
  C   C336      1.0  0.8696324640412512  0.34208068800846114  0.02894185811757  1.0000
  H   H221      1.0  0.8330537223124496  0.32793576207709146  0.9411839490574933  1.0000
  H   H222      1.0  0.7937156425015498  0.33180053385191494  0.9908493501150281  1.0000
  H   H223      1.0  0.8515233057309576  0.3500003777565272  0.08876748580192154  1.0000
  H   H224      1.0  0.8907446125394329  0.34466134198242354  0.03985130198165799  1.0000
  C   C337      1.0  0.020120394410622966  0.3396302011355623  0.03354383017024354  1.0000
  C   C338      1.0  0.0008476362370473112  0.3523687742527248  0.06065082617869599  1.0000
  C   C339      1.0  0.9960987629097608  0.38165457716770623  0.059942282211847386  1.0000
  C   C340      1.0  0.010054335549063653  0.39796730934933444  0.031283605727343344  1.0000
  C   C341      1.0  0.02989813232362115  0.38521573713141855  0.005149171537395469  1.0000
  C   C342      1.0  0.03521506656233564  0.3561495782030884  0.006617648196044046  1.0000
  H   H225      1.0  0.9893505880815469  0.33960649438962415  0.08183856888630214  1.0000
  H   H226      1.0  0.9808450686279623  0.3914400156899675  0.08040064994064267  1.0000
  H   H227      1.0  0.04098472375820794  0.39757788195247973  0.9831578666217825  1.0000
  H   H228      1.0  0.050068554874417304  0.34643079573822166  0.985470459270127  1.0000
  C   C343      1.0  0.19551513675807627  0.20907150937482738  0.6319300917586477  1.0000
  C   C344      1.0  0.17972702228044712  0.19698296643548285  0.6002130270040993  1.0000
  C   C345      1.0  0.15600724204653127  0.18164483464644782  0.609694502497876  1.0000
  C   C346      1.0  0.14792879751533813  0.17848501668570618  0.6508123915407238  1.0000
  C   C347      1.0  0.16415003328418337  0.18985183190677632  0.6825999965668395  1.0000
  C   C348      1.0  0.18801328646941187  0.20501384512042198  0.6731547775497102  1.0000
  H   H229      1.0  0.18604574519627481  0.19911041265905935  0.5684489111821945  1.0000
  H   H230      1.0  0.14384336908092227  0.17220315167247582  0.5853315233960217  1.0000
  H   H231      1.0  0.15839377731377358  0.18698686597432995  0.714488557447356  1.0000
  H   H232      1.0  0.20029884319501734  0.2140867800397213  0.6978066796150175  1.0000
  C   C349      1.0  0.08292897726087671  0.06442069655493321  0.8157958510049976  1.0000
  C   C350      1.0  0.09684418114637589  0.0637147100972899  0.7779589003012584  1.0000
  C   C351      1.0  0.1064073979328805  0.03785075710931096  0.7612668782427255  1.0000
  C   C352      1.0  0.10223506024821602  0.012681938771803125  0.7824454019379137  1.0000
  C   C353      1.0  0.08855063101331945  0.013418790514108103  0.8204778526715242  1.0000
  C   C354      1.0  0.0788290394855902  0.03927381234739169  0.8370598565119792  1.0000
  H   H233      1.0  0.10004994328007122  0.0830474589071204  0.7613690060849899  1.0000
  H   H234      1.0  0.1169885026600527  0.037346216187641446  0.7317964241320336  1.0000
  H   H235      1.0  0.08529821603633914  0.9941134460135386  0.8370060278125824  1.0000
  H   H236      1.0  0.06812304958469008  0.03980603151232076  0.8664203971940607  1.0000
  C   C355      1.0  0.009360510347021123  0.22254961569827936  0.8227162191786028  1.0000
  C   C356      1.0  0.9918503196094098  0.2441009975791509  0.8380763092301954  1.0000
  C   C357      1.0  0.9740581954792824  0.23877885356558093  0.8710905960881045  1.0000
  C   C358      1.0  0.9732987960877988  0.21191446578848472  0.8882159886058187  1.0000
  C   C359      1.0  0.9900274111731062  0.19007025357753182  0.8717234825966244  1.0000
  C   C360      1.0  0.008283185502209411  0.19545054267745882  0.8391992165598144  1.0000
  H   H237      1.0  0.9925836132042102  0.2650271382717404  0.825171302919137  1.0000
  H   H238      1.0  0.9607240964397231  0.2553110724782245  0.8831403889263308  1.0000
  H   H239      1.0  0.9893069788288588  0.1691431320661496  0.8846591796859846  1.0000
  H   H240      1.0  0.021421090729208503  0.17855986024639847  0.8269019900211831  1.0000
  C   C361      1.0  0.11608117702531796  0.3552477981260497  0.20450877371193305  1.0000
  C   C362      1.0  0.13444114166476218  0.3751880368959524  0.18990509056079183  1.0000
  C   C363      1.0  0.12993255900775058  0.4038684138524923  0.1989049630343503  1.0000
  C   C364      1.0  0.10720027629470155  0.41267535253559506  0.22298648415628183  1.0000
  C   C365      1.0  0.08917425184018571  0.3927055356039746  0.23867896519351717  1.0000
  C   C366      1.0  0.0935475484385837  0.3639774704951519  0.2292719634416216  1.0000
  H   H241      1.0  0.15214127071553377  0.3686125492648995  0.171578687468183  1.0000
  H   H242      1.0  0.14411512861902517  0.4192669283855627  0.18725019490860834  1.0000
  H   H243      1.0  0.07150524847940298  0.39949956480403603  0.2572585020756274  1.0000
  H   H244      1.0  0.07928742335306788  0.34860820991839486  0.24078308943260893  1.0000
  C   C367      1.0  0.26996325473212923  0.31198208999183175  0.12032286397770875  1.0000
  C   C368      1.0  0.29611732801856855  0.3142897022298495  0.10174790059877736  1.0000
  C   C369      1.0  0.31098108639956085  0.33930770246935976  0.10610104328770031  1.0000
  C   C370      1.0  0.2994279729586456  0.3620707676637743  0.1285277434270229  1.0000
  C   C371      1.0  0.27365199315365396  0.35945459200724406  0.14783306058401977  1.0000
  C   C372      1.0  0.2591249909603375  0.33433597108755464  0.14415853426990194  1.0000
  H   H245      1.0  0.30440852550173303  0.2971109260349919  0.08288505251875966  1.0000
  H   H246      1.0  0.330789316185763  0.34143457591848314  0.09073383184940864  1.0000
  H   H247      1.0  0.26480336456225556  0.3769684821823149  0.1654900103063113  1.0000
  H   H248      1.0  0.23953264872245783  0.3322635516060154  0.15993636994750693  1.0000
  C   C373      1.0  0.1353293584487724  0.2309075947921193  0.9819485644725865  1.0000
  C   C374      1.0  0.12060333237119292  0.20912903977821026  0.9630786578802516  1.0000
  C   C375      1.0  0.12819242946146103  0.1991906120344405  0.9236695815716072  1.0000
  C   C376      1.0  0.15047479665088104  0.21102825585008586  0.9028978406357167  1.0000
  C   C377      1.0  0.1654851581315534  0.23247425098455943  0.9220614068281785  1.0000
  C   C378      1.0  0.15780219627448683  0.24254152813931537  0.9614094595854187  1.0000
  H   H249      1.0  0.10327715841875751  0.19997238284781338  0.9789668621437572  1.0000
  H   H250      1.0  0.11702429757715678  0.18215918085212604  0.9097143067637987  1.0000
  H   H251      1.0  0.1828633785411112  0.24158801721762369  0.9062266647374808  1.0000
  H   H252      1.0  0.16923046403161796  0.2593573323240451  0.9756218903851809  1.0000
  C   C379      1.0  0.14654659299207246  0.37877618415210185  0.9828641321143119  1.0000
  C   C380      1.0  0.13412482091112482  0.3537724942297126  0.970132634292511  1.0000
  C   C381      1.0  0.1138980325667421  0.3543201132223349  0.938747490326736  1.0000
  C   C382      1.0  0.10560324163999155  0.3798894845605598  0.9207202329446655  1.0000
  C   C383      1.0  0.11836441881613081  0.4048076685743778  0.9331079706397528  1.0000
  C   C384      1.0  0.13889660995879058  0.4042486518361514  0.9640624384996277  1.0000
  H   H253      1.0  0.14021185386186147  0.33396629086233776  0.9842216421488459  1.0000
  H   H254      1.0  0.10442910775071612  0.3350236133659845  0.928949185075449  1.0000
  H   H255      1.0  0.11274016195508345  0.4244834232568752  0.9183111762789283  1.0000
  H   H256      1.0  0.1486391075759516  0.42359699391598515  0.9735914052229353  1.0000
  N   N1        1.0  0.20923339940304186  0.8584630879683055  0.9287659369295423  1.0000
  C   C385      1.0  0.2358193020993756  0.8566315138177187  0.9058904415120945  1.0000
  C   C386      1.0  0.2074429681534183  0.8340550033197625  0.9566197073468806  1.0000
  C   C387      1.0  0.18570188445248892  0.8583422998767005  0.899121362750032  1.0000
  C   C388      1.0  0.20803285108314773  0.8848525668081275  0.9534650256564852  1.0000
  H   H257      1.0  0.23792110944338324  0.8747561593021855  0.8846491347516606  1.0000
  H   H258      1.0  0.23742390621071152  0.8369427868584316  0.886955208118772  1.0000
  H   H259      1.0  0.25405262148314856  0.8566598801921044  0.9273652467560836  1.0000
  H   H260      1.0  0.18788402055264727  0.8349586058303623  0.9749718215302385  1.0000
  H   H261      1.0  0.20797020349774265  0.813750905030024  0.9391062550042738  1.0000
  H   H262      1.0  0.22515674533305718  0.8333748373731912  0.9789953869081652  1.0000
  H   H263      1.0  0.1653367157157448  0.8600293016458344  0.9152718524575495  1.0000
  H   H264      1.0  0.1858110833029336  0.8386776092303433  0.8800115423593452  1.0000
  H   H265      1.0  0.1865958353913855  0.8763196673823763  0.8773254185806088  1.0000
  H   H266      1.0  0.22584854614616234  0.8858259114265908  0.9756392205659598  1.0000
  H   H267      1.0  0.18843125239241887  0.8866840508933542  0.9717408221417239  1.0000
  H   H268      1.0  0.20887806708309026  0.9037491531605164  0.9334599608545071  1.0000
  N   N2        1.0  0.025147518445919337  0.511905461192077  0.4680387680527498  1.0000
  C   C389      1.0  0.00397393319560857  0.4985878918916944  0.49397023071990126  1.0000
  C   C390      1.0  0.05303701834208674  0.5072515243338027  0.4866918681976431  1.0000
  C   C391      1.0  0.019093215055622448  0.542538169449601  0.4651438696087044  1.0000
  C   C392      1.0  0.024592657558452302  0.4992213321504967  0.4261779452856297  1.0000
  H   H269      1.0  0.9826566016916569  0.501631959111735  0.48081888559143354  1.0000
  H   H270      1.0  0.0038838204507318785  0.5074784721309489  0.5259216594049473  1.0000
  H   H271      1.0  0.00801037000443161  0.4754150091981059  0.49640637494356304  1.0000
  H   H272      1.0  0.054337185391358345  0.516878380391383  0.5181019160769583  1.0000
  H   H273      1.0  0.058234602040150296  0.4843517608958277  0.48964130054482813  1.0000
  H   H274      1.0  0.06958161103655325  0.5167134871498497  0.46756027940483813  1.0000
  H   H275      1.0  0.03491922953072524  0.5530316067721556  0.4457728563076807  1.0000
  H   H276      1.0  0.019302121698616448  0.55291754376511  0.4961273444584263  1.0000
  H   H277      1.0  0.9983395324736773  0.5468794488317732  0.4507696687343873  1.0000
  H   H278      1.0  0.039759484026757  0.509319372062936  0.40546994886702087  1.0000
  H   H279      1.0  0.0036750856568064094  0.5015626098851036  0.41148797198471815  1.0000
  H   H280      1.0  0.02999303914395779  0.47632059434745927  0.42689020566944086  1.0000
  N   N3        1.0  0.06971497739126309  0.767189105301742  0.017735577740425335  1.0000
  C   C393      1.0  0.09771918641195221  0.7534812926276275  0.016590723128699025  1.0000
  C   C394      1.0  0.06177383990188412  0.7767870825156808  0.9758957809308647  1.0000
  C   C395      1.0  0.07023451411070547  0.7916388433765733  0.046377389083477334  1.0000
  C   C396      1.0  0.04919242399605861  0.7467803470716871  0.03218268319202444  1.0000
  H   H281      1.0  0.10421701333824229  0.7459345626480008  0.04780263079170477  1.0000
  H   H282      1.0  0.11383397047908228  0.7683851357537155  0.006391859822492353  1.0000
  H   H283      1.0  0.09828336585402586  0.7349681025184621  0.9951690672959849  1.0000
  H   H284      1.0  0.04044091178887799  0.7866075704435085  0.975588145007455  1.0000
  H   H285      1.0  0.07647543908804999  0.7925587608481156  0.9641579166903804  1.0000
  H   H286      1.0  0.06174434550755992  0.758830894187664  0.9534221825364658  1.0000
  H   H287      1.0  0.04928343666309409  0.8020657430192281  0.04931315268640791  1.0000
  H   H288      1.0  0.08509089897806366  0.807692155514493  0.0359365208341056  1.0000
  H   H289      1.0  0.07708672556358587  0.785064425432798  0.07782325637155046  1.0000
  H   H290      1.0  0.027948698777559233  0.7566385723583828  0.034884335559434376  1.0000
  H   H291      1.0  0.054994067224870546  0.7383906439692731  0.06312673070424216  1.0000
  H   H292      1.0  0.047645021367361595  0.7284788033032799  0.010546511065294252  1.0000
  N   N4        1.0  0.028214355476289033  0.8977540555230699  0.9525464046606017  1.0000
  C   C397      1.0  0.030317423921832898  0.9272937478337872  0.9390267840703047  1.0000
  C   C398      1.0  0.9986124646051855  0.8902744931052923  0.9551066429708174  1.0000
  C   C399      1.0  0.0413629898834722  0.8945814946341955  0.9936981493958283  1.0000
  C   C400      1.0  0.04248325167375766  0.8788198064670396  0.9224352552076885  1.0000
  H   H293      1.0  0.019672378697392245  0.9421293333227921  0.9610428944881876  1.0000
  H   H294      1.0  0.020751493778147  0.9304110822111058  0.9079603347236039  1.0000
  H   H295      1.0  0.05248949214070597  0.933608676567382  0.9371455870396623  1.0000
  H   H296      1.0  0.9870382579041758  0.9044140426732318  0.9770666048687263  1.0000
  H   H297      1.0  0.988036454612035  0.891584713326717  0.9244610936560013  1.0000
  H   H298      1.0  0.9964841967447269  0.8682705293245758  0.9660706430119059  1.0000
  H   H299      1.0  0.06357201200421803  0.9006372149991639  0.9933795926899651  1.0000
  H   H300      1.0  0.040584685694966094  0.8724605627160597  0.004702053631379988  1.0000
  H   H301      1.0  0.03064574360759198  0.908131561991521  0.017365288421861136  1.0000
  H   H302      1.0  0.06477880754140752  0.8841479917908557  0.9194351227957346  1.0000
  H   H303      1.0  0.03282483290524074  0.8804734743368983  0.8911452859681319  1.0000
  H   H304      1.0  0.04142623633183384  0.8563533563004996  0.9317891728385478  1.0000
  N   N5        1.0  0.05359983493609022  0.2605319188865591  0.13590796936065305  1.0000
  C   C401      1.0  0.07086423294547561  0.2726069412258983  0.10309595242691971  1.0000
  C   C402      1.0  0.023794914185761407  0.2665595105099121  0.12708145750017516  1.0000
  C   C403      1.0  0.06116709953514655  0.27320592356930096  0.17622316348362646  1.0000
  C   C404      1.0  0.058620968089882375  0.22968585962096555  0.13722303925215107  1.0000
  H   H305      1.0  0.06742271727584281  0.2958401127996142  0.10086611595986507  1.0000
  H   H306      1.0  0.0659153319596093  0.2633976292506939  0.072209394904488  1.0000
  H   H307      1.0  0.09349742708983343  0.2685429558503532  0.10887464860412056  1.0000
  H   H308      1.0  0.010117269913638706  0.2576902649460894  0.15119937874948042  1.0000
  H   H309      1.0  0.0192621618828801  0.289658251358023  0.12544488908263227  1.0000
  H   H310      1.0  0.017450044389808236  0.25728517047598337  0.09684671066155669  1.0000
  H   H311      1.0  0.05800935447594835  0.29654631493037636  0.1761625027095528  1.0000
  H   H312      1.0  0.08352767638730456  0.26896418704718  0.18389790503643505  1.0000
  H   H313      1.0  0.04847046690778245  0.2646691332581465  0.2017395250782315  1.0000
  H   H314      1.0  0.08095250579451632  0.22436978619951709  0.1435289922648329  1.0000
  H   H315      1.0  0.05297336231141614  0.21946395771079097  0.10732928965503077  1.0000
  H   H316      1.0  0.046021039942113706  0.21988934376396108  0.1618044193465011  1.0000
  N   N6        1.0  0.6446430438299482  0.4194867990322915  0.983544781688386  1.0000
  C   C405      1.0  0.6551281509388561  0.4217268490712879  0.9408735250746139  1.0000
  C   C406      1.0  0.6271231697957318  0.3944010967931853  0.9864976337291774  1.0000
  C   C407      1.0  0.6277944078730321  0.44500416851938907  0.9942389424729708  1.0000
  C   C408      1.0  0.6684034293624258  0.41681718737263607  0.012579119822845097  1.0000
  H   H317      1.0  0.6685007215991141  0.4403507393488376  0.9371921517923602  1.0000
  H   H318      1.0  0.6376609392471871  0.42399002444429773  0.9183351537259207  1.0000
  H   H319      1.0  0.6676138674255354  0.4026359107782752  0.9315362296587062  1.0000
  H   H320      1.0  0.6174288492687158  0.3929505888743999  0.017585278019201844  1.0000
  H   H321      1.0  0.6098202340981602  0.3950533881132239  0.9635532950750056  1.0000
  H   H322      1.0  0.639458487117183  0.37454077902825694  0.9810950391030373  1.0000
  H   H323      1.0  0.6193269705323402  0.4437816175396244  0.026147532088153458  1.0000
  H   H324      1.0  0.6095618616686376  0.4475302609216523  0.9731898599852339  1.0000
  H   H325      1.0  0.640240872438398  0.4644041705920397  0.9922343419686814  1.0000
  H   H326      1.0  0.6825448398282727  0.4349476029302821  0.010301851344580506  1.0000
  H   H327      1.0  0.6809591340574016  0.39714564635146304  0.006612945245314306  1.0000
  H   H328      1.0  0.6611173212062985  0.4159196223461081  0.045145427648914944  1.0000
  N   N7        1.0  0.27519723564573306  0.39368133449416287  0.48971785772820364  1.0000
  C   C409      1.0  0.25641520925932637  0.37622850621606446  0.5142583785714713  1.0000
  C   C410      1.0  0.2641537043498523  0.42306125674956735  0.48909654038423445  1.0000
  C   C411      1.0  0.27684172434579274  0.3825183394969981  0.4469434333207843  1.0000
  C   C412      1.0  0.30334075921209996  0.39290422041721523  0.5085488039552308  1.0000
  H   H329      1.0  0.2630033476232693  0.35360783423957665  0.5132393839371505  1.0000
  H   H330      1.0  0.234689510000526  0.3776080925112654  0.5023930548508079  1.0000
  H   H331      1.0  0.2559187977991011  0.38298302831634057  0.5472776612284516  1.0000
  H   H332      1.0  0.2622848054546185  0.43204576579192144  0.5209051513633576  1.0000
  H   H333      1.0  0.27788669630359397  0.43696437451848624  0.47115625300300445  1.0000
  H   H334      1.0  0.24301936380190156  0.4243335995941327  0.4746075790710739  1.0000
  H   H335      1.0  0.29023416718456596  0.39563985729951756  0.42725767220350347  1.0000
  H   H336      1.0  0.2559065389973211  0.3817834981933267  0.43216431230204166  1.0000
  H   H337      1.0  0.2858437069814359  0.36066736437198577  0.44609729479774235  1.0000
  H   H338      1.0  0.31813929913443323  0.40575158502367853  0.49079075227462704  1.0000
  H   H339      1.0  0.31218220206867014  0.370979016976803  0.5094309197647661  1.0000
  H   H340      1.0  0.30299242109660707  0.40103820394165407  0.5409276832695226  1.0000
  N   N8        1.0  0.49083044858035696  0.45844469614160477  0.7348846915334507  1.0000
  C   C413      1.0  0.48885079045300817  0.4449339392252521  0.7756884810249811  1.0000
  C   C414      1.0  0.4762675398615052  0.48626117175539435  0.7363118537314075  1.0000
  C   C415      1.0  0.4777946007732601  0.4403232893556329  0.70318844648124  1.0000
  C   C416      1.0  0.5204479379576475  0.4622677140550816  0.724451411448795  1.0000
  H   H341      1.0  0.5003769868968303  0.4243469074310073  0.7762720434595873  1.0000
  H   H342      1.0  0.46687146077674285  0.4409237158283593  0.7841217938054902  1.0000
  H   H343      1.0  0.49779226162327705  0.4583361021487856  0.8005424523139133  1.0000
  H   H344      1.0  0.4539345027623235  0.4842470793715058  0.7445951383171108  1.0000
  H   H345      1.0  0.48586262017882575  0.5004031938616417  0.7598615322452007  1.0000
  H   H346      1.0  0.4772450691630083  0.49706896306231724  0.7060169978563829  1.0000
  H   H347      1.0  0.4881535928779018  0.4190927163694278  0.7018933055238726  1.0000
  H   H348      1.0  0.47930079391474806  0.449516621871331  0.67180085290536  1.0000
  H   H349      1.0  0.45538158619775226  0.4370825215096521  0.7098469762679899  1.0000
  H   H350      1.0  0.5320786584605132  0.44168865524391815  0.722875144251567  1.0000
  H   H351      1.0  0.5309991954172474  0.4756966387930312  0.7479420476233825  1.0000
  H   H352      1.0  0.522732446346488  0.472584960454729  0.6939806724279831  1.0000
  N   N9        1.0  0.06375564684686985  0.27439672422404326  0.9164978262945956  1.0000
  C   C417      1.0  0.06832325994381394  0.29637893374015417  0.8853414530673188  1.0000
  C   C418      1.0  0.07160489213490906  0.24646310260744858  0.8988467364723814  1.0000
  C   C419      1.0  0.034047528656664605  0.274774509893173  0.9282156050129149  1.0000
  C   C420      1.0  0.08092136686763224  0.27996374442222227  0.9535994073110496  1.0000
  H   H353      1.0  0.05602037537592054  0.2924267919634663  0.8566946741054234  1.0000
  H   H354      1.0  0.09066152492382909  0.29709886263396096  0.8763546601211889  1.0000
  H   H355      1.0  0.06206975108617674  0.31774646203800894  0.8972239395459809  1.0000
  H   H356      1.0  0.06825817288711744  0.22932987686460166  0.9214039109625901  1.0000
  H   H357      1.0  0.05905894118743782  0.24156892391532186  0.8707531911608138  1.0000
  H   H358      1.0  0.09397472032812822  0.24544105225720345  0.8897871136974875  1.0000
  H   H359      1.0  0.02983638031188152  0.2587407387599931  0.9521708462227164  1.0000
  H   H360      1.0  0.020489627554888475  0.2703037322453669  0.9012077005509281  1.0000
  H   H361      1.0  0.027403199441221382  0.2957104444091505  0.9411282236793703  1.0000
  H   H362      1.0  0.07787504751774277  0.2637293425300045  0.9776686542494625  1.0000
  H   H363      1.0  0.075350957149523  0.30073598262341955  0.968014790176514  1.0000
  H   H364      1.0  0.10355318011182918  0.27986789862766803  0.9461771558057527  1.0000
  N   N10       1.0  0.5698371993763499  0.7923554314950412  0.1063578356127244  1.0000
  C   C421      1.0  0.5407517120532703  0.7834475157702687  0.11132350926661266  1.0000
  C   C422      1.0  0.5831373959240442  0.7953808606402801  0.1474144881528157  1.0000
  C   C423      1.0  0.5699381251633648  0.8197252391803138  0.08493218486971855  1.0000
  C   C424      1.0  0.5855234920087511  0.7709325034449087  0.08168600884719673  1.0000
  H   H365      1.0  0.5280471969670272  0.7994800317021133  0.12886673143512853  1.0000
  H   H366      1.0  0.5397684302758674  0.7631367102414159  0.12808944235230754  1.0000
  H   H367      1.0  0.5304363600963642  0.7803839614864361  0.08074639708380298  1.0000
  H   H368      1.0  0.6050358659629773  0.8023799188901163  0.14466132479134783  1.0000
  H   H369      1.0  0.5717946478938284  0.8112467466943533  0.16703968734265726  1.0000
  H   H370      1.0  0.5838875552063175  0.775045499045583  0.1643153277562118  1.0000
  H   H371      1.0  0.5915347166098748  0.827198330441824  0.08092910864985575  1.0000
  H   H372      1.0  0.5580595824444399  0.8362899195979814  0.10261557283297237  1.0000
  H   H373      1.0  0.5602025179480423  0.8180952087167843  0.05373910112391389  1.0000
  H   H374      1.0  0.6077070827330597  0.776642732369891  0.07800683833699126  1.0000
  H   H375      1.0  0.5765518191379256  0.7684530499475491  0.050069201763141676  1.0000
  H   H376      1.0  0.5854995764663301  0.7498711640951757  0.09649371091296881  1.0000
  N   N11       1.0  0.14604408732749077  0.10569542835839246  0.9040978394884505  1.0000
  C   C425      1.0  0.1644964145504116  0.12848522377264637  0.8912305402530795  1.0000
  C   C426      1.0  0.11820602380519882  0.11781989632693549  0.9141542636645451  1.0000
  C   C427      1.0  0.15792530735840019  0.09164103479016486  0.9409488532830208  1.0000
  C   C428      1.0  0.1434759819175358  0.08486994529048797  0.8700600832214536  1.0000
  H   H377      1.0  0.16635284859909139  0.14508315678165487  0.9156290512134629  1.0000
  H   H378      1.0  0.15634530573990213  0.13919996389515935  0.8630903138404519  1.0000
  H   H379      1.0  0.18584723594638244  0.12033092642293511  0.8838889860491639  1.0000
  H   H380      1.0  0.10904813468756952  0.1292315531429754  0.8873140109957816  1.0000
  H   H381      1.0  0.10328014875780672  0.10115148615156645  0.922259799111848  1.0000
  H   H382      1.0  0.11912340827624124  0.13308565472417858  0.9404322771561364  1.0000
  H   H383      1.0  0.14433141870242602  0.07447761438463174  0.9515755308180363  1.0000
  H   H384      1.0  0.16027930335805549  0.10684842162773084  0.9671090020179136  1.0000
  H   H385      1.0  0.17887740815360703  0.08208772413734122  0.9343665871833012  1.0000
  H   H386      1.0  0.12949195302045471  0.06746523619216704  0.8785285294083125  1.0000
  H   H387      1.0  0.1640451299921687  0.07532341128279318  0.8613365199319664  1.0000
  H   H388      1.0  0.13435301098597427  0.09475226431523627  0.8418781888424215  1.0000
  N   N12       1.0  0.5026611065434555  0.4008808043854856  0.3921680470382697  1.0000
  C   C429      1.0  0.5017743199814362  0.4313977979973289  0.3833075173886326  1.0000
  C   C430      1.0  0.5298989441436011  0.3884933604221831  0.3793668647226991  1.0000
  C   C431      1.0  0.4801064033825741  0.38695777112875657  0.36904480787371097  1.0000
  C   C432      1.0  0.4988334454285329  0.3967339684174636  0.4369634418824573  1.0000
  H   H389      1.0  0.5187392944940927  0.4425479102513772  0.3998674248577753  1.0000
  H   H390      1.0  0.4815406978822793  0.4413902598743321  0.3927870160505105  1.0000
  H   H391      1.0  0.5043050392297583  0.43532846149032345  0.3497420483401347  1.0000
  H   H392      1.0  0.5475062070877099  0.398472541977504  0.39610300292198036  1.0000
  H   H393      1.0  0.5311783601975046  0.36542013591842437  0.38534949887291614  1.0000
  H   H394      1.0  0.5334170121958953  0.3912269251562754  0.3457257715645834  1.0000
  H   H395      1.0  0.45913142024009806  0.3949584780065137  0.378774895885292  1.0000
  H   H396      1.0  0.48073101812278607  0.36379291615124243  0.3736610721633207  1.0000
  H   H397      1.0  0.48190835562101786  0.39026814370873286  0.3353086545539702  1.0000
  H   H398      1.0  0.49937008185505954  0.3739954619163758  0.44478690469536986  1.0000
  H   H399      1.0  0.4783321254985717  0.40547363215696985  0.4476163301827399  1.0000
  H   H400      1.0  0.5154709944809949  0.4070161157236832  0.4553680308107815  1.0000
  N   N13       1.0  0.5719945464721398  0.815816886674113  0.4896117833425522  1.0000
  C   C433      1.0  0.569692783209373  0.8463078250503782  0.49935599835698874  1.0000
  C   C434      1.0  0.5662657788467563  0.799496158984144  0.5271930441619019  1.0000
  C   C435      1.0  0.6004959784161987  0.8089143878259313  0.47497498714363434  1.0000
  C   C436      1.0  0.5516163321489684  0.8085633381566676  0.4570135718665055  1.0000
  H   H401      1.0  0.5488452870628875  0.852110669087887  0.5121390231873801  1.0000
  H   H402      1.0  0.5728070019509738  0.8592929410871201  0.47136300774484924  1.0000
  H   H403      1.0  0.5855294728489799  0.8525721260111541  0.5227523701377461  1.0000
  H   H404      1.0  0.5809887118747256  0.8048221216114412  0.552648324626082  1.0000
  H   H405      1.0  0.5447069383833877  0.8039415693323178  0.5386609374965441  1.0000
  H   H406      1.0  0.5684910327968582  0.7763926593980628  0.5211734899366042  1.0000
  H   H407      1.0  0.6027647896090038  0.7863303875533478  0.4657332955766347  1.0000
  H   H408      1.0  0.6161729567359646  0.8127802284383339  0.4996918304527555  1.0000
  H   H409      1.0  0.6060462462717747  0.8219387840571186  0.4479524019465012  1.0000
  H   H410      1.0  0.5551572282015873  0.8206270914145553  0.42828665040152497  1.0000
  H   H411      1.0  0.5298607911090997  0.8133967223405008  0.46716537121758694  1.0000
  H   H412      1.0  0.5529095852171394  0.7856720849933406  0.4489010785287992  1.0000
  N   N14       1.0  0.03588918278333275  0.7478906480165793  0.5068734108491968  1.0000
  C   C437      1.0  0.02257097380381179  0.7517842233789708  0.4659657312090005  1.0000
  C   C438      1.0  0.014700117442032035  0.7395779796658021  0.537151539813848  1.0000
  C   C439      1.0  0.048262881716061745  0.7746637768323502  0.5205820498308632  1.0000
  C   C440      1.0  0.05789853056375138  0.7255880156282491  0.5038585400252541  1.0000
  H   H413      1.0  0.00544288420632677  0.76801713187897  0.467255365557932  1.0000
  H   H414      1.0  0.01366667441021474  0.7318236005822291  0.45408564664741347  1.0000
  H   H415      1.0  0.03779976603353452  0.7587204702214388  0.44257039229939754  1.0000
  H   H416      1.0  0.9983799846370491  0.7564741722404513  0.5413942247601032  1.0000
  H   H417      1.0  0.0041750192127609775  0.7199726109742391  0.5273323272934675  1.0000
  H   H418      1.0  0.024216231420004952  0.7356203915925792  0.5680704185645072  1.0000
  H   H419      1.0  0.05611972047563141  0.773384656902788  0.5529426730069239  1.0000
  H   H420      1.0  0.03279820100590469  0.7924760285175639  0.5194457910500807  1.0000
  H   H421      1.0  0.06623837318036974  0.780367912558766  0.5011631661031374  1.0000
  H   H422      1.0  0.06891428041158498  0.7225540405096127  0.5338201792143729  1.0000
  H   H423      1.0  0.07409020763972918  0.7309710449898608  0.4809627164685158  1.0000
  H   H424      1.0  0.04922247232228272  0.7049956252069193  0.49428500975901934  1.0000
  N   N15       1.0  0.9687886102660078  0.8067592875257387  0.7678905842673734  1.0000
  C   C441      1.0  0.9650851716811664  0.8290923001597393  0.7997340242466865  1.0000
  C   C442      1.0  0.9862407613436243  0.8172406587100866  0.7341610223943414  1.0000
  C   C443      1.0  0.9413149919933649  0.7989016121568921  0.7511517165895337  1.0000
  C   C444      1.0  0.9826585452227523  0.7817527273838996  0.7864276834003087  1.0000
  H   H425      1.0  0.9854342529071092  0.8353220889411168  0.8131882884727194  1.0000
  H   H426      1.0  0.952044630423071  0.8219378660921284  0.8258208554974847  1.0000
  H   H427      1.0  0.9549906655804029  0.8484374800341128  0.786669974636116  1.0000
  H   H428      1.0  0.9765971960252396  0.83628284968458  0.7196352117133027  1.0000
  H   H429      1.0  0.007242284113624375  0.8229470508183185  0.745675735630625  1.0000
  H   H430      1.0  0.9892814984298453  0.8010512675962527  0.7094747729419225  1.0000
  H   H431      1.0  0.9274670443419455  0.7912833744381373  0.775928712162031  1.0000
  H   H432      1.0  0.9434194021929243  0.7815972013966834  0.7277432774477077  1.0000
  H   H433      1.0  0.9305625766791199  0.817081724780263  0.7358098665726222  1.0000
  H   H434      1.0  0.9708002672943069  0.773873090750455  0.8132664379391579  1.0000
  H   H435      1.0  0.004078316379228841  0.7865053635524281  0.7970690239099861  1.0000
  H   H436      1.0  0.984736110962048  0.7641443181949685  0.7637384299191005  1.0000
  N   N16       1.0  0.8550729075980342  0.8820559768698655  0.4764826576851819  1.0000
  C   C445      1.0  0.8599107718196257  0.9073557906401835  0.5023220823858017  1.0000
  C   C446      1.0  0.8257016167197803  0.8738267331750017  0.48036578325508406  1.0000
  C   C447      1.0  0.873579699992044  0.8586347230839404  0.4904510682812879  1.0000
  C   C448      1.0  0.8611809532681743  0.8884137978698581  0.43288002243645834  1.0000
  H   H437      1.0  0.8462449347660722  0.9254472529284087  0.4927948416683654  1.0000
  H   H438      1.0  0.8819013328004577  0.9141641643644389  0.5000454853399587  1.0000
  H   H439      1.0  0.8556921992767479  0.9032629920225658  0.5354749403700491  1.0000
  H   H440      1.0  0.8211876542850557  0.8548950854972448  0.46112929083441023  1.0000
  H   H441      1.0  0.8206945005736787  0.8685694201007799  0.5128426346392505  1.0000
  H   H442      1.0  0.8110261624280497  0.8911378111045559  0.47086849204561954  1.0000
  H   H443      1.0  0.8700476777328848  0.8389297401820086  0.47248566036789713  1.0000
  H   H444      1.0  0.8701956003109242  0.8538184342367809  0.5235757048120302  1.0000
  H   H445      1.0  0.8958976554690905  0.8638652510660535  0.48703177672440645  1.0000
  H   H446      1.0  0.8580696409286042  0.8697079341948213  0.4125206794360144  1.0000
  H   H447      1.0  0.883215320368091  0.8948644695575655  0.4291238840455847  1.0000
  H   H448      1.0  0.8475740263435295  0.9059685202085347  0.4212574879151611  1.0000
  N   N17       1.0  0.9061134516492988  0.2933172570942526  0.8328706903224184  1.0000
  C   C449      1.0  0.8833110457553895  0.3110425998500588  0.8153070120464312  1.0000
  C   C450      1.0  0.9180027063262634  0.2746948600212586  0.800184495182751  1.0000
  C   C451      1.0  0.8950994207627231  0.275928737595709  0.8664980227384297  1.0000
  C   C452      1.0  0.9279948231627226  0.31177170492687967  0.8493455505166648  1.0000
  H   H449      1.0  0.8740291782970429  0.32547302513935  0.8391888598876243  1.0000
  H   H450      1.0  0.8663219290291904  0.29797207177089774  0.8025333318194008  1.0000
  H   H451      1.0  0.8909843601303775  0.324397315948381  0.7897685197222508  1.0000
  H   H452      1.0  0.9269655305227862  0.28711082311352687  0.7746513262322702  1.0000
  H   H453      1.0  0.9350031356834663  0.2607406505283289  0.812429413185121  1.0000
  H   H454      1.0  0.9019453385964863  0.2608816900759819  0.7864560642261258  1.0000
  H   H455      1.0  0.8855344645233653  0.28925488656554377  0.8913896926377112  1.0000
  H   H456      1.0  0.9117859368289486  0.2626450222680921  0.8811069718052958  1.0000
  H   H457      1.0  0.8788277626963074  0.26148172734542097  0.8549772048164974  1.0000
  H   H458      1.0  0.9458027756545242  0.2993876807838794  0.8623710702125785  1.0000
  H   H459      1.0  0.9197877651965823  0.3259523641816191  0.8742719788417646  1.0000
  H   H460      1.0  0.9364238564675434  0.32529495570637457  0.8247250057036691  1.0000
  N   N18       1.0  0.020375068787948036  0.43536041730560715  0.7184211823216334  1.0000
  C   C453      1.0  0.996192596846581  0.4203849053186572  0.7013183217932938  1.0000
  C   C454      1.0  0.0397722153611062  0.44172147342032914  0.6846144305473345  1.0000
  C   C455      1.0  0.03484249906674286  0.4173268266291539  0.749180923581614  1.0000
  C   C456      1.0  0.010685149116100412  0.4619543364591161  0.7385059337144461  1.0000
  H   H461      1.0  0.0027433947877439913  0.40020387837273275  0.6859760456945855  1.0000
  H   H462      1.0  0.9848629372651753  0.43324732954044703  0.6777170073527462  1.0000
  H   H463      1.0  0.9810736303219475  0.41529102722637257  0.7258328490243694  1.0000
  H   H464      1.0  0.05821163872426616  0.4532137158870137  0.6962257162658766  1.0000
  H   H465      1.0  0.04746215297626799  0.4220670189459012  0.6688046253011356  1.0000
  H   H466      1.0  0.02936265544870964  0.4549207612564575  0.6605072472127325  1.0000
  H   H467      1.0  0.05348009302860168  0.42776332453957716  0.7623118516233488  1.0000
  H   H468      1.0  0.041969314976218364  0.3968478863699363  0.7352705911653493  1.0000
  H   H469      1.0  0.020927918436605797  0.4125229891536155  0.7754586987718821  1.0000
  H   H470      1.0  0.02834948969249762  0.4737612105372453  0.7520861195669017  1.0000
  H   H471      1.0  0.9958788360699201  0.4579063653808653  0.7640203734399964  1.0000
  H   H472      1.0  0.9996750549129443  0.47609445278596324  0.7162024382636657  1.0000
  N   N19       1.0  0.6454613154338399  0.7503371287385647  0.6682345013401914  1.0000
  C   C457      1.0  0.6381385131281979  0.7265514317378028  0.6406844941659383  1.0000
  C   C458      1.0  0.6664086816411353  0.7406506004791936  0.6989712321946273  1.0000
  C   C459      1.0  0.6202364962384703  0.7609478093592101  0.6899782408478543  1.0000
  C   C460      1.0  0.6569990463291712  0.7731997062520555  0.643296412973853  1.0000
  H   H473      1.0  0.621860615676862  0.7329467397789518  0.6177348958497458  1.0000
  H   H474      1.0  0.6295790890331975  0.7087597226179236  0.6584142450067128  1.0000
  H   H475      1.0  0.6565601778278705  0.7182824169268928  0.6231824353020868  1.0000
  H   H476      1.0  0.6722882825785095  0.7579983556187859  0.7204884363489167  1.0000
  H   H477      1.0  0.6582647405928969  0.7235065652656496  0.7185073296663333  1.0000
  H   H478      1.0  0.6857366384147066  0.7323361936833059  0.6838230134096177  1.0000
  H   H479      1.0  0.6249204247949558  0.7789349145154914  0.7109964956549876  1.0000
  H   H480      1.0  0.6111451442003947  0.7441941599496655  0.7091923024197032  1.0000
  H   H481      1.0  0.6037531091132922  0.7680732562182072  0.6678150059714175  1.0000
  H   H482      1.0  0.662204592641581  0.7918018852508111  0.6627850355987392  1.0000
  H   H483      1.0  0.6418303270915038  0.7805810766865584  0.6193407445966125  1.0000
  H   H484      1.0  0.6763276996113269  0.7660552896972792  0.6269806458469226  1.0000
  N   N20       1.0  0.6371837501029833  0.6061520490982855  0.295002250875342  1.0000
  C   C461      1.0  0.6115290865801495  0.6236805245588831  0.29034644447054997  1.0000
  C   C462      1.0  0.6531017155876773  0.6064427193169364  0.25603638580669685  1.0000
  C   C463      1.0  0.6296990053343928  0.5769016060825392  0.3047302742463852  1.0000
  C   C464      1.0  0.6542953355503074  0.6177555568388537  0.32893653671439693  1.0000
  H   H485      1.0  0.5997082708180982  0.6250705638121682  0.31981931829457794  1.0000
  H   H486      1.0  0.5974656811178912  0.6149469148736807  0.2662456424126343  1.0000
  H   H487      1.0  0.6163047268678937  0.6455768077449844  0.28126025646141867  1.0000
  H   H488      1.0  0.6590312267122631  0.6283130041823396  0.2480119937114025  1.0000
  H   H489      1.0  0.6726167694136925  0.5933694426923665  0.25830426711535387  1.0000
  H   H490      1.0  0.6406390410231004  0.5980094199403582  0.22978139924473326  1.0000
  H   H491      1.0  0.6176982399208408  0.5760583779107338  0.33404179514922727  1.0000
  H   H492      1.0  0.6485013247573054  0.5629289684337611  0.3082973197161446  1.0000
  H   H493      1.0  0.6164496822767924  0.5675531937732345  0.28002588423242575  1.0000
  H   H494      1.0  0.6740764304361291  0.6053573265919202  0.333015311186093  1.0000
  H   H495      1.0  0.6429294122659368  0.6175354656475256  0.3588748311380429  1.0000
  H   H496      1.0  0.6597705824551335  0.6400514642828854  0.32292496514133495  1.0000
  N   N21       1.0  0.6220222651041525  0.31848008981992765  0.26379691010014156  1.0000
  C   C465      1.0  0.644082770503809  0.29669448076221044  0.25658486881818954  1.0000
  C   C466      1.0  0.6226045574705666  0.3277670421475358  0.30753651979426383  1.0000
  C   C467      1.0  0.5945811545592098  0.30651996336343756  0.2543992100904713  1.0000
  C   C468      1.0  0.6266356445579058  0.3428080373800435  0.2366724520228526  1.0000
  H   H497      1.0  0.6440256547342014  0.28907634435018853  0.22389342679800503  1.0000
  H   H498      1.0  0.6411381890674794  0.27797936769782944  0.2764968440588604  1.0000
  H   H499      1.0  0.665128034617787  0.30500370161986784  0.26328603727649424  1.0000
  H   H500      1.0  0.642734302379492  0.3375871945212922  0.3157697018359451  1.0000
  H   H501      1.0  0.6055734892475332  0.34352094161976576  0.31416828839488553  1.0000
  H   H502      1.0  0.6195983259413158  0.30974808601578563  0.3287874535558072  1.0000
  H   H503      1.0  0.5773306314812734  0.32218680682711454  0.2600059521349264  1.0000
  H   H504      1.0  0.5906020095871227  0.2880734724106757  0.2742622851371796  1.0000
  H   H505      1.0  0.5932108755917509  0.2994313856253439  0.22165637622835935  1.0000
  H   H506      1.0  0.6099155563807012  0.3592989924676444  0.2405386788566128  1.0000
  H   H507      1.0  0.6268939488454494  0.3363727226945803  0.2034766577421788  1.0000
  H   H508      1.0  0.6468801185537311  0.3529049929901012  0.24354228035478653  1.0000
  N   N22       1.0  0.5941449448311095  0.31562282102152006  0.5715270812606315  1.0000
  C   C469      1.0  0.6059626425923069  0.2904933163607516  0.5926253455689261  1.0000
  C   C470      1.0  0.577701250393888  0.30657665790286315  0.5352213617646958  1.0000
  C   C471      1.0  0.617000305110353  0.33361356698796807  0.5579034724343618  1.0000
  C   C472      1.0  0.5759031635263963  0.3318809782697106  0.6002871795903291  1.0000
  H   H509      1.0  0.6173443066657461  0.2963445425835596  0.6213952052492028  1.0000
  H   H510      1.0  0.6208430770165078  0.2784553763452552  0.5724935435089339  1.0000
  H   H511      1.0  0.5894270140663266  0.2758430681073943  0.6017732488214326  1.0000
  H   H512      1.0  0.5679513897318577  0.324992143177524  0.5191325799427087  1.0000
  H   H513      1.0  0.5909541189461891  0.2947594658379505  0.5124514499072916  1.0000
  H   H514      1.0  0.560595660968154  0.29251799995439637  0.5444705558290197  1.0000
  H   H515      1.0  0.6088074000441388  0.35264872556010424  0.5415854852643419  1.0000
  H   H516      1.0  0.631437405899437  0.32209124894287355  0.5363827027015485  1.0000
  H   H517      1.0  0.6295707695985998  0.3410314690916008  0.584698555981576  1.0000
  H   H518      1.0  0.5679464312603676  0.3518430182620684  0.5862190343991587  1.0000
  H   H519      1.0  0.5871286931486612  0.3376378860065272  0.6292608079859983  1.0000
  H   H520      1.0  0.5573479229677216  0.31979040200598147  0.6091175828993418  1.0000
  N   N23       1.0  0.5508760453826097  0.9617634900041426  0.947548537430996  1.0000
  C   C473      1.0  0.5793059856313163  0.9727255003149657  0.9520778119146269  1.0000
  C   C474      1.0  0.5397897715879745  0.9688914065832651  0.9061410637502283  1.0000
  C   C475      1.0  0.5325356548382387  0.9746742875756147  0.9794649698544777  1.0000
  C   C476      1.0  0.551802829773322  0.9308045652409968  0.9525475463684727  1.0000
  H   H521      1.0  0.5794246375295179  0.9960219425825573  0.9479521039448422  1.0000
  H   H522      1.0  0.5936171283885467  0.9634380408571103  0.9283207043244369  1.0000
  H   H523      1.0  0.5883789434068085  0.9679610936668774  0.9829852923045433  1.0000
  H   H524      1.0  0.5525875943260725  0.9588704991220602  0.8811514184550783  1.0000
  H   H525      1.0  0.5180356669414979  0.9618609964669135  0.9020880469521719  1.0000
  H   H526      1.0  0.5397713459937163  0.9920628134534574  0.9007738468672549  1.0000
  H   H527      1.0  0.5402023523352655  0.9697118873277096  0.011147000526339657  1.0000
  H   H528      1.0  0.5108994328750569  0.9667160936736705  0.9768485956898147  1.0000
  H   H529      1.0  0.5312486256492387  0.9980332004297765  0.9764741831452274  1.0000
  H   H530      1.0  0.5304823031387239  0.9221790252636981  0.9524048398775607  1.0000
  H   H531      1.0  0.5616474543811768  0.9246281266507999  0.9824071737995701  1.0000
  H   H532      1.0  0.5636506224003331  0.9201009520316005  0.9271313959558897  1.0000
  N   N24       1.0  0.3090331916266713  0.2346277573985733  0.6017460722875683  1.0000
  C   C477      1.0  0.32100733003778226  0.24327395335835106  0.5619376186318821  1.0000
  C   C478      1.0  0.2905441584519537  0.25746759409626724  0.6180518831962541  1.0000
  C   C479      1.0  0.33178916570667355  0.228940141611173  0.6316882423782311  1.0000
  C   C480      1.0  0.2927649604823271  0.20886065660020448  0.5954241904599177  1.0000
  H   H533      1.0  0.3343815197356756  0.26195432695773324  0.5659021304503666  1.0000
  H   H534      1.0  0.30441535728467883  0.2490062744866723  0.5390944093975368  1.0000
  H   H535      1.0  0.3342026707033785  0.22613129511771998  0.5479476034207842  1.0000
  H   H536      1.0  0.2736749552424107  0.2630412728398795  0.595642424529196  1.0000
  H   H537      1.0  0.2801313526845503  0.2511419570272197  0.6471121870294235  1.0000
  H   H538      1.0  0.30225787390528414  0.27686616388805757  0.6249601242263082  1.0000
  H   H539      1.0  0.32344342617485117  0.22250606219952332  0.6621362533451267  1.0000
  H   H540      1.0  0.3444898285374548  0.24802731565330483  0.6370523589885532  1.0000
  H   H541      1.0  0.346165053183177  0.2117767454587458  0.6204857492419582  1.0000
  H   H542      1.0  0.2754709098019506  0.2124749067887824  0.5729120203995001  1.0000
  H   H543      1.0  0.2829131039995884  0.20208003051914275  0.6247015104554897  1.0000
  H   H544      1.0  0.30597393345738383  0.19099314623845373  0.5835690676574081  1.0000
  N   N25       1.0  0.10580378488544986  0.8150226408856021  0.7096455714759697  1.0000
  C   C481      1.0  0.1305604111643787  0.7975504223295958  0.7208060793426609  1.0000
  C   C482      1.0  0.08985011370001439  0.8221074899298767  0.747422697935435  1.0000
  C   C483      1.0  0.08805588449541486  0.7992242097521991  0.6806711912659223  1.0000
  C   C484      1.0  0.11469694584282075  0.8411667621518936  0.6896565288874617  1.0000
  H   H545      1.0  0.14373145611020446  0.8083510295624382  0.7441346916156387  1.0000
  H   H546      1.0  0.14380429345512089  0.7927894303539768  0.6933707054272327  1.0000
  H   H547      1.0  0.12457091087718775  0.7770803642771924  0.7343420572113867  1.0000
  H   H548      1.0  0.07107621264826179  0.8353805476624621  0.7402882478444754  1.0000
  H   H549      1.0  0.08275240119740397  0.8027565956222361  0.7630466622398723  1.0000
  H   H550      1.0  0.10271493685834086  0.8339635915460208  0.7700516131316228  1.0000
  H   H551      1.0  0.06912373158578045  0.8118197332397443  0.6717278365403251  1.0000
  H   H552      1.0  0.08108795084983451  0.7791954474309503  0.694511706070608  1.0000
  H   H553      1.0  0.09945184063429188  0.7936575148607297  0.6517246430086522  1.0000
  H   H554      1.0  0.09651716556001727  0.8547114776039609  0.6803646097954019  1.0000
  H   H555      1.0  0.12727571049074027  0.8365004017961147  0.661426717198208  1.0000
  H   H556      1.0  0.12779671928315783  0.853800467243527  0.7107973086389964  1.0000
  N   N26       1.0  0.048598929197887226  0.2367504621000113  0.6581629446953982  1.0000
  C   C485      1.0  0.023275803235845105  0.25358852741538396  0.6689522814342812  1.0000
  C   C486      1.0  0.05344950743594068  0.23816418596120986  0.6131814560450685  1.0000
  C   C487      1.0  0.04483028757749708  0.20708284835611748  0.6699993685084353  1.0000
  C   C488      1.0  0.07284756245793345  0.2480990802726039  0.6805549151242162  1.0000
  H   H557      1.0  0.004513498698667907  0.2453622540158998  0.6529704541080891  1.0000
  H   H558      1.0  0.025133420595529813  0.2760152329184847  0.6597351756403107  1.0000
  H   H559      1.0  0.019182581182843886  0.2532697413468249  0.7027906385429177  1.0000
  H   H560      1.0  0.07254706863743432  0.22584604181958942  0.6041337357301645  1.0000
  H   H561      1.0  0.03552503211820168  0.22967256428974214  0.5954217431644634  1.0000
  H   H562      1.0  0.05592884600389447  0.26033765914766366  0.6030646273177215  1.0000
  H   H563      1.0  0.06378766938196057  0.19383073047724053  0.6632071880053033  1.0000
  H   H564      1.0  0.02698977852710316  0.19766214485260483  0.6532270667803299  1.0000
  H   H565      1.0  0.04057535467598905  0.2053719263825308  0.7036145811427136  1.0000
  H   H566      1.0  0.06957650687244676  0.24780621110682885  0.7146000357576839  1.0000
  H   H567      1.0  0.07662801021749388  0.27030704567439945  0.6718352555746943  1.0000
  H   H568      1.0  0.09223265235021655  0.2354406179410121  0.6739020369124037  1.0000
  N   N27       1.0  0.877564960335095  0.7529456533758607  0.12212640338617842  1.0000
  C   C489      1.0  0.8921482542725457  0.7312940730040904  0.14734066696608372  1.0000
  C   C490      1.0  0.8900706609626283  0.7806635649470793  0.13001014793707433  1.0000
  C   C491      1.0  0.8477231822571197  0.7544128978368385  0.13326559939535376  1.0000
  C   C492      1.0  0.8803997785783162  0.745424264592448  0.07787337473663825  1.0000
  H   H569      1.0  0.9147270209008393  0.7295942701832039  0.13941400703143492  1.0000
  H   H570      1.0  0.8832221477564063  0.7101029829688031  0.14229837651946764  1.0000
  H   H571      1.0  0.8907996758797876  0.7364470727757735  0.1809003389543249  1.0000
  H   H572      1.0  0.8803297187001463  0.797427823844147  0.11045429798808581  1.0000
  H   H573      1.0  0.8876600467845863  0.7874500429415551  0.1628226638010437  1.0000
  H   H574      1.0  0.9127621572309793  0.7799599181088248  0.12322629181447331  1.0000
  H   H575      1.0  0.8363767235016772  0.771143919403812  0.11567598508491828  1.0000
  H   H576      1.0  0.8447882021968196  0.7593623753487986  0.1666573564566851  1.0000
  H   H577      1.0  0.8372609600626135  0.7342030387547913  0.1263629845898253  1.0000
  H   H578      1.0  0.8700058177387388  0.761447353217064  0.05788124272026862  1.0000
  H   H579      1.0  0.8709832511888845  0.7247404612405074  0.07068304367718681  1.0000
  H   H580      1.0  0.9026689857520085  0.7439953003250208  0.06845916106069194  1.0000
  N   N28       1.0  0.036317641192932015  0.9793841023229496  0.6962930610159181  1.0000
  C   C493      1.0  0.055986759425617594  0.0026054300774283057  0.6914154297154117  1.0000
  C   C494      1.0  0.04742862594961772  0.9594176355285639  0.7274089592926701  1.0000
  C   C495      1.0  0.032858983001273545  0.9644802965724733  0.6563201696345023  1.0000
  C   C496      1.0  0.00903266347872256  0.9910460231021457  0.7101200677375293  1.0000
  H   H581      1.0  0.04881018435469442  0.017715399982264346  0.6673091716555146  1.0000
  H   H582      1.0  0.07716613985264709  0.9944794409406268  0.6826780045643993  1.0000
  H   H583      1.0  0.058407500475186516  0.014731545306955196  0.7207922626799192  1.0000
  H   H584      1.0  0.033118776265505634  0.9417271633045788  0.7321729934126887  1.0000
  H   H585      1.0  0.06795003764430474  0.9501095877513852  0.7178093087539037  1.0000
  H   H586      1.0  0.050663496646745416  0.9700443794923967  0.7578401175563121  1.0000
  H   H587      1.0  0.01797968723278842  0.946939086472753  0.658905323099643  1.0000
  H   H588      1.0  0.053031740515834924  0.9552791878101113  0.6450847236016438  1.0000
  H   H589      1.0  0.02448235864882764  0.9788996250377272  0.6320792438168144  1.0000
  H   H590      1.0  0.010832184707078916  0.002231041604827455  0.7403894635796626  1.0000
  H   H591      1.0  0.993602887766986  0.9741201022113755  0.7138035096024059  1.0000
  H   H592      1.0  7.626749969058418e-05  0.0062588802477454575  0.6873962487247329  1.0000
  N   N29       1.0  0.733112670974287  0.42671365187092386  0.5052200822760575  1.0000
  C   C497      1.0  0.7458864704830874  0.44522296739998524  0.47451683412441154  1.0000
  C   C498      1.0  0.7375835663413561  0.3969394385573151  0.49247829055559644  1.0000
  C   C499      1.0  0.7028777942057935  0.4332263913387636  0.5076215692776679  1.0000
  C   C500      1.0  0.7460649852012952  0.43142854445575995  0.5461868678647485  1.0000
  H   H593      1.0  0.7366048067333089  0.44202859296556835  0.44323988553957017  1.0000
  H   H594      1.0  0.7687424358992272  0.44091383878002705  0.4720335033484764  1.0000
  H   H595      1.0  0.7427894876486278  0.46788162927675675  0.4830226409027924  1.0000
  H   H596      1.0  0.7289743699154673  0.38233252919604577  0.5155777990616589  1.0000
  H   H597      1.0  0.7271541518508496  0.39227700820419686  0.46243241727800294  1.0000
  H   H598      1.0  0.7601156198950356  0.39145101861998954  0.4889240798503461  1.0000
  H   H599      1.0  0.6925962088702693  0.4196331576764931  0.5305483111061728  1.0000
  H   H600      1.0  0.6923689538516214  0.4297351475273588  0.47727217818735596  1.0000
  H   H601      1.0  0.6986268291303035  0.4555429207131143  0.5170343422498069  1.0000
  H   H602      1.0  0.736858787104081  0.41781531334862054  0.5701394054340322  1.0000
  H   H603      1.0  0.7431653544443566  0.45366449727275576  0.5569022852271749  1.0000
  H   H604      1.0  0.768877272217407  0.4265251974415017  0.5457972868452868  1.0000
  N   N30       1.0  0.00699378669325923  0.10324739380234838  0.25291223917999617  1.0000
  C   C501      1.0  0.003517593330006674  0.07689760731841533  0.228812575745632  1.0000
  C   C502      1.0  0.009633490509312281  0.09648589603614169  0.2972682348433904  1.0000
  C   C503      1.0  0.9825122449999505  0.1222548415380043  0.24647990255357963  1.0000
  C   C504      1.0  0.03240517208632743  0.11733341933299174  0.23910585163940473  1.0000
  H   H605      1.0  0.984748202003872  0.06544414873714909  0.23876005345707735  1.0000
  H   H606      1.0  0.021810758057565494  0.06219688347070584  0.23275885916032946  1.0000
  H   H607      1.0  0.0012848924772721482  0.08119434713677531  0.19520135089198093  1.0000
  H   H608      1.0  0.01321672040174593  0.1157265005797344  0.3164293713964203  1.0000
  H   H609      1.0  0.9906064069011792  0.08640010123254481  0.30910012133499554  1.0000
  H   H610      1.0  0.027460980079717867  0.08160377372038585  0.302889675925011  1.0000
  H   H611      1.0  0.9801735872905227  0.12824720843512236  0.21342819251907336  1.0000
  H   H612      1.0  0.9845238331406504  0.14227373438707266  0.26434092709528273  1.0000
  H   H613      1.0  0.9628897045252729  0.11232869206167835  0.2562918857529213  1.0000
  H   H614      1.0  0.036502672254312696  0.13653120726300602  0.2581006039629038  1.0000
  H   H615      1.0  0.030509860695206115  0.1242513336128873  0.2064250214091668  1.0000
  H   H616      1.0  0.05106209173250109  0.10303038772357716  0.24137092198324414  1.0000
  N   N31       1.0  0.8299909087878705  0.2804021442036036  0.5743416199549473  1.0000
  C   C505      1.0  0.8228246711488998  0.29983735030826075  0.6089054886818447  1.0000
  C   C506      1.0  0.8074971541577337  0.28148760634628617  0.5429945530191492  1.0000
  C   C507      1.0  0.8331875634755225  0.25136900480949775  0.5901473715111244  1.0000
  C   C508      1.0  0.8563876141754181  0.288926586877341  0.555283620845257  1.0000
  H   H617      1.0  0.8394476824004609  0.2998662338440825  0.6329693577329578  1.0000
  H   H618      1.0  0.802999284032585  0.2940040593522454  0.623991300877333  1.0000
  H   H619      1.0  0.820026141699393  0.32186701225839304  0.598128437093008  1.0000
  H   H620      1.0  0.8123679572986945  0.267383502128854  0.5161762992079296  1.0000
  H   H621      1.0  0.7873332125775391  0.2747542473852251  0.5561058902833121  1.0000
  H   H622      1.0  0.8041862541733396  0.3032558913968579  0.5310214924533859  1.0000
  H   H623      1.0  0.8135921706766082  0.24439392247230612  0.6048686794941446  1.0000
  H   H624      1.0  0.8500924200907692  0.24980274171186928  0.6137180245709705  1.0000
  H   H625      1.0  0.8383284586349633  0.23606449052632933  0.5648571424543458  1.0000
  H   H626      1.0  0.8631840997007942  0.2740124328153653  0.530324211191181  1.0000
  H   H627      1.0  0.8735965124696159  0.2900276785243757  0.5783793226402622  1.0000
  H   H628      1.0  0.8541653220250135  0.3101326185709172  0.5411362559331477  1.0000
  N   N32       1.0  0.9261415410372765  0.4113129563163244  0.9594201487949828  1.0000
  C   C509      1.0  0.9380610017697842  0.4396143245766647  0.9639947213315152  1.0000
  C   C510      1.0  0.9258908353120575  0.4030009031788258  0.9152570154205075  1.0000
  C   C511      1.0  0.8973443422337503  0.411978649252834  0.9754589428254244  1.0000
  C   C512      1.0  0.9432642143004949  0.3906969726902939  0.9830677771510232  1.0000
  H   H629      1.0  0.925870889215242  0.45574810315081665  0.9463161021008338  1.0000
  H   H630      1.0  0.9597881455617291  0.43981185627643626  0.952431803232524  1.0000
  H   H631      1.0  0.9388282770771309  0.4464837823219347  0.9969904271462351  1.0000
  H   H632      1.0  0.9135755092781741  0.41836760158339864  0.8963135552750197  1.0000
  H   H633      1.0  0.9473087840657447  0.4020900477419428  0.9022408992717322  1.0000
  H   H634      1.0  0.9167436355193476  0.3818455985065336  0.9107085852563613  1.0000
  H   H635      1.0  0.8876105057355119  0.39102518060249  0.9721471006614462  1.0000
  H   H636      1.0  0.883881690301761  0.4274792443261127  0.9585683839933186  1.0000
  H   H637      1.0  0.8968231781149881  0.4177597280386403  0.008874687599369269  1.0000
  H   H638      1.0  0.9347339584488016  0.36914222173196887  0.9808940042293552  1.0000
  H   H639      1.0  0.9442617867521045  0.39659877118770054  0.016405429331778354  1.0000
  H   H640      1.0  0.9650871504206283  0.3894427243310701  0.9716137467029025  1.0000
  N   N33       1.0  0.5363841611551758  0.950089118824306  0.5404752400489151  1.0000
  C   C513      1.0  0.5227834818902682  0.952671051549307  0.5812682970738312  1.0000
  C   C514      1.0  0.5657080753963989  0.9405789917045075  0.5461172807430302  1.0000
  C   C515      1.0  0.5355258347412504  0.9777431844401993  0.5197360855348954  1.0000
  C   C516      1.0  0.5215692112263565  0.9293398679044986  0.5146775048625613  1.0000
  H   H641      1.0  0.5230833599158872  0.9320865593212269  0.5975681469849212  1.0000
  H   H642      1.0  0.5006127029297782  0.9598508068817452  0.5782183360855738  1.0000
  H   H643      1.0  0.5335725341986336  0.9680594234022247  0.6016477534723975  1.0000
  H   H644      1.0  0.5768301039469536  0.9391412363074564  0.516034304133311  1.0000
  H   H645      1.0  0.5773364009584814  0.9554583635569261  0.566245817019106  1.0000
  H   H646      1.0  0.5671903247959875  0.9194391142718296  0.5607071080584666  1.0000
  H   H647      1.0  0.5137105327105619  0.9855005678677321  0.5146269928488098  1.0000
  H   H648      1.0  0.5456667649033953  0.9764019452469067  0.4888053989650327  1.0000
  H   H649      1.0  0.5465764693415662  0.9939761697040645  0.5381688843521938  1.0000
  H   H650      1.0  0.5313064305717091  0.9270473502187396  0.4836475216175721  1.0000
  H   H651      1.0  0.4993743256574735  0.9358331317873081  0.5095116158554482  1.0000
  H   H652      1.0  0.5217047876907123  0.9081113242980652  0.529086488571032  1.0000
  N   N34       1.0  0.5340692486288744  0.6196257894216385  0.8952396388867772  1.0000
  C   C517      1.0  0.5164869316824661  0.602125531255596  0.9216009596459428  1.0000
  C   C518      1.0  0.5390525802311209  0.6468791967849746  0.91628675011456  1.0000
  C   C519      1.0  0.5196095524934076  0.6248347056570461  0.8555282697451874  1.0000
  C   C520      1.0  0.5609720427385305  0.6046187733669103  0.8875309950085083  1.0000
  H   H653      1.0  0.5267307133884116  0.5977786037837624  0.9518702926841723  1.0000
  H   H654      1.0  0.5123354074616604  0.5813831593473856  0.9065567927027325  1.0000
  H   H655      1.0  0.4959669538047089  0.6127619883458034  0.9278473505927461  1.0000
  H   H656      1.0  0.5520583572197386  0.6607009057961651  0.8971472734626953  1.0000
  H   H657      1.0  0.5191683841477781  0.6588607325043905  0.9221560508288241  1.0000
  H   H658      1.0  0.549931594136138  0.6439361392968546  0.946407308528965  1.0000
  H   H659      1.0  0.5326740300039203  0.6371378928806017  0.8342525102324659  1.0000
  H   H660      1.0  0.49977072676246154  0.6371574086508974  0.8599938895566337  1.0000
  H   H661      1.0  0.5144740456529473  0.6047969630057426  0.8395137869588124  1.0000
  H   H662      1.0  0.5742574116434215  0.6163452739613929  0.8657969924660731  1.0000
  H   H663      1.0  0.5578658888449356  0.58338495138922  0.8735218728030668  1.0000
  H   H664      1.0  0.57311485501352  0.6015432070363232  0.9165544522977331  1.0000
  N   N35       1.0  0.4912205889659086  0.4772574394129361  0.1612153327721445  1.0000
  C   C521      1.0  0.47085278554807264  0.45479662605891746  0.16719819748760675  1.0000
  C   C522      1.0  0.4764772962013192  0.5049878487329096  0.16181860046057164  1.0000
  C   C523      1.0  0.5051840597743082  0.4730062838122752  0.12093087879958572  1.0000
  C   C524      1.0  0.5122671517633601  0.4762833540119961  0.19474161944707807  1.0000
  H   H665      1.0  0.4588791363932431  0.45798522178851503  0.19633045683568703  1.0000
  H   H666      1.0  0.4812843140622157  0.43362455471463124  0.1686528138774458  1.0000
  H   H667      1.0  0.45534307752517367  0.4542525538490738  0.14149101599344038  1.0000
  H   H668      1.0  0.4911603667922679  0.522475824619089  0.15721420736371863  1.0000
  H   H669      1.0  0.46032265077825485  0.5062807797931334  0.13699011077219497  1.0000
  H   H670      1.0  0.4657344230510159  0.5088891286993735  0.1918458821685031  1.0000
  H   H671      1.0  0.5212336130253928  0.4891100098897128  0.1157416490281413  1.0000
  H   H672      1.0  0.4899622131651365  0.47449749258854784  0.09490377662164344  1.0000
  H   H673      1.0  0.5157006104554548  0.4518623727458572  0.11873750001606033  1.0000
  H   H674      1.0  0.502527823422789  0.47960302851637215  0.22560871183026004  1.0000
  H   H675      1.0  0.5279926047806041  0.49298233659781354  0.19121700477626744  1.0000
  H   H676      1.0  0.5237903282624002  0.4556291514234083  0.19527438647496026  1.0000
  N   N36       1.0  0.8263665556829611  0.2653059379241222  0.1242585520694505  1.0000
  C   C525      1.0  0.7958592376703861  0.268793440348147  0.12933412493017946  1.0000
  C   C526      1.0  0.8333254921151927  0.2646328560938188  0.07979541398478097  1.0000
  C   C527      1.0  0.8359159589566276  0.23861140106552015  0.14349816082427172  1.0000
  C   C528      1.0  0.8404280618695829  0.28921297875150037  0.14441294129333895  1.0000
  H   H677      1.0  0.7898771373687677  0.2693970419781575  0.16250878266293406  1.0000
  H   H678      1.0  0.784492895008979  0.2512886193821515  0.11417866382005698  1.0000
  H   H679      1.0  0.7879652198370716  0.28883016608726725  0.11546342524372946  1.0000
  H   H680      1.0  0.8233711302048505  0.24672784379941365  0.06350401793271865  1.0000
  H   H681      1.0  0.8261343087349522  0.28436034103643787  0.06429278979407628  1.0000
  H   H682      1.0  0.8562821186704964  0.26245886971244703  0.07500378860172757  1.0000
  H   H683      1.0  0.8588241934469392  0.23523304801007208  0.14008795942633073  1.0000
  H   H684      1.0  0.8257130845421407  0.22013851238679116  0.12903729193525973  1.0000
  H   H685      1.0  0.8313113431698864  0.23852411935000106  0.17715688769062446  1.0000
  H   H686      1.0  0.836035177864121  0.29025674584510847  0.17810341848866482  1.0000
  H   H687      1.0  0.8333758101948507  0.3096980339243033  0.13092355485048063  1.0000
  H   H688      1.0  0.8634815455886001  0.28745251217495416  0.1405867261910961  1.0000
  N   N37       1.0  0.6482699888950972  0.2053449201374158  0.022641833012605028  1.0000
  C   C529      1.0  0.6313716729576825  0.1899609394724644  0.9919555073325875  1.0000
  C   C530      1.0  0.6334036940733211  0.23180767134839142  0.034660388408254805  1.0000
  C   C531      1.0  0.675510522934068  0.21202682496006386  0.004485930164218166  1.0000
  C   C532      1.0  0.6528251282851842  0.18766138180207137  0.05952809744535411  1.0000
  H   H689      1.0  0.6420795650479507  0.17009089892551277  0.9815159798211134  1.0000
  H   H690      1.0  0.6272928850628098  0.20288932657198133  0.9639890047237722  1.0000
  H   H691      1.0  0.6107483227726205  0.1844672624122088  0.004778893722112487  1.0000
  H   H692      1.0  0.612989160381947  0.22770847225650925  0.04935726179676481  1.0000
  H   H693      1.0  0.6457771403647753  0.24406200148820356  0.05726038980932834  1.0000
  H   H694      1.0  0.6294492446425314  0.24560583331703945  0.007526834655741332  1.0000
  H   H695      1.0  0.6729343544712106  0.2256193033556091  0.9768915476653517  1.0000
  H   H696      1.0  0.6872704030372938  0.19261908089825175  0.9946726524040481  1.0000
  H   H697      1.0  0.6888288699371817  0.22351296358631156  0.027048310224760286  1.0000
  H   H698      1.0  0.6666860333814498  0.19814530747168235  0.0823129391373569  1.0000
  H   H699      1.0  0.6629531633550011  0.1670206349021799  0.05135796814360871  1.0000
  H   H700      1.0  0.632887018397464  0.1835040991010124  0.07555758850459532  1.0000
  N   N38       1.0  0.3504216744149433  0.8233633245500231  0.1478076059773115  1.0000
  C   C533      1.0  0.32543269940519953  0.8120957674886623  0.16776263209721928  1.0000
  C   C534      1.0  0.3416586283188039  0.8435757981775477  0.11551653107907997  1.0000
  C   C535      1.0  0.3668681094031583  0.799875141516829  0.1289105066930022  1.0000
  C   C536      1.0  0.36771736258609167  0.8378923961973117  0.17890006847754356  1.0000
  H   H701      1.0  0.31198086590593127  0.8009733825545033  0.14496890688144246  1.0000
  H   H702      1.0  0.31226805581004413  0.8291468751181464  0.1821334052197503  1.0000
  H   H703      1.0  0.3310035095279762  0.7966545499877237  0.19228554880685553  1.0000
  H   H704      1.0  0.33023803318532796  0.8622251744324428  0.12880195707771083  1.0000
  H   H705      1.0  0.35979657243225827  0.8512653213999717  0.0978741750463897  1.0000
  H   H706      1.0  0.32736217123790634  0.8336752701282394  0.09291938178340978  1.0000
  H   H707      1.0  0.3543145976748012  0.7880268580683215  0.10592280380950463  1.0000
  H   H708      1.0  0.3743371813383066  0.784477737768821  0.1524156711527097  1.0000
  H   H709      1.0  0.3854664732160262  0.8076005577044777  0.11236375455711929  1.0000
  H   H710      1.0  0.3867599336636637  0.8465183586273888  0.16457215945229384  1.0000
  H   H711      1.0  0.37464683744525445  0.8232626043173344  0.20378991254268553  1.0000
  H   H712      1.0  0.3559855788449269  0.8558063764259036  0.19372041378496055  1.0000
  N   N39       1.0  0.6996087173162492  0.8959610099927254  0.6763694420835662  1.0000
  C   C537      1.0  0.6967770585519556  0.9124120482860214  0.6379673209373847  1.0000
  C   C538      1.0  0.7252198337123029  0.8780240541091959  0.6743731495644367  1.0000
  C   C539      1.0  0.6751036543740212  0.8780066676141173  0.6809298589931242  1.0000
  C   C540      1.0  0.7012692521844002  0.9154312764169323  0.7122016659008533  1.0000
  H   H713      1.0  0.6780093666491288  0.9266906145709474  0.6387458526316232  1.0000
  H   H714      1.0  0.6948247561754399  0.8983256587500322  0.6104826777877157  1.0000
  H   H715      1.0  0.7153522332406408  0.9255177620603913  0.6327310934430599  1.0000
  H   H716      1.0  0.7247316285282709  0.8632058555036954  0.647489990539387  1.0000
  H   H717      1.0  0.7441229493805334  0.8909173758868302  0.6705749187830672  1.0000
  H   H718      1.0  0.7281239040964627  0.8653120811134081  0.7028523942966908  1.0000
  H   H719      1.0  0.6730092582429101  0.8631378670029104  0.6542914611846994  1.0000
  H   H720      1.0  0.655509694622916  0.8910017128665996  0.6825444257811663  1.0000
  H   H721      1.0  0.6764300131651906  0.8654188144858317  0.709757974651565  1.0000
  H   H722      1.0  0.7036394847705414  0.9036888280136844  0.7417065013671426  1.0000
  H   H723      1.0  0.6820648853261376  0.9290066729264996  0.7149518751619602  1.0000
  H   H724      1.0  0.7193676919480108  0.9295101211561931  0.7096612994572782  1.0000
  N   N40       1.0  0.6786613231997378  0.7854956374057167  0.3609259660902394  1.0000
  C   C541      1.0  0.7049952436017531  0.789819398084606  0.38374304615551635  1.0000
  C   C542      1.0  0.6767069582606964  0.7554528584137598  0.3489921722990901  1.0000
  C   C543      1.0  0.6780318063734624  0.8031209643797809  0.3234606478866284  1.0000
  C   C544      1.0  0.6548177852621789  0.7935861192336842  0.3876165005083596  1.0000
  H   H725      1.0  0.7234202247207057  0.7836417293327912  0.36468616923605257  1.0000
  H   H726      1.0  0.7060176079426699  0.7771411498005226  0.41253776740263065  1.0000
  H   H727      1.0  0.7072546567664487  0.8123317838415984  0.39296951244849815  1.0000
  H   H728      1.0  0.6564345964028941  0.751187783304193  0.3338129219044141  1.0000
  H   H729      1.0  0.6934194657616262  0.7488438047921806  0.32694023505013914  1.0000
  H   H730      1.0  0.67837761781952  0.7414777070010176  0.3763254997489028  1.0000
  H   H731      1.0  0.6795910133143982  0.8259640425869704  0.33145633524084905  1.0000
  H   H732      1.0  0.6583788594708874  0.8005204480986818  0.3055949773430868  1.0000
  H   H733      1.0  0.6955575119699413  0.7974973594056598  0.3022799843636338  1.0000
  H   H734      1.0  0.6346407047281161  0.7906522669670704  0.3712557479303687  1.0000
  H   H735      1.0  0.6556723927893952  0.8161945586464877  0.39710366725249885  1.0000
  H   H736      1.0  0.6546526081599797  0.7806297821216103  0.4161457178658273  1.0000
  N   N41       1.0  0.5228297224438114  0.3310175111864294  0.1309884381037567  1.0000
  C   C545      1.0  0.5249827167044109  0.35964056147757006  0.14901043953037107  1.0000
  C   C546      1.0  0.5155302909973516  0.3110151462364032  0.1637564854654936  1.0000
  C   C547      1.0  0.5498490087419676  0.32229876401574564  0.11253577093643385  1.0000
  C   C548      1.0  0.5009493299531952  0.3311378294101482  0.09869890477322452  1.0000
  H   H737      1.0  0.5308649422612378  0.3752089356948134  0.12532569983855057  1.0000
  H   H738      1.0  0.5409992976700688  0.36018334947105074  0.17400894033376857  1.0000
  H   H739      1.0  0.5048325596279893  0.36701234854330966  0.16270045662926802  1.0000
  H   H740      1.0  0.49497180696073445  0.3166054281116703  0.17783724086848252  1.0000
  H   H741      1.0  0.5142763155709393  0.2890467495748433  0.15146851055847654  1.0000
  H   H742      1.0  0.5314086257538077  0.31066940533328324  0.18893083155271762  1.0000
  H   H743      1.0  0.5490064908327287  0.30068916645721444  0.09885684811003959  1.0000
  H   H744      1.0  0.5667982529139162  0.32185742648070476  0.136155513914769  1.0000
  H   H745      1.0  0.5560924855967644  0.33689215260384964  0.08768506924172703  1.0000
  H   H746      1.0  0.5061081293654738  0.3452252056548813  0.07267977980049478  1.0000
  H   H747      1.0  0.4805323998735748  0.33860997585267283  0.11131857518969124  1.0000
  H   H748      1.0  0.4977952032218151  0.3095998176522817  0.08574616431300885  1.0000
  N   N42       1.0  0.5240657133791846  0.04397671085992272  0.2072270294212003  1.0000
  C   C549      1.0  0.5137805243961124  0.07243013703359424  0.21975390364140104  1.0000
  C   C550      1.0  0.5001760881333759  0.02533287915848903  0.2006578567504586  1.0000
  C   C551      1.0  0.5421608434612244  0.03227216278778933  0.24013140469633257  1.0000
  C   C552      1.0  0.5402625136333538  0.04573475319585674  0.1686847792663208  1.0000
  H   H749      1.0  0.5004678382338194  0.08229465866764141  0.19541277474507324  1.0000
  H   H750      1.0  0.5313117116036413  0.08681514211570329  0.22639323197916497  1.0000
  H   H751      1.0  0.501079710208324  0.07159938028504564  0.24844669168782188  1.0000
  H   H752      1.0  0.5072761555186708  0.0033295248472662298  0.19295117992158398  1.0000
  H   H753      1.0  0.4871622787218735  0.024257727594349854  0.22898786273848215  1.0000
  H   H754      1.0  0.48641950486146696  0.03296347762545837  0.17518138503143496  1.0000
  H   H755      1.0  0.5503822550818928  0.010814633960013253  0.2319301310005834  1.0000
  H   H756      1.0  0.530489836655585  0.03058972640356239  0.26954632880397916  1.0000
  H   H757      1.0  0.5604116645521371  0.045754494276508684  0.24617838940330253  1.0000
  H   H758      1.0  0.558482568081456  0.05960248398500534  0.17289533638423957  1.0000
  H   H759      1.0  0.5272909573031032  0.05446060604245684  0.1430402778794585  1.0000
  H   H760      1.0  0.5483969236086513  0.024501576509576184  0.15883684033080492  1.0000
  N   N43       1.0  0.2556670420013813  0.3872651282082899  0.020278604490495233  1.0000
  C   C553      1.0  0.24905697935302512  0.3572118291605578  0.025233003243863687  1.0000
  C   C554      1.0  0.28620408618923865  0.3901688680315148  0.017589407795529644  1.0000
  C   C555      1.0  0.244993668078302  0.40359923001412634  0.0562587882644735  1.0000
  C   C556      1.0  0.2424227253743432  0.39808316702389535  0.9820704652086304  1.0000
  H   H761      1.0  0.2571068738182767  0.3440499287831169  0.999064586574006  1.0000
  H   H762      1.0  0.22617781503350087  0.35420277818209245  0.026938551869444497  1.0000
  H   H763      1.0  0.2582542416226873  0.3485782792733398  0.054138990938934935  1.0000
  H   H764      1.0  0.29200136328410636  0.41264385918120833  0.014776756353887643  1.0000
  H   H765      1.0  0.2968816225681268  0.3819282083813066  0.04569732718234754  1.0000
  H   H766      1.0  0.29499962748966096  0.3783250319408946  0.9906212380039545  1.0000
  H   H767      1.0  0.24919180893873785  0.4264494176990071  0.05336662658404534  1.0000
  H   H768      1.0  0.25502151227403685  0.3963618388299545  0.08548876520213969  1.0000
  H   H769      1.0  0.22208005036370268  0.4013589786388199  0.05977605515912556  1.0000
  H   H770      1.0  0.24702686644675048  0.4206908315157421  0.9772975760097761  1.0000
  H   H771      1.0  0.2193466299040746  0.3963968727025236  0.9831516009035776  1.0000
  H   H772      1.0  0.2497397656640204  0.38599556396855333  0.954377185793718  1.0000
  N   N44       1.0  0.27999015677021916  0.8447112167670062  0.6280414082395975  1.0000
  C   C557      1.0  0.2875844570670517  0.8695592006848729  0.603701019027224  1.0000
  C   C558      1.0  0.305463232010296  0.8281739495760058  0.6388737029284497  1.0000
  C   C559      1.0  0.261203369508595  0.8268596079385884  0.6033684772654723  1.0000
  C   C560      1.0  0.265652463531395  0.8543422365163009  0.6661479447166964  1.0000
  H   H773      1.0  0.26873210656714586  0.8819341903818757  0.5936804367242489  1.0000
  H   H774      1.0  0.2992977463889952  0.8632283273160531  0.5754728663046743  1.0000
  H   H775      1.0  0.3011941635240355  0.8838669506259607  0.6216946221683669  1.0000
  H   H776      1.0  0.3205684377183968  0.8411461903472314  0.6564213021982218  1.0000
  H   H777      1.0  0.30054668278153585  0.8095126547588176  0.6578151308360428  1.0000
  H   H778      1.0  0.31645294648178596  0.8201945007898014  0.6106704749264229  1.0000
  H   H779      1.0  0.27171535099868716  0.818422748089093  0.5751709345472505  1.0000
  H   H780      1.0  0.24229283836873655  0.8389381767593541  0.5931133674882066  1.0000
  H   H781      1.0  0.25419607042775116  0.8084235298230726  0.6211968954122018  1.0000
  H   H782      1.0  0.2582929207643927  0.8362641349987827  0.6844711509734529  1.0000
  H   H783      1.0  0.2471034045964857  0.8679754339997963  0.6587908870403054  1.0000
  H   H784      1.0  0.27959383974422125  0.8669397637814058  0.6862803523047176  1.0000
  N   N45       1.0  0.5651425755803072  0.293198342261421  0.8049400009013529  1.0000
  C   C561      1.0  0.5959267420913331  0.2913706908348345  0.8057275059546682  1.0000
  C   C562      1.0  0.5549725878404257  0.3076879515187176  0.8428101874227731  1.0000
  C   C563      1.0  0.5538632862872096  0.2645138339616767  0.8027750213803281  1.0000
  C   C564      1.0  0.5557900206901428  0.3092647035294184  0.7683401340315592  1.0000
  H   H785      1.0  0.6050259589264851  0.31271673793007415  0.8074969296217926  1.0000
  H   H786      1.0  0.604158338470339  0.28084099994551176  0.7772263097218438  1.0000
  H   H787      1.0  0.6036977751381912  0.27897551184876385  0.8326757202561276  1.0000
  H   H788      1.0  0.5317969144497372  0.3098485897506061  0.8428093940013294  1.0000
  H   H789      1.0  0.561451130602899  0.2960084495084792  0.8710683847962266  1.0000
  H   H790      1.0  0.5630540965952153  0.3294532217069885  0.8453551253251729  1.0000
  H   H791      1.0  0.5306713751039634  0.2651059672760659  0.8030352399813764  1.0000
  H   H792      1.0  0.5612121837393947  0.2514155852668983  0.8292549688050671  1.0000
  H   H793      1.0  0.5604123588894449  0.2534121257415362  0.7738404820382613  1.0000
  H   H794      1.0  0.5326388881908466  0.3103962407062862  0.7660291912351059  1.0000
  H   H795      1.0  0.5637983592436148  0.29947498713907483  0.7392286555731277  1.0000
  H   H796      1.0  0.5632036586849707  0.3312631977503051  0.769686155895297  1.0000
  N   N46       1.0  0.6139680223657703  0.8286009452283976  0.92844542518008  1.0000
  C   C565      1.0  0.6134987727012816  0.856656826584646  0.9089480173085581  1.0000
  C   C566      1.0  0.609762216124343  0.8066697945503571  0.8964025335853266  1.0000
  C   C567      1.0  0.5915497974169052  0.8272690329631969  0.9594983262094741  1.0000
  C   C568      1.0  0.6411555034780767  0.8237055829700218  0.9490496758314811  1.0000
  H   H797      1.0  0.6170697897517944  0.873736505086079  0.932047988047913  1.0000
  H   H798      1.0  0.5931806312191762  0.8611806409558787  0.893354155479559  1.0000
  H   H799      1.0  0.6300971152552229  0.8580938940970859  0.8851183548106897  1.0000
  H   H800      1.0  0.6097971798822102  0.7852964373593255  0.9101342444929692  1.0000
  H   H801      1.0  0.589525163634634  0.8099107445797366  0.8799658459622637  1.0000
  H   H802      1.0  0.6266083159690663  0.8065507672425797  0.8728357473930352  1.0000
  H   H803      1.0  0.591442769796343  0.8061824335349119  0.9744970236535208  1.0000
  H   H804      1.0  0.5706058759119732  0.830649258196147  0.9453028040951793  1.0000
  H   H805      1.0  0.5941056636378115  0.8434096404079982  0.9842820818296714  1.0000
  H   H806      1.0  0.6457404482490529  0.8407660806344286  0.9717520340040181  1.0000
  H   H807      1.0  0.6584755598908635  0.8224441768033149  0.92631504692812  1.0000
  H   H808      1.0  0.6415674826477458  0.8036512333252652  0.9664212420568854  1.0000
  N   N47       1.0  0.34777377641034124  0.2756600767347979  0.18566230928608374  1.0000
  C   C569      1.0  0.36416665977233303  0.28575580001327566  0.1504609475901234  1.0000
  C   C570      1.0  0.33258372615697723  0.29974334512282147  0.20528403901040493  1.0000
  C   C571      1.0  0.36684193239116164  0.2624039340571769  0.21623811783083757  1.0000
  C   C572      1.0  0.3275874750992588  0.25478580383375915  0.17070951012452432  1.0000
  H   H809      1.0  0.37682264256601183  0.26841975499638243  0.1357966998682631  1.0000
  H   H810      1.0  0.3789098115570448  0.3021882329131554  0.16041001044332  1.0000
  H   H811      1.0  0.3506110213206026  0.295177699446628  0.1261030384560457  1.0000
  H   H812      1.0  0.31799436729993397  0.31029032002035173  0.18318973496842866  1.0000
  H   H813      1.0  0.3199996189122084  0.2928868924145075  0.23199782389658502  1.0000
  H   H814      1.0  0.3471338119906278  0.31602552389276956  0.21672020120415075  1.0000
  H   H815      1.0  0.3552503026854651  0.2538749114099474  0.2428609522716197  1.0000
  H   H816      1.0  0.38185336576695356  0.2778517432517284  0.22882184427757854  1.0000
  H   H817      1.0  0.3794075786841269  0.24472619232617382  0.20224178341487561  1.0000
  H   H818      1.0  0.31265781632240125  0.26422412867526635  0.14792576792330595  1.0000
  H   H819      1.0  0.3149269722130803  0.24658307534442644  0.19647534732384703  1.0000
  H   H820      1.0  0.33830173778828  0.23647621296230376  0.1553048914112662  1.0000
  N   N48       1.0  0.67168298114512  0.08872695630212209  0.7204976115194133  1.0000
  C   C573      1.0  0.6565060353473573  0.06250019136534735  0.712203683881439  1.0000
  C   C574      1.0  0.6622641589703646  0.11061340853213096  0.6910377295466086  1.0000
  C   C575      1.0  0.7019730609672354  0.08343808761244409  0.7157105290211051  1.0000
  C   C576      1.0  0.6659094598301765  0.09855114057848503  0.7631300806862262  1.0000
  H   H821      1.0  0.6335526584508937  0.06623021504648485  0.7147486485972081  1.0000
  H   H822      1.0  0.6623567354114199  0.04569792805338002  0.7346224324265765  1.0000
  H   H823      1.0  0.6606593982426258  0.05417804802266878  0.6805109968148632  1.0000
  H   H824      1.0  0.6728933316169216  0.1309151230939314  0.6969215913110434  1.0000
  H   H825      1.0  0.6665997692740876  0.10415111993309224  0.6585268470666059  1.0000
  H   H826      1.0  0.6393727976187173  0.11480310175804219  0.6934748481004107  1.0000
  H   H827      1.0  0.7098276514037835  0.06712928384617833  0.7376429039718628  1.0000
  H   H828      1.0  0.7137844981805924  0.1030439835346278  0.7217979926641832  1.0000
  H   H829      1.0  0.7071656655232653  0.07608228836384923  0.6838413912584894  1.0000
  H   H830      1.0  0.6771580816996876  0.118249447766617  0.7705397918253559  1.0000
  H   H831      1.0  0.6722907664570847  0.0824440943036635  0.7862918480022598  1.0000
  H   H832      1.0  0.6432963221780402  0.10311703703056359  0.7676013388798426  1.0000
  N   N49       1.0  0.010648048786704  0.6234753499409884  0.910135867797958  1.0000
  C   C577      1.0  0.03922332752842905  0.6330334395269652  0.9025511642699388  1.0000
  C   C578      1.0  0.00184452558201742  0.6049301855782947  0.8757498001696256  1.0000
  C   C579      1.0  0.9914310844284363  0.6482580131533499  0.9129630424149626  1.0000
  C   C580      1.0  0.01020420778793607  0.6076504624440121  0.949236991554237  1.0000
  H   H833      1.0  0.04613242700191478  0.6480978970169589  0.9268874762406901  1.0000
  H   H834      1.0  0.0405510009296548  0.6440529841163861  0.8724994848630242  1.0000
  H   H835      1.0  0.054505877611287  0.6150485915183078  0.9018106330215648  1.0000
  H   H836      1.0  0.015115956889297344  0.5854155678237404  0.8741069270934592  1.0000
  H   H837      1.0  0.9799413108845223  0.5982961024980883  0.8793400431035298  1.0000
  H   H838      1.0  0.003434019538389954  0.6155571492819537  0.845297020989141  1.0000
  H   H839      1.0  0.9977097111544938  0.6629538474651413  0.938201916741978  1.0000
  H   H840      1.0  0.969649420551515  0.6419675422708274  0.9188141335476506  1.0000
  H   H841      1.0  0.9914050553651912  0.660584904128591  0.883856015283714  1.0000
  H   H842      1.0  0.9889833385965753  0.5999964924666724  0.95592656547391  1.0000
  H   H843      1.0  0.016858719335018924  0.6209833672815284  0.9758312267681563  1.0000
  H   H844      1.0  0.024588060679316515  0.5888041669953291  0.9479060477584992  1.0000
  N   N50       1.0  0.48997091958583117  0.22151891188201533  0.44487165991672517  1.0000
  C   C581      1.0  0.5095323992200054  0.1976278336071098  0.43624424017514396  1.0000
  C   C582      1.0  0.5053325259639483  0.24493157076895894  0.4640350958922883  1.0000
  C   C583      1.0  0.4681011001136531  0.21246328558631686  0.4735130946489941  1.0000
  C   C584      1.0  0.4769644623898832  0.23110497225590268  0.405780639365142  1.0000
  H   H845      1.0  0.5264609580680288  0.20388573018707334  0.4149868595532226  1.0000
  H   H846      1.0  0.49873038474558967  0.17963301832365272  0.4213795724266533  1.0000
  H   H847      1.0  0.5196052902093172  0.18976970549269406  0.46513352941591773  1.0000
  H   H848      1.0  0.5224325428945095  0.251868470436123  0.44370297266905195  1.0000
  H   H849      1.0  0.4913129625261104  0.26356166778887935  0.47009038675318954  1.0000
  H   H850      1.0  0.5147557078315229  0.23865786896120528  0.4942112246331906  1.0000
  H   H851      1.0  0.45336937716573295  0.23021398245334868  0.48133064945322657  1.0000
  H   H852      1.0  0.47726163462467597  0.20485293150034245  0.5032118240505544  1.0000
  H   H853      1.0  0.4558112977389792  0.19503096833161948  0.4600052975107735  1.0000
  H   H854      1.0  0.4627103192418523  0.2497087273029999  0.41088498080675706  1.0000
  H   H855      1.0  0.46468486043785173  0.214193227101766  0.3907974136613011  1.0000
  H   H856      1.0  0.49295087337436294  0.2373564605115864  0.383077315028242  1.0000
  N   N51       1.0  0.7728019690836488  0.8898356393438077  0.011381227697173426  1.0000
  C   C585      1.0  0.7576526968452019  0.9107527120923976  0.9855749315917192  1.0000
  C   C586      1.0  0.803128578228218  0.892782013232583  0.00563041815299492  1.0000
  C   C587      1.0  0.7647352941057576  0.8610615446249693  0.9990428862314544  1.0000
  C   C588      1.0  0.7656248356855614  0.8947623429939824  0.05529266537768086  1.0000
  H   H857      1.0  0.7638859983114068  0.9326351748769169  0.9932344905349126  1.0000
  H   H858      1.0  0.7347770930907466  0.9098899538731178  0.9903584826872652  1.0000
  H   H859      1.0  0.7615561651469159  0.9069653494502722  0.9520724063417418  1.0000
  H   H860      1.0  0.8152597659969631  0.8774501373851188  0.024702185667121904  1.0000
  H   H861      1.0  0.8092764376506311  0.8889763758360486  0.972896865781356  1.0000
  H   H862      1.0  0.8100600022529509  0.9141685213990133  0.014852761463816535  1.0000
  H   H863      1.0  0.7765784268776195  0.8447252026713485  0.01678871380501157  1.0000
  H   H864      1.0  0.7686675166086111  0.8568544102000789  0.9656687229147625  1.0000
  H   H865      1.0  0.7422385617640701  0.8577681758148891  0.004833906637113916  1.0000
  H   H866      1.0  0.7716207679751975  0.9161538335084833  0.06593976735010385  1.0000
  H   H867      1.0  0.7763998240530893  0.8791357720010694  0.07561553563003778  1.0000
  H   H868      1.0  0.7427901413005672  0.8928740886741163  0.06052550881814064  1.0000
  N   N52       1.0  0.4989841478793232  0.7941270111836432  0.8008015203922751  1.0000
  C   C589      1.0  0.48246096353548734  0.7682291875787618  0.7995222387536178  1.0000
  C   C590      1.0  0.4812720208000893  0.8181424276230138  0.8153400850920025  1.0000
  C   C591      1.0  0.509409282388885  0.8000869137692062  0.7589552270002141  1.0000
  C   C592      1.0  0.5228241631265219  0.7901101041860498  0.8293627715823072  1.0000
  H   H869      1.0  0.49533659189831053  0.7495858831045112  0.7892948236447869  1.0000
  H   H870      1.0  0.4645481996614887  0.7703317854446469  0.7776173814107362  1.0000
  H   H871      1.0  0.4740369853192157  0.7632198733014725  0.8305220260652506  1.0000
  H   H872      1.0  0.4930362693358735  0.8380971533176438  0.8160194644217179  1.0000
  H   H873      1.0  0.46285511926097833  0.8215140006770134  0.7947461995160894  1.0000
  H   H874      1.0  0.4734003550816562  0.8146484440974683  0.8471689577927387  1.0000
  H   H875      1.0  0.4918786243547324  0.8036511055977705  0.7367578918921597  1.0000
  H   H876      1.0  0.5224754205574581  0.7821995514834088  0.7466675013094556  1.0000
  H   H877      1.0  0.5222664682758095  0.8193268113354573  0.7588964769494773  1.0000
  H   H878      1.0  0.5359837911818637  0.7714508761033948  0.8202679900759149  1.0000
  H   H879      1.0  0.5156567398892224  0.786691321857571  0.861564246302322  1.0000
  H   H880      1.0  0.5363644696817863  0.8088127863989315  0.8296963704571217  1.0000
  N   N53       1.0  0.5149403335450627  0.6956316367726377  0.528895557810668  1.0000
  C   C593      1.0  0.4864089817019015  0.6846438653790384  0.5303566890028617  1.0000
  C   C594      1.0  0.5153164809092929  0.720181061032136  0.5012022360191951  1.0000
  C   C595      1.0  0.5344087963210449  0.6734138680952068  0.5131993825869182  1.0000
  C   C596      1.0  0.5235796317600883  0.704456441537576  0.5708330735369325  1.0000
  H   H881      1.0  0.471331459017709  0.7007584380701966  0.5429489788917424  1.0000
  H   H882      1.0  0.4853801630704935  0.6656924206373721  0.5501819659997788  1.0000
  H   H883      1.0  0.47873374625451576  0.6788024959843887  0.4989337601257005  1.0000
  H   H884      1.0  0.5007607616933875  0.7372749094282558  0.5120183899638572  1.0000
  H   H885      1.0  0.5365504156614398  0.7289459809946396  0.4990332344260203  1.0000
  H   H886      1.0  0.508587994764652  0.7143139425241849  0.46944059571153873  1.0000
  H   H887      1.0  0.5353336861719086  0.6548976936688373  0.5340349781319026  1.0000
  H   H888      1.0  0.5559847205348987  0.6813713066421483  0.5104368073312009  1.0000
  H   H889      1.0  0.5279721440297774  0.665667937559441  0.48205684194508036  1.0000
  H   H890      1.0  0.54491184317184  0.7131976160932254  0.5708960057764182  1.0000
  H   H891      1.0  0.5238459392577878  0.6865135929487505  0.5927519289462887  1.0000
  H   H892      1.0  0.5090630858411008  0.720967601666366  0.5836535567420597  1.0000
  N   N54       1.0  0.6967720780125604  0.2919104075876182  0.783630207284623  1.0000
  C   C597      1.0  0.6766213188113419  0.29868951984501124  0.8168858028958677  1.0000
  C   C598      1.0  0.7168935911474088  0.31489974086160244  0.7807130079607231  1.0000
  C   C599      1.0  0.6817337912776824  0.2890623540404789  0.7439432948652653  1.0000
  C   C600      1.0  0.7118675680144065  0.26514395658842393  0.7929366019163273  1.0000
  H   H893      1.0  0.6643309012300218  0.31835544847817027  0.8100916521357564  1.0000
  H   H894      1.0  0.6874584127105403  0.30208297647963894  0.8469605447918152  1.0000
  H   H895      1.0  0.6617913073170718  0.28129999326584915  0.8211786005972841  1.0000
  H   H896      1.0  0.7283940469197377  0.317837934588366  0.810368185825857  1.0000
  H   H897      1.0  0.7325961353772285  0.3104305818118867  0.7561486319711785  1.0000
  H   H898      1.0  0.7062088574418228  0.3353612851724283  0.7732487899219915  1.0000
  H   H899      1.0  0.6963527665290747  0.2847782011239567  0.717997681187748  1.0000
  H   H900      1.0  0.6696960144448194  0.30863930425415903  0.7364226982358099  1.0000
  H   H901      1.0  0.6667471301737709  0.2715807125492191  0.7444450498200311  1.0000
  H   H902      1.0  0.6973495147358065  0.24728855033061323  0.7954140537419935  1.0000
  H   H903      1.0  0.7234916572645768  0.26659789651255655  0.822748572627356  1.0000
  H   H904      1.0  0.7271086722852976  0.259322298092131  0.7682305290861661  1.0000
  N   N55       1.0  0.4757847415617715  0.8339253077603824  0.3119404789155483  1.0000
  C   C601      1.0  0.49458076848819216  0.8377822673011128  0.3477503486400104  1.0000
  C   C602      1.0  0.4925677013702624  0.8291228714681509  0.27419767596846684  1.0000
  C   C603      1.0  0.45790114171743257  0.8594676965705393  0.3069793993646248  1.0000
  C   C604      1.0  0.4580925917467358  0.8093653195198967  0.3189169710685726  1.0000
  H   H905      1.0  0.48260105273458126  0.8405456485877475  0.3769965394237867  1.0000
  H   H906      1.0  0.5074155184290641  0.8568551854920309  0.3442278818073366  1.0000
  H   H907      1.0  0.5090620477481348  0.8192664804019504  0.3514128799494973  1.0000
  H   H908      1.0  0.4791023678985279  0.8266757542853761  0.24631098904877988  1.0000
  H   H909      1.0  0.5064612497091003  0.8471167555706477  0.2683956981390769  1.0000
  H   H910      1.0  0.5059641798098391  0.809674040391572  0.27673514509920555  1.0000
  H   H911      1.0  0.44365932750788734  0.8576055726880824  0.2799511436327985  1.0000
  H   H912      1.0  0.47058855183518955  0.8785232125233843  0.30232477071731567  1.0000
  H   H913      1.0  0.4448156461553136  0.8636076411152419  0.3348332628898985  1.0000
  H   H914      1.0  0.44576699398008934  0.8118968077109541  0.34787484847270644  1.0000
  H   H915      1.0  0.4708611282423972  0.7895896818953515  0.32176729288356204  1.0000
  H   H916      1.0  0.44323742399047544  0.8062166439565503  0.2929065243168859  1.0000
  N   N56       1.0  0.11451128771762512  0.17651892066347574  0.4714926676082716  1.0000
  C   C605      1.0  0.1280179613328789  0.16204684480642634  0.4359079236418545  1.0000
  C   C606      1.0  0.09936489839022389  0.1557772426972047  0.4960691117069811  1.0000
  C   C607      1.0  0.09472756517847784  0.1984945881798673  0.45636511281193437  1.0000
  C   C608      1.0  0.1359567050640218  0.189796619501496  0.497580159433642  1.0000
  H   H917      1.0  0.13988751687029446  0.17699409413855766  0.41693108044993515  1.0000
  H   H918      1.0  0.11240276016596272  0.15213330238970812  0.41519058398828396  1.0000
  H   H919      1.0  0.14295439496986947  0.14519607553078404  0.4461124680967236  1.0000
  H   H920      1.0  0.1137203849245604  0.13897152061557894  0.5081367994359741  1.0000
  H   H921      1.0  0.0887482918493566  0.16596275801472937  0.5230334135915421  1.0000
  H   H922      1.0  0.08310629633566415  0.1452573167813369  0.4771042208868885  1.0000
  H   H923      1.0  0.0844770536640091  0.2102211625785212  0.4822811994498318  1.0000
  H   H924      1.0  0.07804972198325477  0.18917614993257922  0.43708188017401234  1.0000
  H   H925      1.0  0.1053386239977828  0.21407281181641866  0.43683704501628634  1.0000
  H   H926      1.0  0.14716668541355854  0.2060687587181623  0.48021536265014036  1.0000
  H   H927      1.0  0.15188411980341252  0.17406177660158778  0.5084067924158667  1.0000
  H   H928      1.0  0.12665957059786473  0.20044451345029496  0.5252210865075794  1.0000
  N   N57       1.0  0.09030494426161048  0.41830768306773886  0.08446331721820799  1.0000
  C   C609      1.0  0.11789994679477175  0.4038970589719057  0.08355344286828088  1.0000
  C   C610      1.0  0.08262996682504312  0.4267870960313691  0.04209244981515426  1.0000
  C   C611      1.0  0.09133515504197369  0.44363985084069435  0.11133944677464971  1.0000
  C   C612      1.0  0.06942479008650837  0.39887575510029055  0.10058311982539993  1.0000
  H   H929      1.0  0.1341264727660856  0.4176980679581288  0.07080944169600768  1.0000
  H   H930      1.0  0.11752915926205075  0.38446013004461527  0.06401926119254299  1.0000
  H   H931      1.0  0.12477671377897591  0.3974441635189474  0.11478938826426514  1.0000
  H   H932      1.0  0.06143940776329648  0.4368512300473988  0.041082599542524134  1.0000
  H   H933      1.0  0.09750834765399648  0.4421302440282154  0.02952968830216407  1.0000
  H   H934      1.0  0.08287618159259195  0.4083180781029624  0.02058425064964431  1.0000
  H   H935      1.0  0.1071824422267126  0.4585969315966951  0.10057299191815648  1.0000
  H   H936      1.0  0.09673909962691912  0.4380306701534914  0.1437027738966618  1.0000
  H   H937      1.0  0.07082260409707852  0.4551320692363408  0.11219609913092302  1.0000
  H   H938      1.0  0.07483291402734471  0.3919708385983374  0.13251615310710865  1.0000
  H   H939      1.0  0.06792658958594378  0.3796095403655804  0.08082291437289367  1.0000
  H   H940      1.0  0.04829751794018656  0.4091214535458464  0.10165648269586915  1.0000
  N   N58       1.0  0.02535313532456529  0.3241706901777451  0.44196586309542507  1.0000
  C   C613      1.0  0.04759783341149948  0.3381245331760728  0.41893655671732577  1.0000
  C   C614      1.0  0.02725727801923461  0.29344819300216896  0.43411905091904557  1.0000
  C   C615      1.0  0.9978192062830691  0.33512645686258824  0.4280159417845787  1.0000
  C   C616      1.0  0.028684917786375275  0.3299108392349991  0.48669343050884234  1.0000
  H   H941      1.0  0.04682930791546358  0.3613640277797095  0.42413899161303986  1.0000
  H   H942      1.0  0.04562369737041405  0.3342231121498223  0.3850556564229036  1.0000
  H   H943      1.0  0.06862747781030998  0.33018208247571285  0.4285877623316169  1.0000
  H   H944      1.0  0.024280571101520154  0.2883990285378487  0.4007223155058198  1.0000
  H   H945      1.0  0.04794520595601415  0.2844238369811145  0.4434137588904595  1.0000
  H   H946      1.0  0.011013996900356204  0.28219769482397067  0.4513624975087389  1.0000
  H   H947      1.0  0.9805841101417407  0.32530317333590536  0.44527889700682294  1.0000
  H   H948      1.0  0.9943833632251122  0.33069250533527467  0.3945522420275017  1.0000
  H   H949      1.0  0.9958505656831368  0.3583699047749261  0.432603470266992  1.0000
  H   H950      1.0  0.02679808447082177  0.35293324580617624  0.493745326559583  1.0000
  H   H951      1.0  0.04941230954806408  0.3223197161103648  0.49818426711130265  1.0000
  H   H952      1.0  0.012521806156911452  0.3191951682886919  0.5050401995388033  1.0000
  N   N59       1.0  0.21023611895701408  0.7838857471841986  0.35576443653605627  1.0000
  C   C617      1.0  0.22049547791759488  0.7553151100218899  0.3670057971248367  1.0000
  C   C618      1.0  0.21963988281138397  0.8044612066096503  0.38714758015491635  1.0000
  C   C619      1.0  0.1794495170760674  0.7842895242845017  0.35382685523387924  1.0000
  C   C620      1.0  0.22131021936000922  0.791507813819653  0.3149539257959205  1.0000
  H   H953      1.0  0.21365320827875933  0.7391953398932111  0.34409405054662423  1.0000
  H   H954      1.0  0.21261086411432992  0.7491045470509456  0.3978736505892454  1.0000
  H   H955      1.0  0.2436661587406717  0.7541741308504899  0.36873850900746297  1.0000
  H   H956      1.0  0.21104803444930467  0.8260557490443114  0.3810198631991966  1.0000
  H   H957      1.0  0.21282075625840627  0.7986024045736888  0.4185534767566107  1.0000
  H   H958      1.0  0.24279012302349615  0.8053673305365341  0.3883697572648889  1.0000
  H   H959      1.0  0.17166569294614345  0.768688682790527  0.33079313178927455  1.0000
  H   H960      1.0  0.17103319247141646  0.8054598368484811  0.3450020546096594  1.0000
  H   H961      1.0  0.17019416409128021  0.7790937560918507  0.3841636184570916  1.0000
  H   H962      1.0  0.24447601713484807  0.7898157104246528  0.31422415056548475  1.0000
  H   H963      1.0  0.21503882263337223  0.8134535082098392  0.3064883090304199  1.0000
  H   H964      1.0  0.213293238750119  0.7774163527302157  0.2902774778286816  1.0000
  N   N60       1.0  0.10177938552407553  0.8473564192399488  0.17302461463408578  1.0000
  C   C621      1.0  0.11743709576939879  0.8391658343206123  0.21064991497079036  1.0000
  C   C622      1.0  0.07182498316905984  0.8424304153571016  0.1793649234155136  1.0000
  C   C623      1.0  0.11205166159175171  0.8302770826536379  0.1375786404642325  1.0000
  C   C624      1.0  0.10585268661877927  0.8775186431290021  0.16449709353393183  1.0000
  H   H965      1.0  0.11048879942701473  0.8519727524899708  0.23793864546141738  1.0000
  H   H966      1.0  0.14019401061269796  0.8421643849741719  0.20677705399765128  1.0000
  H   H967      1.0  0.11448972686257505  0.8165271046856261  0.21805320542262863  1.0000
  H   H968      1.0  0.05932275739528814  0.8475515341746714  0.15121001902316905  1.0000
  H   H969      1.0  0.06821148194274929  0.8200040182533245  0.1872314906245033  1.0000
  H   H970      1.0  0.06326679837928849  0.855670077862805  0.20517367529114275  1.0000
  H   H971      1.0  0.10031501347274306  0.8353307561562493  0.10878133911083818  1.0000
  H   H972      1.0  0.11020701959651304  0.807333116957002  0.14321925801005767  1.0000
  H   H973      1.0  0.13442598299901432  0.8340329311561793  0.13149070863844786  1.0000
  H   H974      1.0  0.09727602014293864  0.8911698122772945  0.18983039011077585  1.0000
  H   H975      1.0  0.09527171336623326  0.8840185937701431  0.1353126175774453  1.0000
  H   H976      1.0  0.12836395043374388  0.8821774640836644  0.1612665883365771  1.0000
  N   N61       1.0  0.16982207593221227  0.0026076547299123125  0.2796657962975475  1.0000
  C   C625      1.0  0.19865641290454317  0.009884443906778229  0.26896878414923653  1.0000
  C   C626      1.0  0.16949037048791937  0.9732040371374097  0.29444099064475043  1.0000
  C   C627      1.0  0.15187518390814822  0.005436172227431423  0.24263433601940612  1.0000
  C   C628      1.0  0.15929721954927573  0.021957644108743898  0.3124705149962018  1.0000
  H   H977      1.0  0.19962915914518156  0.031909337747019206  0.2575571395379005  1.0000
  H   H978      1.0  0.2071851764319661  0.9956476772244511  0.24421806307998392  1.0000
  H   H979      1.0  0.2128163064483425  0.007980563553970255  0.2961888085808625  1.0000
  H   H980      1.0  0.1479147051456644  0.9665493706107836  0.3013353004845689  1.0000
  H   H981      1.0  0.17816231244065622  0.9581509603589538  0.2708961637551375  1.0000
  H   H982      1.0  0.18207445985042534  0.9704611291721027  0.3231354204394591  1.0000
  H   H983      1.0  0.130159517713371  0.9991403183996528  0.24915842089834112  1.0000
  H   H984      1.0  0.15979388661640487  0.9920815041466321  0.21662789268847607  1.0000
  H   H985      1.0  0.15061949163939847  0.027628242885200157  0.23171162072831095  1.0000
  H   H986      1.0  0.17229645377356584  0.020559129140681476  0.3409495114036615  1.0000
  H   H987      1.0  0.1375443109838212  0.01713193629534482  0.32111943473423227  1.0000
  H   H988      1.0  0.15887549187209346  0.04429845427290324  0.30210668666466994  1.0000
  N   N62       1.0  0.1638233439365174  0.6149896921151903  0.29618993516059877  1.0000
  C   C629      1.0  0.15511473416465624  0.5854873724814378  0.30057231645573107  1.0000
  C   C630      1.0  0.14941356731185304  0.6277806841920737  0.2602833246320869  1.0000
  C   C631      1.0  0.19426534144428578  0.6157004718412771  0.28980151451461617  1.0000
  C   C632      1.0  0.1564325131368639  0.6311295204063625  0.3340539079432617  1.0000
  H   H989      1.0  0.16528246219630138  0.5751644858228875  0.3276463928346012  1.0000
  H   H990      1.0  0.16027074117149054  0.572618832695586  0.2725731911849329  1.0000
  H   H991      1.0  0.13219609508952676  0.584415767293273  0.305128960336312  1.0000
  H   H992      1.0  0.15606148781466705  0.6497778463700299  0.25530124611019145  1.0000
  H   H993      1.0  0.15362120177425823  0.6156549541885813  0.2312941893569566  1.0000
  H   H994      1.0  0.12648479366484178  0.6285821480025952  0.2646866807557606  1.0000
  H   H995      1.0  0.20054159270217414  0.6039464970660868  0.2612633906655059  1.0000
  H   H996      1.0  0.2058812903577299  0.6062136592605873  0.3162682206208272  1.0000
  H   H997      1.0  0.20131055346805762  0.6378164169476684  0.2865088816443473  1.0000
  H   H998      1.0  0.16243471315005503  0.6536006164139566  0.3316087379280448  1.0000
  H   H999      1.0  0.16705623312552906  0.6221955570596708  0.36177454078314497  1.0000
  H   H1000     1.0  0.1335949743735398  0.6309289975556909  0.33988531552519774  1.0000
  N   N63       1.0  0.06405860976271205  0.8910879125918085  0.41093947297191824  1.0000
  C   C633      1.0  0.07397242246664093  0.9201939414312944  0.4155990468961961  1.0000
  C   C634      1.0  0.07469855495752453  0.8738245311774449  0.4456417769568702  1.0000
  C   C635      1.0  0.07434731886817358  0.8789598572733821  0.37147259934113824  1.0000
  C   C636      1.0  0.033255361113395665  0.8914205409471356  0.4109296300766633  1.0000
  H   H1001     1.0  0.06667441649911376  0.9336403208481384  0.38956264639439236  1.0000
  H   H1002     1.0  0.09714950963204383  0.920682787846101  0.41615683640213297  1.0000
  H   H1003     1.0  0.06609152873694302  0.9303869077587478  0.4445651732056096  1.0000
  H   H1004     1.0  0.06822292900599902  0.8515274220574623  0.44255048839281685  1.0000
  H   H1005     1.0  0.09789923801681177  0.8735598797658898  0.44693035401346437  1.0000
  H   H1006     1.0  0.06694333387913876  0.8821413739016213  0.4758552950205186  1.0000
  H   H1007     1.0  0.06754004930723223  0.8568892641199671  0.36699711780529776  1.0000
  H   H1008     1.0  0.09755513324224885  0.878812590917395  0.3700922331621531  1.0000
  H   H1009     1.0  0.06656064905740178  0.8913445062558383  0.3445915718033429  1.0000
  H   H1010     1.0  0.02459753150999755  0.9041054273654389  0.3848967997929991  1.0000
  H   H1011     1.0  0.0246971279823629  0.9008537723860004  0.4400104511348468  1.0000
  H   H1012     1.0  0.025025283752449168  0.8697806508010778  0.40777173326134014  1.0000
  N   N64       1.0  0.1443728448081492  0.3395505382326117  0.33221842480194536  1.0000
  C   C637      1.0  0.15318961864918437  0.36549721701162124  0.311529571166809  1.0000
  C   C638      1.0  0.1387161966611373  0.31748134861160043  0.3009229348981018  1.0000
  C   C639      1.0  0.11877513290518917  0.3457759466599615  0.35616349794115437  1.0000
  C   C640      1.0  0.16674105045074492  0.3294714807774779  0.36035809071686187  1.0000
  H   H1013     1.0  0.15769684834778458  0.3825679122931642  0.3343659318467315  1.0000
  H   H1014     1.0  0.13671665133586802  0.37378727928493677  0.2902844047341212  1.0000
  H   H1015     1.0  0.172293755631192  0.3616266574965665  0.29278115193903603  1.0000
  H   H1016     1.0  0.13399133608434838  0.2970370137756183  0.3154843759273828  1.0000
  H   H1017     1.0  0.1203672509275233  0.3232955227334069  0.2814821727978813  1.0000
  H   H1018     1.0  0.1567084313286953  0.31377009215777074  0.2798271647357905  1.0000
  H   H1019     1.0  0.10151021546110942  0.3535685409375426  0.33583708401514256  1.0000
  H   H1020     1.0  0.12234094470302515  0.3621318099274729  0.38034188804126795  1.0000
  H   H1021     1.0  0.11137632573721838  0.3266425348490485  0.3717850224004363  1.0000
  H   H1022     1.0  0.18628201015546117  0.3242981412642678  0.34323903895118746  1.0000
  H   H1023     1.0  0.1606756959990797  0.31012008746653613  0.3769144106138987  1.0000
  H   H1024     1.0  0.17157235670266904  0.34565280370495566  0.3842474668075139  1.0000
