data_image0
_chemical_formula_structural       FeS2FeS2FeSFeS3FeS2FeS2FeSFeS3FeS2FeS2FeSFeS3FeS2FeS2FeSFeS3FeS2FeS2FeSFeS3FeS2FeS2FeSFeS3FeS2FeS2FeSFeS3FeS2FeS2FeSFeS3FeS2FeS2FeSFeS3FeS2FeS2FeSFeS3FeS2FeS2FeSFeS3FeS2FeS2FeSFeS3FeS2FeS2FeSFeS3FeS2FeS2FeSFeS3FeS2FeS2FeSFeS3FeS2FeS2FeSFeS3FeS2FeS2FeSFeS3FeS2FeS2FeSFeS3FeS2FeS2FeSFeS3FeS2FeS2FeSFeS3FeS2FeS2FeSFeS3FeS2FeS2FeSFeS3FeS2FeS2FeSFeS3FeS2FeS2FeSFeS3FeS2FeS2FeSFeS3FeS2FeS2FeSFeS3FeS2FeS2FeSFeS3FeS2FeS2FeSFeS3FeS2FeS2FeSFeS3FeS2FeS2FeSFeS3FeS2FeS2FeSFeS3FeS2FeS2FeSFeS3C6H4C6H4C6H4C6H4C6H4C6H4C6H4C6H4C6H4C6H4C6H4C6H4C6H4C6H4C6H4C6H4C6H4C6H4C6H4C6H4C6H4C6H4C6H4C6H4C6H4C6H4C6H4C6H4C6H4C6H4C6H4C6H4C6H4C6H4C6H4C6H4C6H4C6H4C6H4C6H4C6H4C6H4C6H4C6H4C6H4C6H4C6H4C6H4C6H4C6H4C6H4C6H4C6H4C6H4C6H4C6H4C6H4C6H4C6H4C6H4C6H4C6H4C6H4C6H4NC4H12NC4H12NC4H12NC4H12NC4H12NC4H12NC4H12NC4H12NC4H12NC4H12NC4H12NC4H12NC4H12NC4H12NC4H12NC4H12NC4H12NC4H12NC4H12NC4H12NC4H12NC4H12NC4H12NC4H12NC4H12NC4H12NC4H12NC4H12NC4H12NC4H12NC4H12NC4H12NC4H12NC4H12NC4H12NC4H12NC4H12NC4H12NC4H12NC4H12NC4H12NC4H12NC4H12NC4H12NC4H12NC4H12NC4H12NC4H12NC4H12NC4H12NC4H12NC4H12NC4H12NC4H12NC4H12NC4H12NC4H12NC4H12NC4H12NC4H12NC4H12NC4H12NC4H12NC4H12
_chemical_formula_sum              "Fe128 S256 C640 H1024 N64"
_cell_length_a       40.351729976843785
_cell_length_b       40.03818461988361
_cell_length_c       66.33051743809044
_cell_angle_alpha    89.82877871343877
_cell_angle_beta     89.81276179725087
_cell_angle_gamma    90.53563250555932

_space_group_name_H-M_alt    "P 1"
_space_group_IT_number       1

loop_
  _space_group_symop_operation_xyz
  'x, y, z'

loop_
  _atom_site_type_symbol
  _atom_site_label
  _atom_site_symmetry_multiplicity
  _atom_site_fract_x
  _atom_site_fract_y
  _atom_site_fract_z
  _atom_site_occupancy
  Fe  Fe1       1.0  0.7170422935435184  0.630061548003109  0.9045985460412156  1.0000
  S   S1        1.0  0.6807096905946678  0.591651999617253  0.9158476603883261  1.0000
  S   S2        1.0  0.7652796357449736  0.6169977008254528  0.8888513685753274  1.0000
  Fe  Fe2       1.0  0.6748577660084951  0.6883861830373065  0.9198775115276224  1.0000
  S   S3        1.0  0.6358409572831732  0.653701786538086  0.9326336671616416  1.0000
  S   S4        1.0  0.6656545032538099  0.7437201931409883  0.9242900188296722  1.0000
  Fe  Fe3       1.0  0.6789775623781139  0.6234236744513868  0.9438705136415027  1.0000
  S   S5        1.0  0.6821352409346233  0.5971746889235511  0.9743498235054142  1.0000
  Fe  Fe4       1.0  0.6413800229597816  0.6256108334416812  0.9035802804354525  1.0000
  S   S6        1.0  0.6011535481674641  0.6127384559434678  0.8809022980559327  1.0000
  S   S7        1.0  0.7175335339841271  0.6601933366927504  0.9332087221909434  1.0000
  S   S8        1.0  0.678147533549827  0.6620937801215413  0.8902313047466097  1.0000
  Fe  Fe5       1.0  0.29888389289109696  0.831607976552643  0.9310242238052393  1.0000
  S   S9        1.0  0.3248213098551687  0.8618702303458708  0.9548867879369741  1.0000
  S   S10       1.0  0.3083311970898455  0.7757906385896706  0.9325300148511734  1.0000
  Fe  Fe6       1.0  0.2654168948015235  0.8932865553080979  0.9134244969105652  1.0000
  S   S11       1.0  0.29022544053407395  0.9277378100749736  0.9353594007931135  1.0000
  S   S12       1.0  0.22557719274502933  0.9085136596214535  0.8912852643567453  1.0000
  Fe  Fe7       1.0  0.3360016432782889  0.8975597382931186  0.9294551234618107  1.0000
  S   S13       1.0  0.38809806839957545  0.9196305889845886  0.9289371818839939  1.0000
  Fe  Fe8       1.0  0.2766585432157726  0.8889153318534643  0.9586939996969553  1.0000
  S   S14       1.0  0.24951047076117913  0.9092910929220015  0.9861892986885636  1.0000
  S   S15       1.0  0.31232150733201475  0.865984502701306  0.9053682780125706  1.0000
  S   S16       1.0  0.2496738893876414  0.855736731575123  0.9369306952237125  1.0000
  Fe  Fe9       1.0  0.6157363888061272  0.884910924132368  0.8490026826325147  1.0000
  S   S17       1.0  0.5896087258002509  0.9045564228427555  0.8763120724943506  1.0000
  S   S18       1.0  0.6491241765364554  0.839684271686183  0.8487079953973861  1.0000
  Fe  Fe10      1.0  0.5851078527540424  0.9377730445211313  0.8206939462568417  1.0000
  S   S19       1.0  0.5579127415857471  0.9618689148567928  0.8463858112073201  1.0000
  S   S20       1.0  0.5692423830376057  0.9489766905214362  0.7884833028370299  1.0000
  Fe  Fe11      1.0  0.6052502882111701  0.9547792702860518  0.8637652398554192  1.0000
  S   S21       1.0  0.6242491693996358  0.9923242728978673  0.8865601582091581  1.0000
  Fe  Fe12      1.0  0.5448250470980747  0.9098345930730986  0.8564403159370628  1.0000
  S   S22       1.0  0.4915523061386048  0.8912097837853256  0.8588498673406963  1.0000
  S   S23       1.0  0.6337314784587317  0.934797098451003  0.837220176542681  1.0000
  S   S24       1.0  0.5700905798848485  0.8858836411224414  0.8300938256863881  1.0000
  Fe  Fe13      1.0  0.41102709806100723  0.5813747372259748  0.8798504676205037  1.0000
  S   S25       1.0  0.4156814076012713  0.6123979860177304  0.8518926060938932  1.0000
  S   S26       1.0  0.45246164898061164  0.5728743368601872  0.9021799851226815  1.0000
  Fe  Fe14      1.0  0.33754004044190467  0.5666271583423755  0.8725195960612171  1.0000
  S   S27       1.0  0.337126344935815  0.5964447597763733  0.8435995155718354  1.0000
  S   S28       1.0  0.29008881366421635  0.5504334145121518  0.8883958600152676  1.0000
  Fe  Fe15      1.0  0.38577252561614717  0.571482343333193  0.8370583682173299  1.0000
  S   S29       1.0  0.40816649021663426  0.5563322574916081  0.8068660607148029  1.0000
  Fe  Fe16      1.0  0.36697309034161585  0.6344639491195971  0.8608966822180375  1.0000
  S   S30       1.0  0.35658649883769866  0.6898819704003579  0.8577632228584479  1.0000
  S   S31       1.0  0.38412587698633194  0.5387361082285625  0.8648368186008145  1.0000
  S   S32       1.0  0.36440818437828065  0.6064334312341843  0.8900363646679204  1.0000
  Fe  Fe17      1.0  0.050865171071315524  0.06999419033905471  0.8629624664554858  1.0000
  S   S33       1.0  0.05272530371963097  0.11028998083775671  0.8395965689089815  1.0000
  S   S34       1.0  0.00037993226268961955  0.04625318721581543  0.867837550522651  1.0000
  Fe  Fe18      1.0  0.12550428772217737  0.0713757880324768  0.8685746292504369  1.0000
  S   S35       1.0  0.13271411607829772  0.11178269116621685  0.8452080916149979  1.0000
  S   S36       1.0  0.17068797601577756  0.05675607624556589  0.8867953481501841  1.0000
  Fe  Fe19      1.0  0.08902662563167812  0.13601377422867686  0.8599716264380924  1.0000
  S   S37       1.0  0.08615117862189955  0.19236443228734534  0.8628563174975532  1.0000
  Fe  Fe20      1.0  0.09593082510462236  0.0825407684953338  0.8268075898954967  1.0000
  S   S38       1.0  0.09625708150919561  0.07998314515174387  0.792615099826934  1.0000
  S   S39       1.0  0.08387644610960461  0.09776412330378224  0.8846071353972135  1.0000
  S   S40       1.0  0.09203542143336435  0.04012787633159065  0.848948973013195  1.0000
  Fe  Fe21      1.0  0.8650837883469767  0.4493877757707663  0.8752839314550671  1.0000
  S   S41       1.0  0.854948901100951  0.4046981239733336  0.8556865421202817  1.0000
  S   S42       1.0  0.8193388441710705  0.4686948018791004  0.8913618881131058  1.0000
  Fe  Fe22      1.0  0.9393473654204553  0.44707527482655834  0.8668497000850145  1.0000
  S   S43       1.0  0.9342419181044687  0.4029983773873149  0.8463310732628323  1.0000
  S   S44       1.0  0.9915802400497393  0.4670006009985793  0.8701021961434229  1.0000
  Fe  Fe23      1.0  0.8900856013675974  0.4297753340589375  0.8338471365328891  1.0000
  S   S45       1.0  0.8775905876506291  0.4292992087823791  0.8004603594485232  1.0000
  Fe  Fe24      1.0  0.8999444298252454  0.38223858022722335  0.8700303084306209  1.0000
  S   S46       1.0  0.9097368790032773  0.3305669054975752  0.8828770581710716  1.0000
  S   S47       1.0  0.8976675998115853  0.4758211419530495  0.8525815319381811  1.0000
  S   S48       1.0  0.9075834935935806  0.4250002548029951  0.8913984958738038  1.0000
  Fe  Fe25      1.0  0.1940377414606334  0.38759243463699916  0.9162045352383584  1.0000
  S   S49       1.0  0.17401423228184287  0.42057341820994576  0.9405764428009881  1.0000
  S   S50       1.0  0.23019580594521208  0.4032267564162079  0.8915907179107497  1.0000
  Fe  Fe26      1.0  0.16495833097408596  0.32414715395864724  0.935237267002011  1.0000
  S   S51       1.0  0.1442640252462771  0.3522889907085547  0.9616882154188746  1.0000
  S   S52       1.0  0.15909534712940993  0.26767951887029495  0.934381734069872  1.0000
  Fe  Fe27      1.0  0.1277831782698343  0.3890777935854334  0.9381169942038144  1.0000
  S   S53       1.0  0.07491147331320971  0.40611823908905514  0.9420288769661688  1.0000
  Fe  Fe28      1.0  0.19225961984189877  0.38110236747949994  0.9619985380407223  1.0000
  S   S54       1.0  0.2250664546210182  0.4010452363430119  0.9872492114486134  1.0000
  S   S55       1.0  0.14592196245383646  0.3593215187956786  0.911665396781041  1.0000
  S   S56       1.0  0.21465347311511898  0.3496636408616059  0.9376413056587006  1.0000
  Fe  Fe29      1.0  0.7874421320791308  0.09563025871603932  0.9028312870733629  1.0000
  S   S57       1.0  0.8080433588400863  0.09019751033332009  0.9342848757627418  1.0000
  S   S58       1.0  0.770158396549612  0.052835946003607526  0.8830269495719745  1.0000
  Fe  Fe30      1.0  0.8030138047223971  0.17072990829140938  0.9010458424444002  1.0000
  S   S59       1.0  0.8248324506565256  0.17068665926004878  0.931872847349482  1.0000
  S   S60       1.0  0.7972892070654336  0.2186926619407207  0.8833318707885377  1.0000
  Fe  Fe31      1.0  0.8494833709483527  0.12314724128433895  0.9224411773370959  1.0000
  S   S61       1.0  0.9045109940615164  0.12108463079128208  0.9284820368558976  1.0000
  Fe  Fe32      1.0  0.7813016533087833  0.13838907547614424  0.9407035166234802  1.0000
  S   S62       1.0  0.7489047115201725  0.15830591303873087  0.9660196855934429  1.0000
  S   S63       1.0  0.8307522730627176  0.1256746523336416  0.8907689364456582  1.0000
  S   S64       1.0  0.7577803377498998  0.14110365489013743  0.9100096119744598  1.0000
  Fe  Fe33      1.0  0.6383406847223925  0.8180582667987264  0.405622370801123  1.0000
  S   S65       1.0  0.6152395894393129  0.8238528506257388  0.436156009092556  1.0000
  S   S66       1.0  0.6258934381393069  0.7807255026186456  0.3808946518269099  1.0000
  Fe  Fe34      1.0  0.6736893778800795  0.8861565157081434  0.4080287455202474  1.0000
  S   S67       1.0  0.6531915882825304  0.8978517709078762  0.43898166579934356  1.0000
  S   S68       1.0  0.7004046208895687  0.9172596674431613  0.384062601483137  1.0000
  Fe  Fe35      1.0  0.6650035473352537  0.8440604954380204  0.44603333738804446  1.0000
  S   S69       1.0  0.6836997958661001  0.8218461371533783  0.47545586042452076  1.0000
  Fe  Fe36      1.0  0.6048888815775194  0.8768566697384771  0.42729185445862766  1.0000
  S   S70       1.0  0.5535364490448749  0.8963021204793569  0.43422948767955444  1.0000
  S   S71       1.0  0.6891087771033851  0.833838098322143  0.4159047433410355  1.0000
  S   S72       1.0  0.6240622834339711  0.8697316959656086  0.3961399564476191  1.0000
  Fe  Fe37      1.0  0.6124088458327531  0.5854235677591174  0.36691657838114605  1.0000
  S   S73       1.0  0.5760302684783769  0.5519941491175765  0.3833061403377381  1.0000
  S   S74       1.0  0.6395834854383179  0.6228337269002087  0.3867685791845055  1.0000
  Fe  Fe38      1.0  0.6008427206279177  0.5494397050906793  0.32653781685710553  1.0000
  S   S75       1.0  0.5636611870780104  0.5140567467113152  0.3400586091572062  1.0000
  S   S76       1.0  0.6152911090467514  0.5482672987828081  0.29336376295463185  1.0000
  Fe  Fe39      1.0  0.5437094379590923  0.5590117336829046  0.35617829670641565  1.0000
  S   S77       1.0  0.48952486020394814  0.5736413595703113  0.35532830860505876  1.0000
  Fe  Fe40      1.0  0.5997382493461545  0.510410906523725  0.36582658569141047  1.0000
  S   S78       1.0  0.6117576289804556  0.45915202058329235  0.37832220057808735  1.0000
  S   S79       1.0  0.5786130626858204  0.5951639711400944  0.34081378107485505  1.0000
  S   S80       1.0  0.6383879894467474  0.5430737348686427  0.35126172628125807  1.0000
  Fe  Fe41      1.0  0.3531457566047904  0.6217784674984277  0.43368835753071067  1.0000
  S   S81       1.0  0.33373546560824024  0.6534766994563201  0.4084867757031679  1.0000
  S   S82       1.0  0.4029295528288425  0.5959247988846689  0.4340771024283616  1.0000
  Fe  Fe42      1.0  0.2893814092092629  0.627920909181257  0.4588704092117852  1.0000
  S   S83       1.0  0.26498198751260355  0.6599241795781196  0.4354212552626436  1.0000
  S   S84       1.0  0.2623698315471957  0.605162556618364  0.4857936845474685  1.0000
  Fe  Fe43      1.0  0.2861663445506505  0.6244240616027547  0.41281921919815057  1.0000
  S   S85       1.0  0.2588899042293313  0.6069764004973963  0.3849062469787989  1.0000
  Fe  Fe44      1.0  0.3144193647419509  0.6864047085875883  0.43313610062894276  1.0000
  S   S86       1.0  0.3148787547508687  0.7431277982306843  0.43274531302070246  1.0000
  S   S87       1.0  0.3070413307590474  0.5902904624935369  0.4361797323761908  1.0000
  S   S88       1.0  0.33742573611996357  0.6568505680427371  0.45837729538016686  1.0000
  Fe  Fe45      1.0  0.36656969595264394  0.9432073578838156  0.32749389383277766  1.0000
  S   S89       1.0  0.3764388620689386  0.9834979414491849  0.3503386420553354  1.0000
  S   S90       1.0  0.3680511880627132  0.946613493747722  0.2932913378353811  1.0000
  Fe  Fe46      1.0  0.3701735166785451  0.8865771316639603  0.3592948795102872  1.0000
  S   S91       1.0  0.3811909917608854  0.9223841816653605  0.3844068654614707  1.0000
  S   S92       1.0  0.3733193363556182  0.8299866681405973  0.36050434858968516  1.0000
  Fe  Fe47      1.0  0.34128730231723886  0.9539363035812832  0.3702167957763571  1.0000
  S   S93       1.0  0.3018029650909247  0.9725071643974103  0.39176273071346823  1.0000
  Fe  Fe48      1.0  0.41507432869473937  0.9486741575589942  0.36254928074037873  1.0000
  S   S94       1.0  0.46880075865325593  0.9640341329095378  0.3652232833117706  1.0000
  S   S95       1.0  0.3281910228082885  0.9160460860970298  0.3462945868992057  1.0000
  S   S96       1.0  0.4073465274021596  0.9104849261183136  0.33860772101501546  1.0000
  Fe  Fe49      1.0  0.19622173960644346  0.13075738153335414  0.4132569016630666  1.0000
  S   S97       1.0  0.16851386897286508  0.09314823029853506  0.43167961829373463  1.0000
  S   S98       1.0  0.2352677543905296  0.1156849682246865  0.3904165789715764  1.0000
  Fe  Fe50      1.0  0.15627128366488166  0.1881585841134761  0.43085062586915335  1.0000
  S   S99       1.0  0.12526480133628418  0.15383492072596222  0.4505682743458654  1.0000
  S   S100      1.0  0.15000077494825578  0.24426471819319007  0.43304658891803444  1.0000
  Fe  Fe51      1.0  0.1739324458806032  0.1291167650539797  0.45737325257833333  1.0000
  S   S101      1.0  0.19023718211310967  0.1049152537124621  0.4867257961583759  1.0000
  Fe  Fe52      1.0  0.12280844158450761  0.12123074754299605  0.4229734202304355  1.0000
  S   S102      1.0  0.08256925909909947  0.08722358933532734  0.4104413832340739  1.0000
  S   S103      1.0  0.20511381941702714  0.16521527309382064  0.43942041446577174  1.0000
  S   S104      1.0  0.15038417194060053  0.15720787495216165  0.4029055788207867  1.0000
  Fe  Fe53      1.0  0.12570629868600774  0.45816797754120303  0.3717227360758111  1.0000
  S   S105      1.0  0.1361900031913131  0.42796296391185507  0.3437280292778717  1.0000
  S   S106      1.0  0.15974117985656094  0.48351756878948926  0.3943733917037612  1.0000
  Fe  Fe54      1.0  0.05306540501394428  0.43647597309505143  0.3737029593552353  1.0000
  S   S107      1.0  0.05723933592582279  0.405056506357342  0.3460353837589758  1.0000
  S   S108      1.0  0.009756962608029163  0.4434393344355366  0.39511012435801907  1.0000
  Fe  Fe55      1.0  0.10558604669170277  0.38759203038555423  0.3586999441432913  1.0000
  S   S109      1.0  0.11582911385197711  0.3322419664264422  0.35634797100306753  1.0000
  Fe  Fe56      1.0  0.08715919937398146  0.4476819115825735  0.33272537192060336  1.0000
  S   S110      1.0  0.073189262828368  0.45746839089252167  0.2999789758629539  1.0000
  S   S111      1.0  0.09906579038627848  0.41568744488018317  0.38740309668290085  1.0000
  S   S112      1.0  0.07888256138926582  0.4809171198454792  0.3596409553175196  1.0000
  Fe  Fe57      1.0  0.850248817454687  0.04375073390239481  0.3715641112501358  1.0000
  S   S113      1.0  0.8243455313603467  0.058996483491557006  0.3430174717973296  1.0000
  S   S114      1.0  0.8323438373125953  0.003999803884440656  0.39368228114286613  1.0000
  Fe  Fe58      1.0  0.9021401342891078  0.10023646547585771  0.3687307676816268  1.0000
  S   S115      1.0  0.8800169678711734  0.11895779137467338  0.3399522843477452  1.0000
  S   S116      1.0  0.9401685847924066  0.13564429196772232  0.3825242623566367  1.0000
  Fe  Fe59      1.0  0.8309056521797751  0.1112507244315756  0.3548847269148433  1.0000
  S   S117      1.0  0.7928817175049057  0.15195836562508586  0.35193029086642186  1.0000
  Fe  Fe60      1.0  0.8759983340463545  0.06520623208904362  0.33052695870117216  1.0000
  S   S118      1.0  0.8917052910973202  0.05641399113434731  0.2980010566245582  1.0000
  S   S119      1.0  0.8527820317848166  0.09578126236344132  0.38425811448530023  1.0000
  S   S120      1.0  0.9020880217880599  0.046596118407538745  0.35842318429904196  1.0000
  Fe  Fe61      1.0  0.7807506845391619  0.3776973175776909  0.4156794008166756  1.0000
  S   S121      1.0  0.8276612747040785  0.38726154851855804  0.4332173324489281  1.0000
  S   S122      1.0  0.7599297530507272  0.42581405614406254  0.40278024290920145  1.0000
  Fe  Fe62      1.0  0.7830301028460563  0.30295324773426935  0.4244417266542573  1.0000
  S   S123      1.0  0.8294812295341825  0.3076901679234556  0.44263898911365  1.0000
  S   S124      1.0  0.7622297710527726  0.25038683336558665  0.42402407610093007  1.0000
  Fe  Fe63      1.0  0.8050915224181944  0.35250420227388196  0.4563460315154194  1.0000
  S   S125      1.0  0.8076396207479526  0.36365543239203163  0.4899758080997349  1.0000
  Fe  Fe64      1.0  0.8473854188665626  0.3416902604713293  0.41781450573325596  1.0000
  S   S126      1.0  0.8969535486252604  0.3321164381662392  0.4023844780460791  1.0000
  S   S127      1.0  0.7571924340551869  0.34571459997231524  0.439804032625847  1.0000
  S   S128      1.0  0.8020501693797422  0.3341827666816204  0.39860311962524286  1.0000
  Fe  Fe65      1.0  0.7884178922737805  0.6329315645693039  0.07481535082852592  1.0000
  S   S129      1.0  0.7561907368420316  0.6590765084610575  0.0971257355539744  1.0000
  S   S130      1.0  0.7834943128750792  0.6459216312930689  0.04159708346224753  1.0000
  Fe  Fe66      1.0  0.834922692394407  0.608785841529022  0.1083488113568108  1.0000
  S   S131      1.0  0.8064220830675353  0.6344525733539653  0.13301402794782247  1.0000
  S   S132      1.0  0.8800954143378855  0.5760372579256388  0.11130967214190066  1.0000
  Fe  Fe67      1.0  0.7619509861885312  0.6137086010192216  0.11667892809280274  1.0000
  S   S133      1.0  0.7170336790504881  0.5954254056777456  0.13412178382991563  1.0000
  Fe  Fe68      1.0  0.8032925961336995  0.6775278481574494  0.1112543195775448  1.0000
  S   S134      1.0  0.8042582822003924  0.733735187394136  0.11447846795688824  1.0000
  S   S135      1.0  0.790381201518461  0.5855088899574978  0.0931470020423425  1.0000
  S   S136      1.0  0.8355303830134284  0.6535616129942264  0.08798350202936635  1.0000
  Fe  Fe69      1.0  0.10050545232747127  0.5680156345437736  0.2036559149348983  1.0000
  S   S137      1.0  0.06656080310884893  0.5285386420067046  0.19141129870551502  1.0000
  S   S138      1.0  0.11988423084203251  0.566850127493514  0.23583205934548276  1.0000
  Fe  Fe70      1.0  0.10079301236325408  0.6076369729827609  0.16389816447537536  1.0000
  S   S139      1.0  0.06679798571236156  0.5702002847717604  0.1489786082227829  1.0000
  S   S140      1.0  0.11340970196313131  0.6511808121752538  0.14314690789841134  1.0000
  Fe  Fe71      1.0  0.038021440223048396  0.5711115444304703  0.17795294751878982  1.0000
  S   S141      1.0  0.9830073940192856  0.5784121344377221  0.18364418910237013  1.0000
  Fe  Fe72      1.0  0.0988774034771062  0.5315409230152436  0.1637397825156331  1.0000
  S   S142      1.0  0.1149699059406066  0.48279027547860004  0.1494368863635031  1.0000
  S   S143      1.0  0.07007803291959644  0.6107341712114042  0.19207407613615057  1.0000
  S   S144      1.0  0.13482292844611182  0.5686999687816872  0.1767615184035575  1.0000
  Fe  Fe73      1.0  0.883362592182616  0.8681401571783739  0.18236729464141274  1.0000
  S   S145      1.0  0.9020383556487253  0.9027076208085113  0.15816597692798537  1.0000
  S   S146      1.0  0.8873113969308944  0.8119288894383714  0.1806083473104984  1.0000
  Fe  Fe74      1.0  0.8707287045644093  0.9256914350818336  0.2121044905865352  1.0000
  S   S147      1.0  0.8889505078175155  0.9649632514890685  0.19035831561735045  1.0000
  S   S148      1.0  0.8503664701445757  0.9328954097965964  0.24370996578467935  1.0000
  Fe  Fe75      1.0  0.8596473352135813  0.9358526620658342  0.16743880919587095  1.0000
  S   S149      1.0  0.8234253590966034  0.9561744376511532  0.14466487999558147  1.0000
  Fe  Fe76      1.0  0.9296474562986242  0.9285124365479712  0.18303618918577785  1.0000
  S   S150      1.0  0.9846314011010191  0.9397190992142611  0.18395624452165793  1.0000
  S   S151      1.0  0.8387254488232605  0.8987070778774425  0.18968455104734105  1.0000
  S   S152      1.0  0.9136946319298896  0.8918292776751616  0.20677078356405304  1.0000
  Fe  Fe77      1.0  0.19068736318497395  0.8524335848773218  0.09406525947811518  1.0000
  S   S153      1.0  0.2211507733450411  0.8556588158530617  0.122366065524734  1.0000
  S   S154      1.0  0.21606608045936096  0.8292133831746917  0.06690214207719843  1.0000
  Fe  Fe78      1.0  0.12799170866505646  0.8765019969900035  0.11599347778108213  1.0000
  S   S155      1.0  0.15416677985250046  0.8814781069479912  0.14559151578779103  1.0000
  S   S156      1.0  0.0729551083392785  0.8852219583420907  0.1118697552826554  1.0000
  Fe  Fe79      1.0  0.1955690460364172  0.904517685467245  0.1273081649332754  1.0000
  S   S157      1.0  0.21757924314605562  0.954980805744939  0.13550002660063284  1.0000
  Fe  Fe80      1.0  0.17686468656478843  0.8321324580757212  0.13778757954643733  1.0000
  S   S158      1.0  0.18309607121085358  0.7904150432496864  0.16067946293944838  1.0000
  S   S159      1.0  0.16782718922195097  0.9028993817060129  0.09790824050027806  1.0000
  S   S160      1.0  0.1482245439396825  0.825597302855561  0.10920516383280633  1.0000
  Fe  Fe81      1.0  0.2834233341018026  0.35260194742012474  0.09567324725536078  1.0000
  S   S161      1.0  0.25979284082970805  0.3540954101458252  0.12637164630539707  1.0000
  S   S162      1.0  0.2494630744085861  0.33058856420878  0.07188616411336014  1.0000
  Fe  Fe82      1.0  0.35116069015583246  0.37398869133817086  0.11260122927669812  1.0000
  S   S163      1.0  0.33219296872994886  0.3766728291678235  0.14430393352673884  1.0000
  S   S164      1.0  0.40597017845494854  0.3776732198787582  0.10575413141361681  1.0000
  Fe  Fe83      1.0  0.3059051762901118  0.32856401611704994  0.13707301889556067  1.0000
  S   S165      1.0  0.3026310316636964  0.2845071175305088  0.1584944758160668  1.0000
  Fe  Fe84      1.0  0.2881081553403617  0.40191251813538814  0.13033184425539676  1.0000
  S   S166      1.0  0.26819589335375404  0.4500200794274206  0.14319975379858252  1.0000
  S   S167      1.0  0.32766876056496536  0.32403410296968943  0.10624973148935976  1.0000
  S   S168      1.0  0.3089250034124043  0.4025343410389562  0.09875945953085134  1.0000
  Fe  Fe85      1.0  0.4529397423287944  0.06836956641074556  0.17866314869797695  1.0000
  S   S169      1.0  0.427116741086641  0.11175111682912789  0.1929039414995188  1.0000
  S   S170      1.0  0.5089674499724676  0.06880541388851967  0.1805530599439119  1.0000
  Fe  Fe86      1.0  0.38734477786482224  0.03538678781174043  0.16615139348617547  1.0000
  S   S171      1.0  0.3566364694510874  0.07718353088075508  0.178632164901282  1.0000
  S   S172      1.0  0.3688943796478391  0.9859897566249587  0.15355821790458843  1.0000
  Fe  Fe87      1.0  0.39556642563204164  0.1115530812320519  0.16514629872758618  1.0000
  S   S173      1.0  0.39405030329908064  0.15810590761037188  0.1455173943980403  1.0000
  Fe  Fe88      1.0  0.3911033795253764  0.07359172456885513  0.20531049078410082  1.0000
  S   S174      1.0  0.3713154537263017  0.07560208225140697  0.23740595297478784  1.0000
  S   S175      1.0  0.42335763457254494  0.06974369206291765  0.1502510532963502  1.0000
  S   S176      1.0  0.41968840027954357  0.03020758541416968  0.1935006224615304  1.0000
  Fe  Fe89      1.0  0.6306048923415505  0.42565388169001894  0.1633318918969495  1.0000
  S   S177      1.0  0.6394623055956038  0.3850967552875363  0.18638242016677609  1.0000
  S   S178      1.0  0.6740818114219322  0.44340001998576517  0.14400247391608997  1.0000
  Fe  Fe90      1.0  0.5560815016751752  0.42552616358399736  0.17087756698728307  1.0000
  S   S179      1.0  0.5596963448584383  0.38525754574924537  0.19413529541453753  1.0000
  S   S180      1.0  0.5049728698915321  0.4478969913572501  0.1671914346584437  1.0000
  Fe  Fe91      1.0  0.603741325236927  0.4137201653271522  0.20582115536090811  1.0000
  S   S181      1.0  0.605563142808498  0.41686512602753345  0.24008310926688795  1.0000
  Fe  Fe92      1.0  0.5947256441839677  0.36018095405019873  0.17278367174137466  1.0000
  S   S182      1.0  0.5870718883892742  0.3043655098834783  0.16815591378966407  1.0000
  S   S183      1.0  0.5981323062170693  0.45608248483645364  0.18384753869160333  1.0000
  S   S184      1.0  0.5878907827427144  0.3986128158541953  0.14842276463107898  1.0000
  Fe  Fe93      1.0  0.7147386927391411  0.1082390534197482  0.1268288650111504  1.0000
  S   S185      1.0  0.6926134707391591  0.07605459748040001  0.10267925625737814  1.0000
  S   S186      1.0  0.7478496282329294  0.09392298591353655  0.15295211649963944  1.0000
  Fe  Fe94      1.0  0.6880650767619948  0.17200094110822076  0.10856282009051804  1.0000
  S   S187      1.0  0.6643746371101715  0.14569933636664567  0.08233592404521421  1.0000
  S   S188      1.0  0.6907025715312484  0.22798068732766621  0.11304403050235962  1.0000
  Fe  Fe95      1.0  0.6476708301040167  0.10817875504138295  0.10563553399362136  1.0000
  S   S189      1.0  0.5963286403796632  0.08640676788490885  0.10148889523801848  1.0000
  Fe  Fe96      1.0  0.7107778546423495  0.11526369380882162  0.08080881204445821  1.0000
  S   S190      1.0  0.7362571839683509  0.09337283812756318  0.05335524859647965  1.0000
  S   S191      1.0  0.6677152417185054  0.13692409804854253  0.13201373577052708  1.0000
  S   S192      1.0  0.7363428745101983  0.14503267463727215  0.10482432724909635  1.0000
  Fe  Fe97      1.0  0.7840626587448571  0.8714500899070006  0.5734289437322839  1.0000
  S   S193      1.0  0.7522780100042177  0.8384321093710664  0.5931363195371032  1.0000
  S   S194      1.0  0.7697767955373137  0.8941391693407207  0.5431938773512126  1.0000
  Fe  Fe98      1.0  0.8391189734263794  0.876830523275889  0.6057456748729884  1.0000
  S   S195      1.0  0.8103944927804969  0.845354794246884  0.62796914503641  1.0000
  S   S196      1.0  0.8944350499559119  0.8872295195446942  0.6080149397480025  1.0000
  Fe  Fe99      1.0  0.7993966856286222  0.8120782804760338  0.601628016581726  1.0000
  S   S197      1.0  0.8109225272192313  0.7566486488527175  0.5999920888382321  1.0000
  Fe  Fe100     1.0  0.7659947690638282  0.8749038370321272  0.6176386942867949  1.0000
  S   S198      1.0  0.7250006889180309  0.8923547967094982  0.6386381830218948  1.0000
  S   S199      1.0  0.8298993829253822  0.8422700242090231  0.5797441799209683  1.0000
  S   S200      1.0  0.7957613077146859  0.9091885821102996  0.5975787700693218  1.0000
  Fe  Fe101     1.0  0.8720060431540555  0.563687443730749  0.7124152798159855  1.0000
  S   S201      1.0  0.904479061080456  0.5336343038208302  0.6919345679442414  1.0000
  S   S202      1.0  0.8690007789929373  0.5603226145057022  0.7466359343625726  1.0000
  Fe  Fe102     1.0  0.8556115347838688  0.6142331198296757  0.6787083044901184  1.0000
  S   S203      1.0  0.8878519504399176  0.5886403234411312  0.6558818557278185  1.0000
  S   S204      1.0  0.8241271894556074  0.6605937599918107  0.675778839462908  1.0000
  Fe  Fe103     1.0  0.8647321660061048  0.5414841040947043  0.6686521407809064  1.0000
  S   S205      1.0  0.8498627619220699  0.5012491403283811  0.646399222262168  1.0000
  Fe  Fe104     1.0  0.9247648260155354  0.5829499663776498  0.6809917321091136  1.0000
  S   S206      1.0  0.9801362011066729  0.5922343160184359  0.6833447258358241  1.0000
  S   S207      1.0  0.8302986114412639  0.5674872814137538  0.6900747387882815  1.0000
  S   S208      1.0  0.8943459586623435  0.6126227970754253  0.7026894950038958  1.0000
  Fe  Fe105     1.0  0.030906558139801855  0.9516381828343013  0.6781471895466639  1.0000
  S   S209      1.0  0.052529374105401615  0.9087440048080451  0.6952633356947838  1.0000
  S   S210      1.0  0.9761498432784982  0.9628871181122145  0.6757814778746448  1.0000
  Fe  Fe106     1.0  0.0991566409726581  0.9798516111162975  0.6663389851597845  1.0000
  S   S211      1.0  0.12654324564990152  0.9384756609897434  0.6819212171400529  1.0000
  S   S212      1.0  0.11668284657745523  0.02722448437487996  0.6507025176870971  1.0000
  Fe  Fe107     1.0  0.0874365554974411  0.904102731694356  0.6688771564715711  1.0000
  S   S213      1.0  0.08845518955129787  0.8563496526579947  0.6506174824874486  1.0000
  Fe  Fe108     1.0  0.08939708266240959  0.9464961773583612  0.7070607519682578  1.0000
  S   S214      1.0  0.10539657344877121  0.9483130835320188  0.7398866800086309  1.0000
  S   S215      1.0  0.06336208030392615  0.9451573743312692  0.6511434129585991  1.0000
  S   S216      1.0  0.06472382826277796  0.9897667168587042  0.6921701966468071  1.0000
  Fe  Fe109     1.0  0.19052966404610766  0.6157506252545228  0.6285069682955834  1.0000
  S   S217      1.0  0.16462944837885932  0.6142629608109639  0.5985110342851812  1.0000
  S   S218      1.0  0.20318742435779885  0.5662017589021492  0.6431668719327036  1.0000
  Fe  Fe110     1.0  0.17819228843184962  0.69079705653263  0.6334266911270046  1.0000
  S   S219      1.0  0.15024071897099495  0.6937926237671558  0.6043696338234439  1.0000
  S   S220      1.0  0.19061872340822608  0.7369025399665914  0.6517049402860725  1.0000
  Fe  Fe111     1.0  0.1262725251345078  0.6455330095199279  0.6140948844167958  1.0000
  S   S221      1.0  0.0721605988623324  0.6323011849486242  0.609107957803415  1.0000
  Fe  Fe112     1.0  0.1914746541276616  0.6625146762818168  0.591786887848635  1.0000
  S   S222      1.0  0.21684394503784232  0.6846885099484082  0.5640965788024772  1.0000
  S   S223      1.0  0.15095657564906628  0.6450528216235866  0.6443187246631796  1.0000
  S   S224      1.0  0.22065286731961706  0.6614937811525857  0.6206470662484151  1.0000
  Fe  Fe113     1.0  0.28556971699874073  0.11044837055223868  0.6217117251762823  1.0000
  S   S225      1.0  0.3143225754647787  0.1098102419609609  0.5924852186134897  1.0000
  S   S226      1.0  0.26895384464862376  0.06090882258219233  0.635323739685405  1.0000
  Fe  Fe114     1.0  0.29716310457429573  0.1852126979582777  0.6276022175809207  1.0000
  S   S227      1.0  0.32741788279166273  0.1895732473141069  0.5994220303722149  1.0000
  S   S228      1.0  0.28209308385492055  0.23118277050621389  0.6450852113111913  1.0000
  Fe  Fe115     1.0  0.28781732805210103  0.15753997974690784  0.5852671946270543  1.0000
  S   S229      1.0  0.26979244272544234  0.18036391706766464  0.55592454724382  1.0000
  Fe  Fe116     1.0  0.3511128847654968  0.14175922176576644  0.6091625345801246  1.0000
  S   S230      1.0  0.4059979011660938  0.13385852800556045  0.6038254901186254  1.0000
  S   S231      1.0  0.25598487553012544  0.15556003600361196  0.6131495996169047  1.0000
  S   S232      1.0  0.32414860041637183  0.13990367748757215  0.6387977129590892  1.0000
  Fe  Fe117     1.0  0.3749506200873229  0.44627303224476317  0.7105966416984637  1.0000
  S   S233      1.0  0.4002079087522599  0.4883158833121125  0.6942379257508347  1.0000
  S   S234      1.0  0.35281333473237914  0.4532474123839225  0.7418553859778886  1.0000
  Fe  Fe118     1.0  0.38051761402872003  0.39859667078633193  0.6745618385484888  1.0000
  S   S235      1.0  0.404171870206769  0.438429572474897  0.6553010163511128  1.0000
  S   S236      1.0  0.38715969125881133  0.34740625365636263  0.6604861152705871  1.0000
  Fe  Fe119     1.0  0.43498015586854216  0.44960937806667367  0.682286918608642  1.0000
  S   S237      1.0  0.48993011120319757  0.4588201485418245  0.6782052145119288  1.0000
  Fe  Fe120     1.0  0.3674753344363598  0.4738839026609281  0.668383470098557  1.0000
  S   S238      1.0  0.35232172411217955  0.5185944767006192  0.6498349013245824  1.0000
  S   S239      1.0  0.4132020086397525  0.408636381130087  0.7013657462356184  1.0000
  S   S240      1.0  0.33996690919293066  0.4331601309604949  0.6851147857701091  1.0000
  Fe  Fe121     1.0  0.5991933589916516  0.12383078046987482  0.6658479792510394  1.0000
  S   S241      1.0  0.5795317526916562  0.08988252809768164  0.6416916669136069  1.0000
  S   S242      1.0  0.5953504995924109  0.18021726637666344  0.6623052803385119  1.0000
  Fe  Fe122     1.0  0.6085497213066148  0.06532711852990836  0.695688658463819  1.0000
  S   S243      1.0  0.5893810561360772  0.02709476072012018  0.673758819945392  1.0000
  S   S244      1.0  0.6311943919614901  0.053892425794327625  0.7262348742485947  1.0000
  Fe  Fe123     1.0  0.6204718123223085  0.055005868304751404  0.6509673525803455  1.0000
  S   S245      1.0  0.6558806569735806  0.03325852727709688  0.627941097354466  1.0000
  Fe  Fe124     1.0  0.550289081042929  0.06530955690464689  0.6665398239211046  1.0000
  S   S246      1.0  0.4950991730737236  0.05436839718016606  0.6657671140776894  1.0000
  S   S247      1.0  0.6423360204257305  0.0910698681773536  0.6732931460541248  1.0000
  S   S248      1.0  0.5672517626711044  0.10134109335900816  0.690285015013635  1.0000
  Fe  Fe125     1.0  0.6812916474390411  0.32846327038422335  0.6130454487829845  1.0000
  S   S249      1.0  0.6428687272525795  0.33450588200272163  0.5892329097321888  1.0000
  S   S250      1.0  0.7008374316955044  0.2770039732946318  0.6201868272413092  1.0000
  Fe  Fe126     1.0  0.6857585455618738  0.4032881065453796  0.6205767236412689  1.0000
  S   S251      1.0  0.6474271372716233  0.41508214523303516  0.5970535310224007  1.0000
  S   S252      1.0  0.7034658254599415  0.4423721007478043  0.6428276609635886  1.0000
  Fe  Fe127     1.0  0.6194279038124221  0.3714209869553781  0.6101498081346958  1.0000
  S   S253      1.0  0.5639730081442785  0.36745250277576486  0.6147126243202142  1.0000
  Fe  Fe128     1.0  0.6743907941912705  0.37729558485240416  0.5780628228034469  1.0000
  S   S254      1.0  0.6782656564371846  0.38064543481799595  0.5439012185110281  1.0000
  S   S255      1.0  0.6555937985857003  0.3619856329915275  0.6349639598396918  1.0000
  S   S256      1.0  0.7150490196470694  0.36873320923251507  0.6006186760079866  1.0000
  C   C1        1.0  0.6254810588267932  0.20617030655730859  0.6505667061293005  1.0000
  C   C2        1.0  0.6555154485452883  0.19380632738819342  0.6432347197594444  1.0000
  C   C3        1.0  0.6786553648612622  0.21564371535437774  0.6339774359439608  1.0000
  C   C4        1.0  0.671627420414842  0.24976372243446215  0.6317164893872789  1.0000
  C   C5        1.0  0.6415003113640169  0.2619680816325288  0.638905005815861  1.0000
  C   C6        1.0  0.6187438775051411  0.24035226668757892  0.6484662462342011  1.0000
  H   H1        1.0  0.6609974145614362  0.1675212196325981  0.6448276083409057  1.0000
  H   H2        1.0  0.7019435424128605  0.20599018323929655  0.6284982643322399  1.0000
  H   H3        1.0  0.6357667611707385  0.2881564752794299  0.6372655746222232  1.0000
  H   H4        1.0  0.5958498288185695  0.2502822184621435  0.6543298777610338  1.0000
  C   C7        1.0  0.5106248931216123  0.4341826511407205  0.6601640513170325  1.0000
  C   C8        1.0  0.5452628039036429  0.4361068522225412  0.6583700090053732  1.0000
  C   C9        1.0  0.5620940848407475  0.416094404458751  0.6442944781793828  1.0000
  C   C10       1.0  0.5442298920233906  0.3943330418890668  0.6318334107180121  1.0000
  C   C11       1.0  0.5096189188518988  0.3929762702355755  0.6333784113774712  1.0000
  C   C12       1.0  0.49292872643819075  0.41251874591687054  0.6476004185947277  1.0000
  H   H5        1.0  0.5591880701449752  0.45283885390338513  0.6680123195538539  1.0000
  H   H6        1.0  0.5888458565264452  0.4173817214232664  0.643153137339782  1.0000
  H   H7        1.0  0.49566785937390545  0.37643823096079865  0.6236261912555224  1.0000
  H   H8        1.0  0.46637100118929053  0.41052405337527453  0.6488653713797927  1.0000
  C   C13       1.0  0.43029962402677485  0.11193529563555349  0.6213576682335579  1.0000
  C   C14       1.0  0.4616078537798407  0.10051473121754087  0.6153923744878272  1.0000
  C   C15       1.0  0.4819889858640066  0.08354310420474162  0.6290761134087248  1.0000
  C   C16       1.0  0.4708727847606984  0.07728452204751694  0.6487144720291665  1.0000
  C   C17       1.0  0.43933132506409306  0.08819315444271193  0.6545905130090451  1.0000
  C   C18       1.0  0.419241454989186  0.10587651826782378  0.6410296625375693  1.0000
  H   H9        1.0  0.47010929873649016  0.1047084724192951  0.6000917810026037  1.0000
  H   H10       1.0  0.5060045827229237  0.0746047025315397  0.6243306565715208  1.0000
  H   H11       1.0  0.43065545328463134  0.08334638988004738  0.669789060166472  1.0000
  H   H12       1.0  0.3953016966557135  0.11486364755174219  0.6458240560442586  1.0000
  C   C19       1.0  0.31154815998372953  0.2630864933938003  0.6498092185835613  1.0000
  C   C20       1.0  0.34438428964729884  0.260144250893352  0.6433524388573751  1.0000
  C   C21       1.0  0.36711141580191786  0.28632546540690945  0.6467494166584769  1.0000
  C   C22       1.0  0.3572274598834046  0.3156635150026157  0.6565616574866309  1.0000
  C   C23       1.0  0.32435481252388976  0.31872179946248114  0.6629580200365547  1.0000
  C   C24       1.0  0.30158919012116403  0.2924498146503771  0.6595841238605809  1.0000
  H   H13       1.0  0.3522733426928959  0.2376737964960584  0.6357785024513565  1.0000
  H   H14       1.0  0.39248035987146807  0.28384112302186537  0.641712750011464  1.0000
  H   H15       1.0  0.31652640825329426  0.34118082644373693  0.6705731938852059  1.0000
  H   H16       1.0  0.2761839371734198  0.29486523183212127  0.6646015655785095  1.0000
  C   C25       1.0  0.24471360451424484  0.5531403450944966  0.6446113589972936  1.0000
  C   C26       1.0  0.2708075520556732  0.5735601663349458  0.6379248609762476  1.0000
  C   C27       1.0  0.3036685359487139  0.562470576901493  0.6394328817256089  1.0000
  C   C28       1.0  0.3106375286552789  0.5309512428326235  0.6476153991030698  1.0000
  C   C29       1.0  0.2845172964258613  0.5103853589461121  0.6541473440871762  1.0000
  C   C30       1.0  0.25166977890937986  0.5215688701100903  0.6527671879725913  1.0000
  H   H17       1.0  0.26567628923645936  0.5978799308581281  0.6315637362212653  1.0000
  H   H18       1.0  0.32372973692216334  0.5784626131994737  0.6342474968603011  1.0000
  H   H19       1.0  0.28956057396445467  0.4857637910628313  0.6600737765997579  1.0000
  H   H20       1.0  0.23153613120362512  0.5055756861782112  0.6578330891889945  1.0000
  C   C31       1.0  0.15904857167856207  0.035601320211639434  0.645955740839419  1.0000
  C   C32       1.0  0.16837332875788608  0.066967655080182  0.6381740471900496  1.0000
  C   C33       1.0  0.2019504280622976  0.07500627670832606  0.634786645323666  1.0000
  C   C34       1.0  0.2264809397148482  0.05169290502367914  0.6391846062365456  1.0000
  C   C35       1.0  0.21716879155924895  0.020316919628736684  0.6470192899128798  1.0000
  C   C36       1.0  0.18356070868586263  0.012218393484113575  0.650340240335045  1.0000
  H   H21       1.0  0.14956571828460288  0.0851924462529039  0.6347410524126186  1.0000
  H   H22       1.0  0.20881057663143443  0.09921973209161333  0.6287417491469608  1.0000
  H   H23       1.0  0.23599957072691471  0.002099871734928982  0.6503964845410632  1.0000
  H   H24       1.0  0.17665886315604912  0.9878604117733916  0.6561725603301987  1.0000
  C   C37       1.0  0.1608218059147954  0.7688431762404598  0.6532592541143085  1.0000
  C   C38       1.0  0.16868420580303925  0.7988268597407281  0.6632044838171132  1.0000
  C   C39       1.0  0.1463547302203194  0.8256950288683638  0.6631320497299669  1.0000
  C   C40       1.0  0.11621605672263174  0.8227438199906159  0.6528942625413914  1.0000
  C   C41       1.0  0.10829011397386003  0.7926154746947974  0.6431837768735915  1.0000
  C   C42       1.0  0.13028437520539154  0.7656448995159199  0.6435557458108393  1.0000
  H   H25       1.0  0.19225824460646607  0.8014242237398583  0.6707844039470485  1.0000
  H   H26       1.0  0.15267921133214246  0.8488274406979608  0.6706365198836971  1.0000
  H   H27       1.0  0.08496931428221305  0.7901497345286687  0.6352941089376933  1.0000
  H   H28       1.0  0.12379444553533829  0.7425972862101449  0.6360238722930021  1.0000
  C   C43       1.0  0.8091909732491194  0.48480159935109973  0.6456825699095489  1.0000
  C   C44       1.0  0.8002236975086905  0.4628820787757  0.6300839443352498  1.0000
  C   C45       1.0  0.7678529295226061  0.44965454126841103  0.6289548663419543  1.0000
  C   C46       1.0  0.7442737294388123  0.4583888673805633  0.6434430256885754  1.0000
  C   C47       1.0  0.75327128526429  0.4801995062383973  0.659072454100993  1.0000
  C   C48       1.0  0.7856486124393937  0.49327888574325235  0.6602432558850928  1.0000
  H   H29       1.0  0.8183773061308325  0.45627300766296325  0.6187640659281757  1.0000
  H   H30       1.0  0.7611146572732134  0.4329828517154764  0.616806812308423  1.0000
  H   H31       1.0  0.7351659134432343  0.48679907570392555  0.6704203564105438  1.0000
  H   H32       1.0  0.7924803911712629  0.5095875056631394  0.6725207418980672  1.0000
  C   C49       1.0  0.004321521996224264  0.6052030141504012  0.6624791709859056  1.0000
  C   C50       1.0  0.036554507293340394  0.6173023532835908  0.6658903826709714  1.0000
  C   C51       1.0  0.05710887328230136  0.6267760722206891  0.6496816359228339  1.0000
  C   C52       1.0  0.04589468146533603  0.6234869944287645  0.6298685888185984  1.0000
  C   C53       1.0  0.013534531109743137  0.6116074530819333  0.6264338276593935  1.0000
  C   C54       1.0  0.9927055676950102  0.6026346255355425  0.6426925746751005  1.0000
  H   H33       1.0  0.04562485621760715  0.6196038417454951  0.6811572290841178  1.0000
  H   H34       1.0  0.08167402604479303  0.6364328164859463  0.6525712685313079  1.0000
  H   H35       1.0  0.004599870430349595  0.6091607276354006  0.6111418794489974  1.0000
  H   H36       1.0  0.9678992007543459  0.5933020657706076  0.6399070315867806  1.0000
  C   C55       1.0  0.7060402237994321  0.9316109194839028  0.635527311216336  1.0000
  C   C56       1.0  0.7204718167013078  0.956618161453515  0.6235550201313053  1.0000
  C   C57       1.0  0.7048650141489752  0.9876991523764006  0.621448520736539  1.0000
  C   C58       1.0  0.6749134660848294  0.9941882526878794  0.6314567295372285  1.0000
  C   C59       1.0  0.6604559250785739  0.9692405754860289  0.6434783124056024  1.0000
  C   C60       1.0  0.6760027101926765  0.9380555969722096  0.6455025297563184  1.0000
  H   H37       1.0  0.7438137529752664  0.9521316212650242  0.6160495575310103  1.0000
  H   H38       1.0  0.7161945685624763  0.006922794556014411  0.6121373269679218  1.0000
  H   H39       1.0  0.6370740399111712  0.9738037952891087  0.6509587780584575  1.0000
  H   H40       1.0  0.6646256088109038  0.9187497592502369  0.6547318331374143  1.0000
  C   C61       1.0  0.9157656565693107  0.9067415139926116  0.6280216764546385  1.0000
  C   C62       1.0  0.8997325094632634  0.9268293975911943  0.6421687087975885  1.0000
  C   C63       1.0  0.9183607420963945  0.9435812326048267  0.6570431306792311  1.0000
  C   C64       1.0  0.9528743535774693  0.9395857968275289  0.6581514293244005  1.0000
  C   C65       1.0  0.9686136215535832  0.9185638064838567  0.6444310109429943  1.0000
  C   C66       1.0  0.9502434820464833  0.902839874987951  0.6291792789758561  1.0000
  H   H41       1.0  0.8731923939664109  0.9301241355594141  0.6413249490030537  1.0000
  H   H42       1.0  0.9060198753673981  0.959781401654372  0.6676497958177434  1.0000
  H   H43       1.0  0.9950852286718258  0.914909850872404  0.6452840592247993  1.0000
  H   H44       1.0  0.9629203833024598  0.8876686030501338  0.6181691781110985  1.0000
  C   C67       1.0  0.816107435434812  0.7311023118464441  0.6214604189148338  1.0000
  C   C68       1.0  0.8045821737389005  0.7407500974837299  0.6404278965594224  1.0000
  C   C69       1.0  0.8079244355405466  0.7191088353675194  0.6570258182923582  1.0000
  C   C70       1.0  0.8236192879903463  0.6881401798814155  0.6549328414035016  1.0000
  C   C71       1.0  0.8361912831400761  0.678969829922094  0.6360871769221912  1.0000
  C   C72       1.0  0.8318701370762384  0.7001418139076282  0.6193442465474445  1.0000
  H   H45       1.0  0.7922683939787539  0.764465631983132  0.642201487687915  1.0000
  H   H46       1.0  0.7980074305941537  0.7262980373682281  0.6715451263181169  1.0000
  H   H47       1.0  0.8485633295497748  0.6553331639475487  0.6342903538157622  1.0000
  H   H48       1.0  0.8409115159598204  0.6926081077410073  0.6046823398687459  1.0000
  C   C73       1.0  0.6160795483918498  0.2832899540553873  0.15291272524696262  1.0000
  C   C74       1.0  0.642182527294662  0.3005071802867408  0.14349599811791158  1.0000
  C   C75       1.0  0.6647442004509386  0.28322752647651783  0.13124391038219158  1.0000
  C   C76       1.0  0.6614019096588103  0.24866144399851248  0.1282977731402001  1.0000
  C   C77       1.0  0.635423169656614  0.23133506099634293  0.13782829519293835  1.0000
  C   C78       1.0  0.6128447963616398  0.24862973842581648  0.15010520414219244  1.0000
  H   H49       1.0  0.644851970242522  0.32721315976754184  0.14553388279124055  1.0000
  H   H50       1.0  0.6847337876200434  0.29680719477325745  0.12390146605688675  1.0000
  H   H51       1.0  0.6326127289900054  0.20472519990793947  0.1356367247001251  1.0000
  H   H52       1.0  0.5928173385299098  0.23518692679563313  0.15744096540380523  1.0000
  C   C79       1.0  0.5332802844934106  0.07087423704091782  0.15839785116240926  1.0000
  C   C80       1.0  0.5672706820373714  0.07809701795297354  0.16000863689725378  1.0000
  C   C81       1.0  0.5869382075662881  0.0823888509226847  0.1426429541854555  1.0000
  C   C82       1.0  0.5727753204267484  0.07913473630671954  0.12352459748421242  1.0000
  C   C83       1.0  0.5389584544854377  0.07111637805187726  0.12189719500029125  1.0000
  C   C84       1.0  0.5192274497925711  0.06711442153128777  0.13927590079975505  1.0000
  H   H53       1.0  0.5783550112198067  0.08082300620655417  0.17475176731005138  1.0000
  H   H54       1.0  0.613034690035163  0.08819665847467041  0.14406599053990368  1.0000
  H   H55       1.0  0.5278784307348626  0.06840825657551823  0.10715353784916486  1.0000
  H   H56       1.0  0.4931836062476376  0.06114347069114874  0.13784499774466125  1.0000
  C   C85       1.0  0.3284255784226469  0.24958426348496013  0.15503846549498065  1.0000
  C   C86       1.0  0.32565864614949985  0.22220625059966512  0.1682414298842504  1.0000
  C   C87       1.0  0.3456838470694077  0.19390007043103671  0.1656418004004112  1.0000
  C   C88       1.0  0.36851143557068267  0.19288036273882098  0.14975622868671404  1.0000
  C   C89       1.0  0.3713776186245261  0.22035476488132572  0.13665688159765219  1.0000
  C   C90       1.0  0.35149813852832734  0.2486009518725579  0.1392994949307003  1.0000
  H   H57       1.0  0.30795308604727123  0.22282713180242572  0.1805275170692377  1.0000
  H   H58       1.0  0.3433726842450122  0.1728584759195681  0.17585277620169174  1.0000
  H   H59       1.0  0.3889810572379365  0.21966914015982805  0.12431944282642811  1.0000
  H   H60       1.0  0.35412097025636724  0.26953601985155384  0.12913359978347874  1.0000
  C   C91       1.0  0.4330503589334256  0.3980377738038059  0.12270869297572434  1.0000
  C   C92       1.0  0.4670063171549021  0.39079835478841096  0.12200294200934608  1.0000
  C   C93       1.0  0.48916762550080606  0.40566015355445034  0.135705648814183  1.0000
  C   C94       1.0  0.4776597321359514  0.4285706903349526  0.1499148130322087  1.0000
  C   C95       1.0  0.4437298001452549  0.4361272466947992  0.1504911640194706  1.0000
  C   C96       1.0  0.42141522562583633  0.42067002349800947  0.1370646788172262  1.0000
  H   H61       1.0  0.4762322500020449  0.37348474463614156  0.11086118367285391  1.0000
  H   H62       1.0  0.5152479112080453  0.3997792792786246  0.13503263339458352  1.0000
  H   H63       1.0  0.43464661755308853  0.45394726010079123  0.16136572737016677  1.0000
  H   H64       1.0  0.39533686586721395  0.4266537987570084  0.13761807064179088  1.0000
  C   C97       1.0  0.259520593785515  0.9626100964024672  0.14128081113388227  1.0000
  C   C98       1.0  0.26970812431749897  0.9955019559139522  0.14542047350688905  1.0000
  C   C99       1.0  0.30321049455959753  0.0030846510033777363  0.14909996494397093  1.0000
  C   C100      1.0  0.3267719202707974  0.9777554981857429  0.14860258283930824  1.0000
  C   C101      1.0  0.3166186699995965  0.94483374840789  0.14444751012969723  1.0000
  C   C102      1.0  0.2830404919031411  0.9371931747775699  0.14093137120210047  1.0000
  H   H65       1.0  0.2516078446081086  0.015289436787873978  0.14559075697736815  1.0000
  H   H66       1.0  0.3108258172481454  0.02855099462209454  0.15214466081984482  1.0000
  H   H67       1.0  0.3347900720025433  0.9251200665445453  0.1441454080494188  1.0000
  H   H68       1.0  0.27541567936277156  0.9117274018050257  0.1379165833564749  1.0000
  C   C103      1.0  0.8044725971434552  0.9956637804231894  0.14632116355753066  1.0000
  C   C104      1.0  0.7760642309025426  0.0016085568179082797  0.13479056585068697  1.0000
  C   C105      1.0  0.7590468579960804  0.03192480031757046  0.13644322336007617  1.0000
  C   C106      1.0  0.7701744357927816  0.05655125021138467  0.1497513641175723  1.0000
  C   C107      1.0  0.7988694948528848  0.05085324461979795  0.16114600059814585  1.0000
  C   C108      1.0  0.8162839067969044  0.02068943981477933  0.15919898939805577  1.0000
  H   H69       1.0  0.7669605479571248  0.9825207889794586  0.12464308745845204  1.0000
  H   H70       1.0  0.7369705100840358  0.03592224141617982  0.12764341686300093  1.0000
  H   H71       1.0  0.8078836382467699  0.06997642906675904  0.17127823310724574  1.0000
  H   H72       1.0  0.8388533687233235  0.016822071697956475  0.16759198348088217  1.0000
  C   C109      1.0  0.009173355940003125  0.9263128562679807  0.16345950280280805  1.0000
  C   C110      1.0  0.9950776972034683  0.9187527582841206  0.1447637753496367  1.0000
  C   C111      1.0  0.015057826940162925  0.90701149143866  0.1289139261083539  1.0000
  C   C112      1.0  0.04921686858303505  0.9024813104880165  0.13166570594995122  1.0000
  C   C113      1.0  0.06329613916102327  0.9103398818367373  0.1503225303150366  1.0000
  C   C114      1.0  0.043381032829240704  0.9223601524333676  0.16611277925782184  1.0000
  H   H73       1.0  0.9688686441373329  0.922345711497744  0.14240618052550483  1.0000
  H   H74       1.0  0.003999160222390774  0.9012754888725583  0.11447790381449101  1.0000
  H   H75       1.0  0.08951388957604263  0.9071812305095118  0.15264055055329886  1.0000
  H   H76       1.0  0.05453696625084457  0.9282897901829371  0.18048534841058653  1.0000
  C   C115      1.0  0.15758352358627256  0.4738919227637512  0.14753297887977254  1.0000
  C   C116      1.0  0.18155773254534294  0.49908642279549614  0.14939750539619537  1.0000
  C   C117      1.0  0.21537254966180713  0.49130605934083377  0.14814930798738654  1.0000
  C   C118      1.0  0.22549893132074142  0.4583483306377522  0.14484335238851315  1.0000
  C   C119      1.0  0.20156016195372797  0.43306711767427436  0.14297385787699124  1.0000
  C   C120      1.0  0.16768179823801696  0.4408683906819335  0.1442660548733773  1.0000
  H   H77       1.0  0.17408075095682315  0.5246772251113028  0.15149962624145272  1.0000
  H   H78       1.0  0.23378831899687402  0.511001126423368  0.1495163201224583  1.0000
  H   H79       1.0  0.20914324869833228  0.40749371205526647  0.14084012767034906  1.0000
  H   H80       1.0  0.14921304579074013  0.42121457141428637  0.14298150188158038  1.0000
  C   C121      1.0  0.12904514637231945  0.6904698645408452  0.15071751771057115  1.0000
  C   C122      1.0  0.12064510892889566  0.7186855585663597  0.13929005379616452  1.0000
  C   C123      1.0  0.13587009072917808  0.7497616917327425  0.14295413484601605  1.0000
  C   C124      1.0  0.1603502828039288  0.7527547620865773  0.15770983912762718  1.0000
  C   C125      1.0  0.16811385237846344  0.7247670497633886  0.16956111831875254  1.0000
  C   C126      1.0  0.15237361700373286  0.6937089320441363  0.16616508707811206  1.0000
  H   H81       1.0  0.1025527303875377  0.7163499884157469  0.1273574706167423  1.0000
  H   H82       1.0  0.12891093686341346  0.771263454502592  0.13417723052184705  1.0000
  H   H83       1.0  0.1869160511800599  0.7269121404985066  0.18109015731285277  1.0000
  H   H84       1.0  0.1592551035511634  0.6720367654938871  0.17492629951748193  1.0000
  C   C127      1.0  0.7062081115236076  0.5529650782721813  0.13710797321982268  1.0000
  C   C128      1.0  0.7219060060305104  0.5280075886660798  0.1260328223067697  1.0000
  C   C129      1.0  0.7117651710413174  0.4944849959209419  0.12830365269420696  1.0000
  C   C130      1.0  0.6858119658016768  0.4857631021321211  0.1415619939212731  1.0000
  C   C131      1.0  0.6699880917137251  0.5108077489983768  0.1524900790448086  1.0000
  C   C132      1.0  0.680157521298536  0.5442992615299354  0.1502385078231223  1.0000
  H   H85       1.0  0.7413633239438577  0.5345983121395758  0.11549012824884199  1.0000
  H   H86       1.0  0.7238411836560509  0.4751631119154642  0.11967445562008265  1.0000
  H   H87       1.0  0.6499920639565206  0.5043456255123342  0.16271809076298946  1.0000
  H   H88       1.0  0.6677727639474103  0.5635665421572628  0.15875286908063518  1.0000
  C   C133      1.0  0.9093181519379967  0.5798329013761713  0.1310012649395396  1.0000
  C   C134      1.0  0.9404722060547251  0.5649756616638942  0.12867947624934276  1.0000
  C   C135      1.0  0.9636547943172075  0.5654065353752071  0.14447537439060643  1.0000
  C   C136      1.0  0.9554983449211379  0.5799273339147301  0.16295179577535626  1.0000
  C   C137      1.0  0.9242282984944477  0.5946408650854582  0.16534526749387013  1.0000
  C   C138      1.0  0.9013450459035753  0.595002735363528  0.14934524503256008  1.0000
  H   H89       1.0  0.9467494250516557  0.5530140401868685  0.11458327278250888  1.0000
  H   H90       1.0  0.9875579075758192  0.5538261200604383  0.14248932378577955  1.0000
  H   H91       1.0  0.9177618502572509  0.605948633920726  0.17959717596772382  1.0000
  H   H92       1.0  0.8774243787809639  0.6064952705267695  0.15134139999969592  1.0000
  C   C139      1.0  0.8278337711668724  0.7548006437022224  0.13290990079917003  1.0000
  C   C140      1.0  0.8479765094019369  0.7376233762679879  0.14647491060190346  1.0000
  C   C141      1.0  0.8662064904570114  0.7554299918980381  0.16103566714027018  1.0000
  C   C142      1.0  0.8643358561744551  0.790397404653088  0.1621050791678863  1.0000
  C   C143      1.0  0.8445266247033865  0.8075665967896015  0.14837683016249725  1.0000
  C   C144      1.0  0.826341498396511  0.7897874802893897  0.13382760063591267  1.0000
  H   H93       1.0  0.8492941307785176  0.710670182994133  0.1458628289521852  1.0000
  H   H94       1.0  0.8814855780212028  0.742021324715556  0.17164412644409693  1.0000
  H   H95       1.0  0.8429516891371857  0.8345080520866599  0.14908033220034134  1.0000
  H   H96       1.0  0.810760317289742  0.8032187745061764  0.12339420445603552  1.0000
  C   C145      1.0  0.7716208207763696  0.3671089980357356  0.5050851941206631  1.0000
  C   C146      1.0  0.7400819536065687  0.3608112709660962  0.4972365956260666  1.0000
  C   C147      1.0  0.7117869392151897  0.36508693022265876  0.5093523923417681  1.0000
  C   C148      1.0  0.7147437563898055  0.3749423566784623  0.529570436539115  1.0000
  C   C149      1.0  0.746295067080432  0.38042397244952075  0.5376369731163401  1.0000
  C   C150      1.0  0.7746169148008398  0.3767017802332634  0.5253752118355567  1.0000
  H   H97       1.0  0.7374708750974583  0.35265960267415813  0.4818261736490501  1.0000
  H   H98       1.0  0.6874446846354221  0.36061117704106777  0.50304194526884  1.0000
  H   H99       1.0  0.7488511880925672  0.3882835829898068  0.5531525998235479  1.0000
  H   H100      1.0  0.7989573258882379  0.38163531540642687  0.5315655489496361  1.0000
  C   C151      1.0  0.8766434299567769  0.023201352608696713  0.28309634831333347  1.0000
  C   C152      1.0  0.8806341430994449  0.02501672959845913  0.2620705029830748  1.0000
  C   C153      1.0  0.8714622201650464  0.9979867577816389  0.24974354602870072  1.0000
  C   C154      1.0  0.8590070596638018  0.9685885373941149  0.25842370231626416  1.0000
  C   C155      1.0  0.854009969138972  0.9671270216954417  0.27937160206766076  1.0000
  C   C156      1.0  0.8627542668151751  0.9943677765780985  0.29169641656196427  1.0000
  H   H101      1.0  0.8910603835338631  0.04743827838301229  0.25533975188020364  1.0000
  H   H102      1.0  0.8744365509443204  0.9998260779762218  0.23357873907596505  1.0000
  H   H103      1.0  0.8440577770842511  0.9445634381105731  0.2861864822346164  1.0000
  H   H104      1.0  0.8596009973556226  0.992737938231161  0.30788379947509126  1.0000
  C   C157      1.0  0.7868568333792919  0.1798771912002335  0.3720666439522486  1.0000
  C   C158      1.0  0.7746628967440758  0.21189820985449187  0.3680626237516419  1.0000
  C   C159      1.0  0.7684235032129811  0.23426459639898967  0.3838914393953389  1.0000
  C   C160      1.0  0.7734139426078279  0.22430723285785792  0.4038651085266073  1.0000
  C   C161      1.0  0.7855689205344623  0.19225113181898204  0.4078830173822409  1.0000
  C   C162      1.0  0.7930076532309914  0.17037168667929747  0.3920014533282182  1.0000
  H   H105      1.0  0.7697775203580877  0.21935886589653725  0.35266766616699224  1.0000
  H   H106      1.0  0.758633269970213  0.2587846516686866  0.38069717996244967  1.0000
  H   H107      1.0  0.7893015926241853  0.18442073914575113  0.42333167450505965  1.0000
  H   H108      1.0  0.802537480998117  0.14586312014979042  0.3952370800649413  1.0000
  C   C163      1.0  0.0877820958851937  0.4877623444533858  0.28258770524474286  1.0000
  C   C164      1.0  0.07753103633866809  0.4851150340180035  0.26244393098928137  1.0000
  C   C165      1.0  0.08753841527903415  0.5088694282992391  0.2479912205813813  1.0000
  C   C166      1.0  0.1075577234380531  0.5359365941079806  0.2535699309037301  1.0000
  C   C167      1.0  0.1181285032000985  0.5385196727396153  0.27368699727671064  1.0000
  C   C168      1.0  0.10833241664595658  0.5144835683355865  0.2881743233848405  1.0000
  H   H109      1.0  0.06171378938752092  0.46442794273892374  0.2580182442335032  1.0000
  H   H110      1.0  0.07945951264261292  0.5061609136865486  0.2325965974688913  1.0000
  H   H111      1.0  0.13381653746830158  0.5592695390810516  0.2781454537541932  1.0000
  H   H112      1.0  0.11637135242392942  0.516757814659774  0.30366381312550483  1.0000
  C   C169      1.0  0.977235049533406  0.41354546539746495  0.39605921896768853  1.0000
  C   C170      1.0  0.9528169426932745  0.41603852117969525  0.4111056645121339  1.0000
  C   C171      1.0  0.9273834525598951  0.3918515435189234  0.41277772898321474  1.0000
  C   C172      1.0  0.9263596032040744  0.36481935754306855  0.39948702212581444  1.0000
  C   C173      1.0  0.95047528246671  0.36261512285258835  0.38422743736316234  1.0000
  C   C174      1.0  0.9756849906908381  0.38701021175086286  0.3824259815116473  1.0000
  H   H113      1.0  0.9536533974349521  0.43664501037380105  0.4216068611508662  1.0000
  H   H114      1.0  0.9089543791790626  0.3937873016561758  0.42459242515071377  1.0000
  H   H115      1.0  0.9494947876706042  0.34214017517007417  0.37364742365975445  1.0000
  H   H116      1.0  0.993832413817633  0.3854055583359806  0.3704521525608396  1.0000
  C   C175      1.0  0.21113966481839086  0.12660283793408242  0.5061675188562217  1.0000
  C   C176      1.0  0.22132781046282268  0.1088976756407643  0.5233645645747887  1.0000
  C   C177      1.0  0.23921698948875933  0.12498657708067473  0.5388013083376051  1.0000
  C   C178      1.0  0.24714365915926464  0.1589435559808573  0.5370878264397283  1.0000
  C   C179      1.0  0.23704571359291  0.17661549590604386  0.5198555338302705  1.0000
  C   C180      1.0  0.21906908122532012  0.16056142009811072  0.5044614241562257  1.0000
  H   H117      1.0  0.21529710893905993  0.0826017660392688  0.5247717527188025  1.0000
  H   H118      1.0  0.2468120338598076  0.11114162321620585  0.5520052767422465  1.0000
  H   H119      1.0  0.24307283646600988  0.20289465171271842  0.518406761757545  1.0000
  H   H120      1.0  0.2113551883331721  0.17445014289228475  0.49129189825741315  1.0000
  C   C181      1.0  0.9798006807326386  0.12187438354974561  0.3900001977385368  1.0000
  C   C182      1.0  0.002677834154763081  0.14514465922328607  0.39780063684678535  1.0000
  C   C183      1.0  0.03434784532867022  0.13497453394877085  0.40408245220438854  1.0000
  C   C184      1.0  0.043254267516584  0.10138757607699121  0.4026585041102134  1.0000
  C   C185      1.0  0.020444237159392857  0.0781918752453663  0.39476250624750786  1.0000
  C   C186      1.0  0.9888411403871429  0.08836708167981397  0.38843428936424534  1.0000
  H   H121      1.0  0.9958404875571588  0.17108761172554723  0.3990706298610644  1.0000
  H   H122      1.0  0.051746600871036205  0.15300091291438883  0.41015505746474423  1.0000
  H   H123      1.0  0.027102729313258973  0.052149586576801285  0.3937019557184302  1.0000
  H   H124      1.0  0.9713870480522575  0.0702449176770275  0.38251888651111826  1.0000
  C   C187      1.0  0.1433534738534528  0.26849803532132555  0.41119809356476816  1.0000
  C   C188      1.0  0.14311191446869512  0.3034805298401662  0.412750805682029  1.0000
  C   C189      1.0  0.13536639549885834  0.32343967277058217  0.39594865118811245  1.0000
  C   C190      1.0  0.12802787150169023  0.3084765591238971  0.3774482772418874  1.0000
  C   C191      1.0  0.12887565540937454  0.27356233905251665  0.3758139960097889  1.0000
  C   C192      1.0  0.13647991310320562  0.25361998092188776  0.3926202977750828  1.0000
  H   H125      1.0  0.148568978790448  0.31513822921456575  0.427070579826263  1.0000
  H   H126      1.0  0.13509680617033235  0.3503298187969155  0.39731039160154535  1.0000
  H   H127      1.0  0.12327902148180203  0.26185774921046767  0.3615241920844939  1.0000
  H   H128      1.0  0.13653734426751055  0.22676117646957064  0.39124293599637266  1.0000
  C   C193      1.0  0.37106719199778593  0.9836873649923963  0.2789809879769904  1.0000
  C   C194      1.0  0.3565020863459568  0.013457887227640741  0.285279396030131  1.0000
  C   C195      1.0  0.3572395927432711  0.041697926130104035  0.27254169813854356  1.0000
  C   C196      1.0  0.3727299149686674  0.04042588478649578  0.2535498771633828  1.0000
  C   C197      1.0  0.3882015454203066  0.010936818904537127  0.24761156392328448  1.0000
  C   C198      1.0  0.38704774916141105  0.9826092146286058  0.26017039208552994  1.0000
  H   H129      1.0  0.34386439718102835  0.014449331250714792  0.2996816257171981  1.0000
  H   H130      1.0  0.34524937953175805  0.06445839121516084  0.27727071210796456  1.0000
  H   H131      1.0  0.40065317237927645  0.00974263890009075  0.2332235562571033  1.0000
  H   H132      1.0  0.39839374046033443  0.9596387585098196  0.25522027194749575  1.0000
  C   C199      1.0  0.2837625000605516  0.0124371236555596  0.39086699135673764  1.0000
  C   C200      1.0  0.25980122941824185  0.02050431222568023  0.405401511615356  1.0000
  C   C201      1.0  0.24481818163140634  0.05201651215503686  0.405403790933305  1.0000
  C   C202      1.0  0.25360377387802485  0.07578365733423337  0.3908186617784574  1.0000
  C   C203      1.0  0.27751976351282687  0.06774209062387915  0.3762313474765567  1.0000
  C   C204      1.0  0.29260884273277304  0.036152963634740215  0.37624202352202996  1.0000
  H   H133      1.0  0.2528146339752417  0.0021860180922399497  0.41671198129688625  1.0000
  H   H134      1.0  0.22656036634569274  0.057852698159369054  0.4167391221387793  1.0000
  H   H135      1.0  0.2845155982277143  0.08603803516794542  0.3649130324015449  1.0000
  H   H136      1.0  0.31106771083049867  0.030160688744093646  0.3649872662045751  1.0000
  C   C205      1.0  0.25009931071885894  0.6277080038125732  0.5074805880938641  1.0000
  C   C206      1.0  0.2340627016241914  0.6105857360220639  0.5233450029362563  1.0000
  C   C207      1.0  0.2237768964555411  0.6276097401869086  0.5408151454835345  1.0000
  C   C208      1.0  0.22941787470242622  0.6619917202612513  0.542530984431403  1.0000
  C   C209      1.0  0.24543914146278148  0.6791235587657558  0.526669515011823  1.0000
  C   C210      1.0  0.2557767003294098  0.6620874651613291  0.5092206338687225  1.0000
  H   H137      1.0  0.22961732481199687  0.5839917442683658  0.5221071681831424  1.0000
  H   H138      1.0  0.2114978461190668  0.6141557567635909  0.5529104162807782  1.0000
  H   H139      1.0  0.24992934652196594  0.7057065076037385  0.5278678457460124  1.0000
  H   H140      1.0  0.2681148396575307  0.675517524883842  0.4971286434668849  1.0000
  C   C211      1.0  0.18656583468616666  0.5182574207798382  0.3910661462860243  1.0000
  C   C212      1.0  0.1918951257701188  0.533374760081098  0.37227803671834575  1.0000
  C   C213      1.0  0.21395067334677065  0.5607741236786316  0.3705351107511978  1.0000
  C   C214      1.0  0.23055385957031443  0.5732962031482144  0.3875538489944679  1.0000
  C   C215      1.0  0.22498700343209432  0.5582960581000241  0.4063198113888789  1.0000
  C   C216      1.0  0.2032270429409046  0.5308250100081701  0.4080260148466009  1.0000
  H   H141      1.0  0.1792173696833407  0.5238396779424395  0.35911620489626983  1.0000
  H   H142      1.0  0.21815670801947512  0.572241448005486  0.3559507719933334  1.0000
  H   H143      1.0  0.2374495235023623  0.5677967871188319  0.41956552469432395  1.0000
  H   H144      1.0  0.19929222813201317  0.519256808533687  0.42261293660903027  1.0000
  C   C217      1.0  0.3581756441308924  0.8064468105298526  0.3811310935659765  1.0000
  C   C218      1.0  0.36144685067737975  0.7715596741440698  0.38086319040141975  1.0000
  C   C219      1.0  0.34930292135112767  0.7518728373103548  0.39690342314481436  1.0000
  C   C220      1.0  0.33368068316970667  0.7669882831629501  0.4133177665685792  1.0000
  C   C221      1.0  0.33096560784019147  0.8019379228574255  0.41373866869282794  1.0000
  C   C222      1.0  0.343182059859229  0.8216442989999636  0.39770988665864865  1.0000
  H   H145      1.0  0.3731999688283281  0.759690385941728  0.3681022394645321  1.0000
  H   H146      1.0  0.35179026992166046  0.7250363385252699  0.39646293574482994  1.0000
  H   H147      1.0  0.3188526534500175  0.8138099565195954  0.42638001812213255  1.0000
  H   H148      1.0  0.3406030770781338  0.848524977395934  0.3980809519015576  1.0000
  C   C223      1.0  0.6097884940789362  0.5123993564579913  0.27819306673441807  1.0000
  C   C224      1.0  0.6207049131763152  0.5130636740025253  0.25804478413876175  1.0000
  C   C225      1.0  0.6187443690824862  0.4842327941826335  0.24595663849847604  1.0000
  C   C226      1.0  0.6062086480449871  0.4543877000950905  0.25405109281468996  1.0000
  C   C227      1.0  0.5947301598266655  0.4538966108667691  0.2740716822458028  1.0000
  C   C228      1.0  0.5960863961962451  0.4828745574396993  0.28601319462654573  1.0000
  H   H149      1.0  0.6313876351191519  0.5358208485195247  0.25189217340864845  1.0000
  H   H150      1.0  0.6279726748993876  0.484814996754132  0.23061969133455223  1.0000
  H   H151      1.0  0.5848305460875233  0.4309195550449335  0.28039672173655533  1.0000
  H   H152      1.0  0.587211038196841  0.48217625759621496  0.3013976172992671  1.0000
  C   C229      1.0  0.6525577170976566  0.4502336541275218  0.3860816403728108  1.0000
  C   C230      1.0  0.6611831693221041  0.4171746739473381  0.39074963905682125  1.0000
  C   C231      1.0  0.6939537594852052  0.4091553330546265  0.39604854628283165  1.0000
  C   C232      1.0  0.7183037543135306  0.4342129693072008  0.396574506715132  1.0000
  C   C233      1.0  0.7095563089502236  0.46728027258391297  0.3921183767288671  1.0000
  C   C234      1.0  0.6767834953237912  0.4753324364204934  0.3870761914701498  1.0000
  H   H153      1.0  0.6424977051693027  0.3976405638371671  0.39008717731809694  1.0000
  H   H154      1.0  0.700428058630897  0.38359116822011646  0.39946969255218145  1.0000
  H   H155      1.0  0.7282505666728544  0.48683183574010575  0.39256449437596225  1.0000
  H   H156      1.0  0.6703659169799063  0.5009335232741808  0.3837838562307319  1.0000
  C   C235      1.0  0.4658570722692486  0.5795799589845831  0.3773806100334641  1.0000
  C   C236      1.0  0.4754135716964813  0.5660142983359442  0.39588101013807164  1.0000
  C   C237      1.0  0.455920757667779  0.571325826775808  0.4131825355016313  1.0000
  C   C238      1.0  0.42684770802659777  0.5902577986187217  0.41209664944403  1.0000
  C   C239      1.0  0.41732916824478816  0.6038426822049721  0.3935942346132474  1.0000
  C   C240      1.0  0.43666817172808514  0.5983104674832243  0.37627169831863044  1.0000
  H   H157      1.0  0.4975388728360877  0.5510259783949798  0.396787014526529  1.0000
  H   H158      1.0  0.4632640331328115  0.5605331602223693  0.42745015526164276  1.0000
  H   H159      1.0  0.39516944335926685  0.6187015861373267  0.39264062488528756  1.0000
  H   H160      1.0  0.4292083079798049  0.6088980958309226  0.36197393910842224  1.0000
  C   C241      1.0  0.7072329451741387  0.8427163134691993  0.4941809625083155  1.0000
  C   C242      1.0  0.7149674728036602  0.8255760609771859  0.5120779585690219  1.0000
  C   C243      1.0  0.7340994494000771  0.8409410154501112  0.5272349413216574  1.0000
  C   C244      1.0  0.7458805557942818  0.8735887347435863  0.524540514591076  1.0000
  C   C245      1.0  0.7378622930358258  0.8908990296327219  0.5067558923586576  1.0000
  C   C246      1.0  0.7185661623891665  0.8755864356739096  0.4916421802584069  1.0000
  H   H161      1.0  0.7063332601136558  0.8001253496322319  0.5141393097930531  1.0000
  H   H162      1.0  0.7400859246053882  0.8273461473267216  0.5408435877936424  1.0000
  H   H163      1.0  0.7468871891546348  0.9161775254234321  0.5045573191076305  1.0000
  H   H164      1.0  0.7128355274494617  0.8890052214742985  0.4779308869557432  1.0000
  C   C247      1.0  0.7373664342488724  0.940754433407396  0.38711567949239445  1.0000
  C   C248      1.0  0.7493593631360055  0.9597170634636497  0.37073247756500693  1.0000
  C   C249      1.0  0.7786613893949041  0.9788390186671855  0.3724059951758553  1.0000
  C   C250      1.0  0.7962718747360109  0.9791277016794773  0.3905284604094073  1.0000
  C   C251      1.0  0.7844010491975321  0.9599777508928615  0.40687222369605736  1.0000
  C   C252      1.0  0.75500112807436  0.9409236195717559  0.4052173514389823  1.0000
  H   H165      1.0  0.7359154727690962  0.9596008676219595  0.3566469320358963  1.0000
  H   H166      1.0  0.7877074718127371  0.9931739971053923  0.35964959972604477  1.0000
  H   H167      1.0  0.7979435364192525  0.9599860037732356  0.42093403005908636  1.0000
  H   H168      1.0  0.746083327516335  0.9263315946575646  0.4179170010147967  1.0000
  C   C253      1.0  0.5308607057150055  0.9166275026740194  0.4152136278285319  1.0000
  C   C254      1.0  0.5453423612862147  0.9252072323135248  0.3967082223460349  1.0000
  C   C255      1.0  0.5261641591758439  0.940098049863696  0.3815397816676546  1.0000
  C   C256      1.0  0.4923098896063274  0.9459212763779788  0.38465474239895975  1.0000
  C   C257      1.0  0.4778641308655501  0.9376028329663735  0.4032032534533855  1.0000
  C   C258      1.0  0.49716201859763354  0.923204127865544  0.41848165739712906  1.0000
  H   H169      1.0  0.5713563168603494  0.9206275706942695  0.39413315220528605  1.0000
  H   H170      1.0  0.5375694806165497  0.9468199582402145  0.3672978871922191  1.0000
  H   H171      1.0  0.4519148930978267  0.9426117099273429  0.4058568371127512  1.0000
  H   H172      1.0  0.4859112905414047  0.9168855823866994  0.4328421102717662  1.0000
  C   C259      1.0  0.630138657924667  0.7369339682206135  0.3828382036637373  1.0000
  C   C260      1.0  0.6470803222764033  0.7220605608755022  0.39880948558746  1.0000
  C   C261      1.0  0.6505438268801209  0.6871034620038989  0.39949129425748486  1.0000
  C   C262      1.0  0.6366779589707309  0.6667367985653287  0.38441930768838845  1.0000
  C   C263      1.0  0.6196591961672935  0.6816444108061847  0.3684759683749276  1.0000
  C   C264      1.0  0.6165909830462221  0.7166109905743676  0.36765206857061705  1.0000
  H   H173      1.0  0.6577063398289072  0.7374611836233326  0.4105618436619965  1.0000
  H   H174      1.0  0.6637075880679361  0.6757520788552778  0.4119033631472073  1.0000
  H   H175      1.0  0.609088505163605  0.6662790645337212  0.356704545772681  1.0000
  H   H176      1.0  0.6036428430195279  0.7279782135087236  0.35516809606131916  1.0000
  C   C265      1.0  0.7462188287965192  0.14022074467771037  0.9903274970470324  1.0000
  C   C266      1.0  0.7619972003751233  0.11027394554166624  0.9949892859619884  1.0000
  C   C267      1.0  0.7589022849164023  0.0964562072967344  0.014447203379470029  1.0000
  C   C268      1.0  0.740319897875836  0.11257571938220223  0.02943071622784134  1.0000
  C   C269      1.0  0.7245441716503134  0.14256126642479508  0.024795032239374203  1.0000
  C   C270      1.0  0.7274188805761778  0.15624920623901234  0.0052759404452824565  1.0000
  H   H177      1.0  0.7765258224170376  0.09772860391173949  0.9836063176597667  1.0000
  H   H178      1.0  0.7711662701478359  0.07323112866800024  0.017933803209663198  1.0000
  H   H179      1.0  0.7101955172348298  0.15520070993649898  0.03621488411117529  1.0000
  H   H180      1.0  0.7151230465129016  0.17942476116826386  0.001765347445539689  1.0000
  C   C271      1.0  0.23196147270443235  0.38042921806671653  0.010427084346744442  1.0000
  C   C272      1.0  0.21409700186605257  0.3517970903465466  0.016049328964351517  1.0000
  C   C273      1.0  0.21988467401512868  0.33664767767167086  0.03488597325637643  1.0000
  C   C274      1.0  0.24360342982615668  0.3499139006795733  0.04817683714500166  1.0000
  C   C275      1.0  0.2615987555985869  0.37844835106317154  0.04250924496323411  1.0000
  C   C276      1.0  0.25573298274346734  0.3936506586733936  0.02371319886293133  1.0000
  H   H181      1.0  0.1957090789925028  0.34143232979531446  0.005932674074463629  1.0000
  H   H182      1.0  0.2058591247051131  0.3145558790800135  0.03914315963389295  1.0000
  H   H183      1.0  0.28012504335619476  0.3887275087930168  0.052542905828243  1.0000
  H   H184      1.0  0.26970964974321077  0.41576044721856276  0.01943307784515902  1.0000
  C   C277      1.0  0.8781356594112717  0.4657510120964667  0.7853610370882748  1.0000
  C   C278      1.0  0.8716458168435486  0.4630597000991437  0.7646219033755794  1.0000
  C   C279      1.0  0.869793551073638  0.49176502721516524  0.752368005402208  1.0000
  C   C280      1.0  0.8736852787068415  0.523405143578101  0.7609167336008139  1.0000
  C   C281      1.0  0.8804941937458735  0.5260927678868151  0.7816072684484568  1.0000
  C   C282      1.0  0.8832550110845412  0.497386488270644  0.7937266672801837  1.0000
  H   H185      1.0  0.867750416483961  0.43864374009975154  0.7580387419198985  1.0000
  H   H186      1.0  0.8644728891128632  0.4894247838882726  0.7364525693388968  1.0000
  H   H187      1.0  0.883557541028767  0.5505247237607441  0.7883180700676405  1.0000
  H   H188      1.0  0.8887991971499286  0.49978064539489303  0.8095808708897609  1.0000
  C   C283      1.0  0.014886684737067784  0.45067041236784905  0.8902029798965742  1.0000
  C   C284      1.0  0.04934640394698988  0.44725948285226863  0.8881767981574029  1.0000
  C   C285      1.0  0.06819486699551404  0.43358159704711313  0.9039464558116252  1.0000
  C   C286      1.0  0.052695611359928875  0.4241267888028111  0.9219993887453297  1.0000
  C   C287      1.0  0.018347773243849824  0.42798420900924244  0.9240940154383458  1.0000
  C   C288      1.0  0.9994552801935312  0.44093136085526713  0.9082007307574804  1.0000
  H   H189      1.0  0.0614229311434438  0.454898502042538  0.8743009217747635  1.0000
  H   H190      1.0  0.09468825582428066  0.4306988725733117  0.9022232846385742  1.0000
  H   H191      1.0  0.006263624089756671  0.42077090526124233  0.9380500351766984  1.0000
  H   H192      1.0  0.9730232743016564  0.44390244641151005  0.9100090819790184  1.0000
  C   C289      1.0  0.877563954764795  0.3004674358018514  0.8835391662673784  1.0000
  C   C290      1.0  0.8812215698459398  0.27180411666430243  0.8955527606569054  1.0000
  C   C291      1.0  0.8566331225250333  0.24666058718669787  0.895770470356427  1.0000
  C   C292      1.0  0.8284214039593571  0.2498899422817143  0.8837600307107114  1.0000
  C   C293      1.0  0.824573645387103  0.2787316621787797  0.8719658056917343  1.0000
  C   C294      1.0  0.8490129243185986  0.30400947995758376  0.8718849962040026  1.0000
  H   H193      1.0  0.9030856394630254  0.269182308153101  0.9047954000548206  1.0000
  H   H194      1.0  0.8595542064722911  0.22476147632826432  0.9051444792054864  1.0000
  H   H195      1.0  0.8027166861597889  0.2814513180575135  0.8627114651840126  1.0000
  H   H196      1.0  0.8460184490635052  0.3259614152282829  0.8625401927222122  1.0000
  C   C295      1.0  0.09661502704128094  0.04224751367082691  0.7789612397438443  1.0000
  C   C296      1.0  0.08360238823873957  0.041878472220382434  0.7593644875730615  1.0000
  C   C297      1.0  0.08497603298546358  0.012830881198804933  0.7475467660150712  1.0000
  C   C298      1.0  0.10018108864833826  0.9841452054464087  0.7550281844640162  1.0000
  C   C299      1.0  0.11252874758734402  0.9842829766213015  0.7748157818002217  1.0000
  C   C300      1.0  0.11055614561317761  0.013165402732043807  0.7868218696324688  1.0000
  H   H197      1.0  0.07251177363891408  0.06423694505224753  0.7532711337072416  1.0000
  H   H198      1.0  0.07468083085736238  0.012815546509562736  0.7325670511083584  1.0000
  H   H199      1.0  0.12427414059720915  0.9621346036484093  0.7807367230052997  1.0000
  H   H200      1.0  0.12087892452389906  0.013256240963985364  0.8018617676442307  1.0000
  C   C301      1.0  0.9737887207004895  0.0668720397163205  0.884812937298854  1.0000
  C   C302      1.0  0.9397118692329286  0.0593764642918431  0.8848573974606614  1.0000
  C   C303      1.0  0.9180892157790369  0.0758862825827457  0.898139391386394  1.0000
  C   C304      1.0  0.9306121278133573  0.09945769555193004  0.9117314409236867  1.0000
  C   C305      1.0  0.964706858134255  0.10665466764481264  0.9117991901663707  1.0000
  C   C306      1.0  0.9861559677761964  0.09078154912761222  0.8982118325696813  1.0000
  H   H201      1.0  0.9299638568562256  0.04082491527493446  0.8745851072751976  1.0000
  H   H202      1.0  0.8918453620720723  0.07003661848627936  0.8980709438650947  1.0000
  H   H203      1.0  0.9745640164642125  0.12471219196340909  0.9223629417336576  1.0000
  H   H204      1.0  0.012352054894304576  0.09661663010088066  0.8983975059899614  1.0000
  C   C307      1.0  0.10398901043215888  0.21363903016984848  0.8834593199924864  1.0000
  C   C308      1.0  0.11245554826485449  0.2475747710891344  0.8813851572726931  1.0000
  C   C309      1.0  0.1284822538038995  0.26477362384949366  0.8971095507937151  1.0000
  C   C310      1.0  0.13597004922551822  0.2481555943821436  0.9150829299937377  1.0000
  C   C311      1.0  0.12642602874515005  0.21454048292125982  0.9174016433829547  1.0000
  C   C312      1.0  0.11046740358859335  0.1973006643650478  0.9016541879951661  1.0000
  H   H205      1.0  0.10748866718557373  0.26036676848133855  0.8673369033036643  1.0000
  H   H206      1.0  0.13591483645083274  0.29056921219719517  0.8950851552753958  1.0000
  H   H207      1.0  0.13163686789966597  0.20174930721293458  0.9314151970588562  1.0000
  H   H208      1.0  0.10330512184937611  0.17137776990531897  0.9035549995591672  1.0000
  C   C313      1.0  0.3918847755726255  0.5278002917611543  0.7890157223792397  1.0000
  C   C314      1.0  0.3625401460176556  0.5097918253325392  0.79244638824405  1.0000
  C   C315      1.0  0.3509521363088346  0.4869299302361425  0.7778942489884214  1.0000
  C   C316      1.0  0.3685301442402396  0.4819108898717078  0.7598276501422107  1.0000
  C   C317      1.0  0.39782610201977514  0.49999676967523543  0.7563957275095683  1.0000
  C   C318      1.0  0.40942739552559326  0.5227847535407669  0.7709413761420676  1.0000
  H   H209      1.0  0.3488337096462129  0.5133629143309713  0.8063103350603096  1.0000
  H   H210      1.0  0.3282922584373652  0.47297506174849946  0.7806949925039773  1.0000
  H   H211      1.0  0.411672157272416  0.4962809309607694  0.7426063313605933  1.0000
  H   H212      1.0  0.4321686813378983  0.5366024404008465  0.7681719030443683  1.0000
  C   C319      1.0  0.2737481786565532  0.5093875250159398  0.8887070663112908  1.0000
  C   C320      1.0  0.2880473475635273  0.48361505296952545  0.8775900026798039  1.0000
  C   C321      1.0  0.2739909038827314  0.45130233302501394  0.8782490650035076  1.0000
  C   C322      1.0  0.2459186462428624  0.44447828096423386  0.8902260914715263  1.0000
  C   C323      1.0  0.23161105580547678  0.4703082207581083  0.9012640451537179  1.0000
  C   C324      1.0  0.24547269533003757  0.5026305097399405  0.9004825100591709  1.0000
  H   H213      1.0  0.3096749365729829  0.48863374751346766  0.8683495048856674  1.0000
  H   H214      1.0  0.2850038679939659  0.4314547097867934  0.8695322728134969  1.0000
  H   H215      1.0  0.20976606199181874  0.4654416786053526  0.9103258179653148  1.0000
  H   H216      1.0  0.2341465412869954  0.5224926094107964  0.9090246245336765  1.0000
  C   C325      1.0  0.5869750809334149  0.9784772574357257  0.7715689672593983  1.0000
  C   C326      1.0  0.5724118396074026  0.982664373309103  0.7525068657972337  1.0000
  C   C327      1.0  0.5855153519822945  0.0058495877087196835  0.738533722347046  1.0000
  C   C328      1.0  0.6134208858347873  0.025016862211450386  0.7435070094862654  1.0000
  C   C329      1.0  0.6281152408773669  0.02073201904660671  0.7625250851232306  1.0000
  C   C330      1.0  0.6148990468425737  0.9976388298419673  0.7765528245451698  1.0000
  H   H217      1.0  0.5508746082782144  0.9678671237378466  0.7484969861180426  1.0000
  H   H218      1.0  0.5740285551938862  0.008868425051356432  0.7239328837266908  1.0000
  H   H219      1.0  0.649696571635567  0.035503828831995037  0.7665004636898093  1.0000
  H   H220      1.0  0.6263191994569994  0.9946596114928792  0.7911753858926545  1.0000
  C   C331      1.0  0.6637139054338289  0.011574601859334566  0.8843490148298774  1.0000
  C   C332      1.0  0.6846604705340786  0.005142587487277916  0.8679949743417662  1.0000
  C   C333      1.0  0.7171145423123886  0.0182626822204434  0.8676981050856859  1.0000
  C   C334      1.0  0.728602072487655  0.038654091384431766  0.883436926099469  1.0000
  C   C335      1.0  0.707338380948149  0.045960040730178994  0.899485796659682  1.0000
  C   C336      1.0  0.6750752090904167  0.0322725285233939  0.8999837007997973  1.0000
  H   H221      1.0  0.6760411750061646  0.9898654399385621  0.8556462903666855  1.0000
  H   H222      1.0  0.7333825611566116  0.012755722258937395  0.8551648782906354  1.0000
  H   H223      1.0  0.7159773793068566  0.06163593648816074  0.9116849125823867  1.0000
  H   H224      1.0  0.6589803574372972  0.03749964744597159  0.9126411226467487  1.0000
  C   C337      1.0  0.23946025892164258  0.8859105642970797  0.008088306720291927  1.0000
  C   C338      1.0  0.21828315324282607  0.8999783474912034  0.02257996862434286  1.0000
  C   C339      1.0  0.2104701781394442  0.8826582967599179  0.040518860814465096  1.0000
  C   C340      1.0  0.22408275577900122  0.8512558405927436  0.044202029954487854  1.0000
  C   C341      1.0  0.24490477817341957  0.8370163662515704  0.029603632045191234  1.0000
  C   C342      1.0  0.2525357320720957  0.854220857108181  0.01159125842801334  1.0000
  H   H225      1.0  0.20786732980083145  0.9243901465295208  0.019912939031745625  1.0000
  H   H226      1.0  0.1937699927875821  0.8934599665667918  0.05143489309657122  1.0000
  H   H227      1.0  0.2554075248099813  0.812644584631658  0.032274535577602605  1.0000
  H   H228      1.0  0.26883428827797123  0.8431298524397017  0.0005378860525651064  1.0000
  C   C343      1.0  0.21140091086200594  0.9500805266757332  0.8895552314644872  1.0000
  C   C344      1.0  0.22725551560884427  0.9762132444863535  0.8997326037131914  1.0000
  C   C345      1.0  0.21448614459832296  0.00875724884915452  0.8987147766368405  1.0000
  C   C346      1.0  0.18591873590390695  0.015505838115386972  0.8874198337201573  1.0000
  C   C347      1.0  0.17017751226807282  0.9894351654133235  0.8771107347405828  1.0000
  C   C348      1.0  0.18293820805262942  0.9568604814642768  0.8781591887367386  1.0000
  H   H229      1.0  0.24938018313579263  0.9714068741990938  0.9083617401141144  1.0000
  H   H230      1.0  0.2269026733029368  0.028811549838535733  0.906657855992244  1.0000
  H   H231      1.0  0.14823482428925072  0.9943467768032674  0.8683122963785872  1.0000
  H   H232      1.0  0.1706379414000982  0.936793358859341  0.8701479444433959  1.0000
  C   C349      1.0  0.4160999809516039  0.914145183954577  0.9086854615974801  1.0000
  C   C350      1.0  0.40606792694742055  0.8995230049729528  0.8905719084364292  1.0000
  C   C351      1.0  0.42951461511212663  0.892944635629008  0.8754031604516822  1.0000
  C   C352      1.0  0.4630329230800808  0.9016230804346838  0.8780082910162208  1.0000
  C   C353      1.0  0.4729579220039916  0.9172175526094208  0.8958454454507093  1.0000
  C   C354      1.0  0.44954050600203976  0.9233347286354269  0.9111598988205318  1.0000
  H   H233      1.0  0.3802737592714386  0.8930384817081135  0.8883118082605114  1.0000
  H   H234      1.0  0.4216259773620088  0.8810174371304433  0.861586901442065  1.0000
  H   H235      1.0  0.49870935964945917  0.9240773394249818  0.8979856954253627  1.0000
  H   H236      1.0  0.4574441333433636  0.9348976485314568  0.92508910664905  1.0000
  C   C355      1.0  0.32206085386286254  0.7526580116901915  0.9115375904089312  1.0000
  C   C356      1.0  0.3353072356775731  0.7207845272662783  0.9147134405687799  1.0000
  C   C357      1.0  0.3466438768961169  0.7016304523046716  0.8983892442457014  1.0000
  C   C358      1.0  0.34432099159551  0.7139853037630375  0.8787161319032724  1.0000
  C   C359      1.0  0.33138922767521756  0.7460086181569907  0.875561248817701  1.0000
  C   C360      1.0  0.3202648247305545  0.7653042259640735  0.8918994725774491  1.0000
  H   H237      1.0  0.3370251551325519  0.710953931384274  0.9298890156343812  1.0000
  H   H238      1.0  0.3572502836467023  0.6773439134976755  0.901038352224059  1.0000
  H   H239      1.0  0.3295744506786605  0.7557719620702591  0.8603697806621026  1.0000
  H   H240      1.0  0.3099423261249491  0.7897725476756489  0.8892493120897556  1.0000
  C   C361      1.0  0.7088627531909669  0.6119063880929045  0.993534156084101  1.0000
  C   C362      1.0  0.7117066771164143  0.5936620415974416  0.011599719369157047  1.0000
  C   C363      1.0  0.7339194114529857  0.6040173643208325  0.026781281237774533  1.0000
  C   C364      1.0  0.7536329403982537  0.6325737993719144  0.023847505325831575  1.0000
  C   C365      1.0  0.7507765011974772  0.6506835891819134  0.005790870455576913  1.0000
  C   C366      1.0  0.7283233559370239  0.6406131955201965  0.9907959804083539  1.0000
  H   H241      1.0  0.6970533102092031  0.5711434354216113  0.0136543302414589  1.0000
  H   H242      1.0  0.7365146891417325  0.5894584274423932  0.040425946424327765  1.0000
  H   H243      1.0  0.7659767087128098  0.6727439172518762  0.0033667540338235824  1.0000
  H   H244      1.0  0.7261917663840122  0.655076938713507  0.9770964860815733  1.0000
  C   C367      1.0  0.8045180469272062  0.5098170390394543  0.8893358966688113  1.0000
  C   C368      1.0  0.8241607603398015  0.5360036428068553  0.8817999985931556  1.0000
  C   C369      1.0  0.8116547462291758  0.5687345761023122  0.8813641302095017  1.0000
  C   C370      1.0  0.7794866523490883  0.5754115183162408  0.8883623873548578  1.0000
  C   C371      1.0  0.7596268827481228  0.5489978765544243  0.8953192617914909  1.0000
  C   C372      1.0  0.772167499540743  0.5164039088684789  0.89592269847829  1.0000
  H   H245      1.0  0.8492164556019685  0.5312009144233447  0.876789362790402  1.0000
  H   H246      1.0  0.8271815479574066  0.5890687569336233  0.8759413409646921  1.0000
  H   H247      1.0  0.7346754901435923  0.5536542403450171  0.9003860310192813  1.0000
  H   H248      1.0  0.7567575661041163  0.4961757258962195  0.9016039043839347  1.0000
  C   C373      1.0  0.5597583305594994  0.6032338227280577  0.8875824956884243  1.0000
  C   C374      1.0  0.5354583002526083  0.6037728472080065  0.8724786543172127  1.0000
  C   C375      1.0  0.5022379579760039  0.5960667769329807  0.8770397957027259  1.0000
  C   C376      1.0  0.49326726864397447  0.5863214399756337  0.8965643313479014  1.0000
  C   C377      1.0  0.5175620206143746  0.5856877945980797  0.9116796097408812  1.0000
  C   C378      1.0  0.550666028909693  0.5945939914966316  0.9072830071834599  1.0000
  H   H249      1.0  0.5423540038481856  0.610287225732205  0.8571826292197195  1.0000
  H   H250      1.0  0.48369214069193117  0.5969810552513058  0.8653822205537123  1.0000
  H   H251      1.0  0.5107841287272606  0.578142802714672  0.9268338122926836  1.0000
  H   H252      1.0  0.5692324202552801  0.5939546880577579  0.9190121243709898  1.0000
  C   C379      1.0  0.6541304462460049  0.8138736555400855  0.8700438913018744  1.0000
  C   C380      1.0  0.6399890786636904  0.8218307219033533  0.8886821659233064  1.0000
  C   C381      1.0  0.6442539131160459  0.8004279237537426  0.9053185200032294  1.0000
  C   C382      1.0  0.6620611280549581  0.7706373409421869  0.9033288894907127  1.0000
  C   C383      1.0  0.6762477253001629  0.7627368518986177  0.8847196062916614  1.0000
  C   C384      1.0  0.672473261238111  0.7844140375857264  0.8681777367971223  1.0000
  H   H253      1.0  0.6256353325911503  0.8443011335811313  0.8902638033947188  1.0000
  H   H254      1.0  0.6332211159645439  0.8066420795100049  0.9197038061103583  1.0000
  H   H255      1.0  0.6904624890661304  0.7401083356592726  0.8831255026975839  1.0000
  H   H256      1.0  0.6836614806268297  0.7782274442643146  0.8538253023650582  1.0000
  N   N1        1.0  0.27070443861559734  0.9427645098074504  0.07687445668953052  1.0000
  C   C385      1.0  0.28728403577992223  0.9334436145399055  0.05781446825139147  1.0000
  C   C386      1.0  0.2392674288394842  0.9599596969021672  0.07245302971369116  1.0000
  C   C387      1.0  0.2926052870592052  0.9653325270558127  0.08851881656976524  1.0000
  C   C388      1.0  0.2635477020807561  0.9123046664446142  0.08880264269224392  1.0000
  H   H257      1.0  0.2921908721186035  0.955663338904605  0.048091094162710624  1.0000
  H   H258      1.0  0.271868207417389  0.9156828871620616  0.048902214845317316  1.0000
  H   H259      1.0  0.3114014502060474  0.9210504071926879  0.06068473227707871  1.0000
  H   H260      1.0  0.22221723230490661  0.9438024678539128  0.0635575279955376  1.0000
  H   H261      1.0  0.22594386800533978  0.9667526189577188  0.0866224082195659  1.0000
  H   H262      1.0  0.24360447123682477  0.9833340238080843  0.06368859491520351  1.0000
  H   H263      1.0  0.28012837814116426  0.9742250739460094  0.10245574177890071  1.0000
  H   H264      1.0  0.29978016257106305  0.987879581168061  0.07962197571889673  1.0000
  H   H265      1.0  0.3157822291409812  0.9526553443768081  0.09325462228620318  1.0000
  H   H266      1.0  0.24738658643058176  0.8945333796656998  0.08036536961979635  1.0000
  H   H267      1.0  0.2504771710401569  0.9184642818087334  0.10307947058221845  1.0000
  H   H268      1.0  0.2866201682703806  0.8988739066455436  0.09284332506155457  1.0000
  N   N2        1.0  0.41273225645467654  0.8078266240310124  0.9208428608559042  1.0000
  C   C389      1.0  0.44280291262219695  0.8292294473583579  0.9205081581609731  1.0000
  C   C390      1.0  0.3856252561910987  0.8253043853406026  0.9105047815852543  1.0000
  C   C391      1.0  0.4027951523984546  0.8009915328844727  0.941942851832564  1.0000
  C   C392      1.0  0.4193541550120534  0.7760226019634396  0.9103732821022908  1.0000
  H   H269      1.0  0.464072256663033  0.8167913230305003  0.9279256463370575  1.0000
  H   H270      1.0  0.43850065985284475  0.8532933099085537  0.9284908787682054  1.0000
  H   H271      1.0  0.450367872045171  0.8357202406196053  0.9047854290052858  1.0000
  H   H272      1.0  0.38044161746295  0.8496485459276679  0.9178331480933021  1.0000
  H   H273      1.0  0.39162939538683983  0.83018960739341  0.8943736620141467  1.0000
  H   H274      1.0  0.36228439841298554  0.8104887791098041  0.9109898370662237  1.0000
  H   H275      1.0  0.3800090128039106  0.7850342555985486  0.9426662041911958  1.0000
  H   H276      1.0  0.3971269240630272  0.8245682427792755  0.9501112755997172  1.0000
  H   H277      1.0  0.4226540346253209  0.7879344596914599  0.9503610978783569  1.0000
  H   H278      1.0  0.43947847935520173  0.7618708915596724  0.9178633909269218  1.0000
  H   H279      1.0  0.4267977607638499  0.7803865618036591  0.8943883710665006  1.0000
  H   H280      1.0  0.396875780905888  0.7596420001088454  0.910157561552839  1.0000
  N   N3        1.0  0.7150067796868692  0.8231433099094876  0.3554438872496648  1.0000
  C   C393      1.0  0.6830019403626693  0.8406576735620342  0.35652895896433684  1.0000
  C   C394      1.0  0.7406298238397744  0.8430342367647895  0.36603707160267024  1.0000
  C   C395      1.0  0.7246866677454193  0.8190703141308292  0.3341000459329067  1.0000
  C   C396      1.0  0.7115540947664754  0.7898981579233324  0.36506966563282467  1.0000
  H   H281      1.0  0.6752358940418319  0.8441280120908314  0.37241484299916655  1.0000
  H   H282      1.0  0.6628037624819069  0.8262974155795025  0.34899620442125656  1.0000
  H   H283      1.0  0.6845438933187826  0.8660275478364762  0.34964135763814963  1.0000
  H   H284      1.0  0.7652021820248435  0.8307102276419663  0.3656059189120291  1.0000
  H   H285      1.0  0.7434847370343659  0.8684567372740523  0.3593174114721212  1.0000
  H   H286      1.0  0.7340022745212401  0.8468751494136054  0.38215793694418326  1.0000
  H   H287      1.0  0.7487569999945264  0.8059029192574717  0.33271164163019606  1.0000
  H   H288      1.0  0.7274088045299222  0.8437311298214754  0.3264267179324384  1.0000
  H   H289      1.0  0.7057635735260943  0.80428267401494  0.32569544270603445  1.0000
  H   H290      1.0  0.7351931515892983  0.7758594708547997  0.3646554553578131  1.0000
  H   H291      1.0  0.6921258366704868  0.7744089660242915  0.35755963733044016  1.0000
  H   H292      1.0  0.7038855543074924  0.7919898043771105  0.38114245382017303  1.0000
  N   N4        1.0  0.9735414763032836  0.5714529386363741  0.745249358737055  1.0000
  C   C397      1.0  0.955969172664376  0.6025052671207147  0.7400096333602794  1.0000
  C   C398      1.0  0.9608757449833639  0.5436535767201369  0.7327616904897548  1.0000
  C   C399      1.0  0.9678477829884659  0.5635351211195742  0.7667715592620417  1.0000
  C   C400      1.0  0.009380420060015382  0.576129371887981  0.7413719098072393  1.0000
  H   H293      1.0  0.9647987575599772  0.6240104651098334  0.7491697703582658  1.0000
  H   H294      1.0  0.9287878811670566  0.5998638704967993  0.7425825632329461  1.0000
  H   H295      1.0  0.9597401985369595  0.6092617132954314  0.7238608378205021  1.0000
  H   H296      1.0  0.9732519863402276  0.519720611295398  0.736474400554773  1.0000
  H   H297      1.0  0.9337977374803677  0.5397212191111579  0.7350319042521268  1.0000
  H   H298      1.0  0.9649922208289852  0.548657795346996  0.7164333735515339  1.0000
  H   H299      1.0  0.9408973982972282  0.560197985328667  0.7700045597474605  1.0000
  H   H300      1.0  0.9772109278201145  0.5838547979524591  0.7767062978671366  1.0000
  H   H301      1.0  0.9803213587019706  0.5399759134344495  0.7712495659986444  1.0000
  H   H302      1.0  0.023467214254502936  0.5531693597859735  0.7450798463726501  1.0000
  H   H303      1.0  0.019806236792245652  0.5970225274098254  0.7504617735182392  1.0000
  H   H304      1.0  0.01416531497256978  0.5821630725741392  0.7251669446912926  1.0000
  N   N5        1.0  0.4618097610748951  0.013276486813654786  0.3076770150445519  1.0000
  C   C401      1.0  0.448654027748739  0.9787340963786232  0.30884936807223384  1.0000
  C   C402      1.0  0.4363296829200425  0.035431287672117756  0.2991175639548711  1.0000
  C   C403      1.0  0.49157559932268735  0.014012510346377958  0.2946364542457396  1.0000
  C   C404      1.0  0.47066204929942534  0.024890886545784155  0.3281138283100274  1.0000
  H   H305      1.0  0.46662639885449286  0.9615224981349245  0.31609229090781793  1.0000
  H   H306      1.0  0.44242806798125345  0.9686844228838013  0.29367425837312944  1.0000
  H   H307      1.0  0.42551930180327197  0.9774613876118085  0.3179524873253496  1.0000
  H   H308      1.0  0.445124165827452  0.061816835126532764  0.2982575103396464  1.0000
  H   H309      1.0  0.4294778498042925  0.027724672972879966  0.2835680085332475  1.0000
  H   H310      1.0  0.4132618968397948  0.03491307222906505  0.308394533994474  1.0000
  H   H311      1.0  0.5022793761825692  0.039676504103231904  0.29349625122972794  1.0000
  H   H312      1.0  0.4856213008969458  0.0055529348277472135  0.2790616555396222  1.0000
  H   H313      1.0  0.5111739609764279  0.9973105961359283  0.3006268953233873  1.0000
  H   H314      1.0  0.4794995309401464  0.05127957838437769  0.3280080800480002  1.0000
  H   H315      1.0  0.49069407406325116  0.009438242543304389  0.3347666365677087  1.0000
  H   H316      1.0  0.44907683389371095  0.023098684037836423  0.33861168504951367  1.0000
  N   N6        1.0  0.010272185123011868  0.5804101953271511  0.24847809592630682  1.0000
  C   C405      1.0  0.03361483912928298  0.5819393318166013  0.26561110594861115  1.0000
  C   C406      1.0  0.9764548813434416  0.5730357642298851  0.2559700748101161  1.0000
  C   C407      1.0  0.020563864375680474  0.5537618570055886  0.23454529972590044  1.0000
  C   C408      1.0  0.010582506611912734  0.6127408524668472  0.23763566684305076  1.0000
  H   H317      1.0  0.0592545758460854  0.5881307970374049  0.2604101944982814  1.0000
  H   H318      1.0  0.034919508590857795  0.5575171792700051  0.273691631534417  1.0000
  H   H319      1.0  0.026311121273677518  0.6012739153895355  0.2767340950100364  1.0000
  H   H320      1.0  0.9584340419551285  0.5715535225309646  0.24328948384808988  1.0000
  H   H321      1.0  0.9754523044985505  0.5487139610515134  0.26416894126694257  1.0000
  H   H322      1.0  0.9677558546189494  0.5926940748559765  0.2665101164946715  1.0000
  H   H323      1.0  0.020683614655090166  0.5289274823832313  0.24212681137875977  1.0000
  H   H324      1.0  0.04592040650001161  0.5588087342853152  0.22863390627071747  1.0000
  H   H325      1.0  0.0036774745714693857  0.5518162177795035  0.22135369726762466  1.0000
  H   H326      1.0  0.9941242966207446  0.6119869998463161  0.22415020346497116  1.0000
  H   H327      1.0  0.03594443279054271  0.6192635001461695  0.23213351087319903  1.0000
  H   H328      1.0  0.0021827677995580608  0.6334584699145536  0.24748193960215015  1.0000
  N   N7        1.0  0.5129479756779994  0.17286773480886336  0.15347856093480217  1.0000
  C   C409      1.0  0.5366676164209391  0.1649129689087065  0.13719450333192662  1.0000
  C   C410      1.0  0.5278601453796601  0.16479980162089256  0.1732157500623803  1.0000
  C   C411      1.0  0.4822142367403224  0.1529483348210369  0.15083948411222822  1.0000
  C   C412      1.0  0.5050502945212959  0.20881702065944863  0.15269596979504702  1.0000
  H   H329      1.0  0.5261796513805912  0.17027689583002234  0.12204221917175055  1.0000
  H   H330      1.0  0.5432236677673604  0.13805246899894694  0.13743680495213115  1.0000
  H   H331      1.0  0.5601968774856908  0.1794559501775107  0.13867867711780493  1.0000
  H   H332      1.0  0.5343544442773247  0.13788341372054663  0.17423398350806846  1.0000
  H   H333      1.0  0.5509942177013913  0.1795000899898789  0.17583132455862446  1.0000
  H   H334      1.0  0.5104085674025097  0.16986145024867647  0.18584828420149915  1.0000
  H   H335      1.0  0.47044089931021404  0.15769574044183257  0.13595757363019517  1.0000
  H   H336      1.0  0.46347933611215536  0.1587447185575625  0.1626408271521591  1.0000
  H   H337      1.0  0.4870624039762998  0.12569197707180846  0.15185370116559338  1.0000
  H   H338      1.0  0.5277501791183834  0.22461011063930508  0.15456227088719954  1.0000
  H   H339      1.0  0.4873012712923454  0.21560000803642285  0.16484794556627036  1.0000
  H   H340      1.0  0.49361738303690733  0.2156150280436525  0.13800522496364978  1.0000
  N   N8        1.0  0.08105528302524778  0.49356485200307526  0.4338653893042204  1.0000
  C   C413      1.0  0.05615701302079046  0.4669408071935387  0.4376741606923452  1.0000
  C   C414      1.0  0.07973136677205694  0.5036038305283927  0.41244177191018055  1.0000
  C   C415      1.0  0.11448315671675635  0.4809147500190428  0.4385480902241745  1.0000
  C   C416      1.0  0.07386875292008721  0.5227664659184021  0.44667076736138733  1.0000
  H   H341      1.0  0.056299761829193384  0.4586153384083668  0.4536771452146554  1.0000
  H   H342      1.0  0.06085510842808728  0.44467230793731316  0.4280665027599853  1.0000
  H   H343      1.0  0.030650445886196476  0.4754747265499253  0.434013730215684  1.0000
  H   H344      1.0  0.09829980735958532  0.5235274356728717  0.40884206311954596  1.0000
  H   H345      1.0  0.08540079130610345  0.48216053617011456  0.40251491100944947  1.0000
  H   H346      1.0  0.0547015497847938  0.5126164049523756  0.40812559566626055  1.0000
  H   H347      1.0  0.11664267540614692  0.47330896913266823  0.454619751121426  1.0000
  H   H348      1.0  0.13398682728891265  0.5001583224678049  0.4354121246598522  1.0000
  H   H349      1.0  0.12065448577634097  0.45883078999413746  0.42909496508223116  1.0000
  H   H350      1.0  0.07461370363322928  0.5161207404102159  0.46296619903318365  1.0000
  H   H351      1.0  0.04886068303426816  0.5329605919162103  0.44339929573357983  1.0000
  H   H352      1.0  0.09231295319484656  0.5432341578906451  0.4440798811304878  1.0000
  N   N9        1.0  0.16734912150182304  0.9251035093216761  0.9485393386226773  1.0000
  C   C417      1.0  0.16079034287437913  0.9088730091929121  0.9289425143653506  1.0000
  C   C418      1.0  0.13974903110349818  0.9476433332291261  0.9535753413087211  1.0000
  C   C419      1.0  0.19849748467182463  0.9446757325003677  0.9471950496193028  1.0000
  C   C420      1.0  0.17047872390827637  0.8993040741519492  0.9644015461145273  1.0000
  H   H353      1.0  0.1811415486334529  0.8915979623484384  0.9247054011123246  1.0000
  H   H354      1.0  0.15891650605454002  0.9276059976636392  0.9165598697752185  1.0000
  H   H355      1.0  0.13733664214594357  0.8940859390611587  0.929236003185575  1.0000
  H   H356      1.0  0.14416649673452403  0.9605681020053523  0.9681776746757949  1.0000
  H   H357      1.0  0.13668330302785886  0.9672671573527822  0.9417816515293344  1.0000
  H   H358      1.0  0.11583075269373024  0.9337111815504248  0.954837907810406  1.0000
  H   H359      1.0  0.2054345228619418  0.9557092320715526  0.9619998368279292  1.0000
  H   H360      1.0  0.19651124875545803  0.9654230451474993  0.9360982332378053  1.0000
  H   H361      1.0  0.21944899650544547  0.9287386087086292  0.9423397380453832  1.0000
  H   H362      1.0  0.14761500032578054  0.883727898920873  0.9657444479179205  1.0000
  H   H363      1.0  0.1754884970079018  0.9106861783075274  0.979406113599296  1.0000
  H   H364      1.0  0.19152034470955956  0.8822877715061874  0.9612018014736167  1.0000
  N   N10       1.0  0.7523484009991362  0.337956221602001  0.6639500818985885  1.0000
  C   C421      1.0  0.774560614720116  0.3362868275776238  0.6815899137124184  1.0000
  C   C422      1.0  0.7213023327236247  0.31938088591863995  0.6683780775318126  1.0000
  C   C423      1.0  0.7688394858048556  0.3229764424048042  0.6462594322269805  1.0000
  C   C424      1.0  0.7446911875293271  0.3732391228335034  0.6595173250387564  1.0000
  H   H365      1.0  0.7809031496638577  0.3099957435225126  0.6853605805248787  1.0000
  H   H366      1.0  0.7628138043157846  0.34750249101127645  0.6951658913988336  1.0000
  H   H367      1.0  0.7981976904011573  0.35015476100845544  0.6787577201479635  1.0000
  H   H368      1.0  0.7040913192845126  0.3199699461416164  0.6553295486143141  1.0000
  H   H369      1.0  0.726073846920359  0.29255691412797113  0.6716532516329884  1.0000
  H   H370      1.0  0.7079396597319599  0.33013384703747223  0.681511861952517  1.0000
  H   H371      1.0  0.752802267745794  0.32427365024844784  0.6326519176751874  1.0000
  H   H372      1.0  0.7743533558139135  0.2961080110156538  0.6488491770986685  1.0000
  H   H373      1.0  0.7925072670179008  0.3361695355008602  0.6425624867150141  1.0000
  H   H374      1.0  0.7284592890371552  0.375468168266291  0.6460899316278875  1.0000
  H   H375      1.0  0.7675057025976482  0.3882531706407081  0.6563401979132696  1.0000
  H   H376      1.0  0.731517668461334  0.38544710916687863  0.6722622583096027  1.0000
  N   N11       1.0  0.33692035758775174  0.5308296592242345  0.3869710472130052  1.0000
  C   C425      1.0  0.34652551610510063  0.5083854625596506  0.3703410968269321  1.0000
  C   C426      1.0  0.3365513707095451  0.5656572622432685  0.37953972472899733  1.0000
  C   C427      1.0  0.3611517408661774  0.5279431971915034  0.40355922038347064  1.0000
  C   C428      1.0  0.30349223446728907  0.5213788553847346  0.3943641818069904  1.0000
  H   H377      1.0  0.37167553733926845  0.5148477932271587  0.36442796584531206  1.0000
  H   H378      1.0  0.3288053247343208  0.5100654299900764  0.35754733539957395  1.0000
  H   H379      1.0  0.3470056630987234  0.48186190806269785  0.3754157947738598  1.0000
  H   H380      1.0  0.3301776633276961  0.5833131185452266  0.3918324595013082  1.0000
  H   H381      1.0  0.3611205305017026  0.5734221948115035  0.37336886420719695  1.0000
  H   H382      1.0  0.3177538386616119  0.5690869195222151  0.3674636411069873  1.0000
  H   H383      1.0  0.3551676384102157  0.5450504585227846  0.41624033117161147  1.0000
  H   H384      1.0  0.3866993278005028  0.53454216449859  0.3984224519534808  1.0000
  H   H385      1.0  0.3617732248551729  0.5021573075423323  0.40982351103336306  1.0000
  H   H386      1.0  0.29535031996571476  0.5379364300887556  0.406823528233048  1.0000
  H   H387      1.0  0.30269597025207434  0.4952798645228588  0.40016342076221467  1.0000
  H   H388      1.0  0.2845492202165944  0.5234778084335047  0.38224748429084765  1.0000
  N   N12       1.0  0.9110460224097653  0.7862391817189347  0.6199595575531002  1.0000
  C   C429      1.0  0.8845769640505862  0.7993365353705676  0.6331035458919071  1.0000
  C   C430      1.0  0.9022298040212835  0.7919884544486364  0.5986146235326747  1.0000
  C   C431      1.0  0.9146960803347994  0.7500282292349274  0.6236079841495628  1.0000
  C   C432      1.0  0.9425645596583383  0.8037038247229777  0.6245131752912098  1.0000
  H   H389      1.0  0.8817975861142098  0.8267792695009434  0.631092817953215  1.0000
  H   H390      1.0  0.8898646490329508  0.7947045704258794  0.6493148234088795  1.0000
  H   H391      1.0  0.8602087260778203  0.787477709183174  0.6296342116406795  1.0000
  H   H392      1.0  0.9215797051739532  0.7824289700164422  0.5882121972528654  1.0000
  H   H393      1.0  0.8783875210831413  0.7794157999865094  0.5946778367150752  1.0000
  H   H394      1.0  0.8992021066328565  0.8190772382175882  0.5953438554486232  1.0000
  H   H395      1.0  0.9345745548363218  0.7392839138482213  0.6140094779902917  1.0000
  H   H396      1.0  0.8912917395047046  0.7362966535635318  0.6201710541241968  1.0000
  H   H397      1.0  0.9209556310735609  0.7447101678337632  0.6396284836609138  1.0000
  H   H398      1.0  0.9632032745754605  0.7945031721872514  0.6149154705820215  1.0000
  H   H399      1.0  0.9498187062193343  0.8002802891150639  0.6405609731221132  1.0000
  H   H400      1.0  0.9404335474993972  0.8310550533963176  0.6217811581892233  1.0000
  N   N13       1.0  0.761818883086165  0.2540477633445411  0.9418410246439405  1.0000
  C   C433      1.0  0.7384025034713213  0.28186634290321577  0.9444013267421837  1.0000
  C   C434      1.0  0.7912760984653167  0.26587448770918093  0.9304980811084771  1.0000
  C   C435      1.0  0.7454467967935564  0.2267732920712925  0.9305584865684922  1.0000
  C   C436      1.0  0.7721410221057838  0.24157423613094453  0.9618480783841373  1.0000
  H   H401      1.0  0.7158870447962107  0.2736300639148242  0.9528824671044468  1.0000
  H   H402      1.0  0.7301634179428681  0.29172539251502777  0.9295370768941207  1.0000
  H   H403      1.0  0.7499600065109019  0.3029266486832371  0.95283884935931  1.0000
  H   H404      1.0  0.8093667088945327  0.24537722494129702  0.928340271842076  1.0000
  H   H405      1.0  0.7844809827980661  0.27498116051270405  0.9151812099184586  1.0000
  H   H406      1.0  0.8043455792476847  0.28657208748806157  0.9384183484935742  1.0000
  H   H407      1.0  0.7624280462019978  0.20545001600340893  0.9284900577086989  1.0000
  H   H408      1.0  0.7377791155266591  0.2349316074694536  0.915211868712542  1.0000
  H   H409      1.0  0.7232600486028798  0.21681547743107568  0.9386946136868813  1.0000
  H   H410      1.0  0.7896772895087961  0.2203603868924896  0.9604324839877035  1.0000
  H   H411      1.0  0.7505651383805415  0.23199339047401418  0.9707389270072967  1.0000
  H   H412      1.0  0.7846492552983709  0.26137193142622117  0.9708399931246878  1.0000
  N   N14       1.0  0.7250531824195342  0.2743236309727354  0.5503711364606294  1.0000
  C   C437      1.0  0.7339892495589988  0.261992002307351  0.5706563230561258  1.0000
  C   C438      1.0  0.7161662899110256  0.2458120619793708  0.5372933376303048  1.0000
  C   C439      1.0  0.7535046378400817  0.2927263733645733  0.5414670506963493  1.0000
  C   C440      1.0  0.6964406264836982  0.29688742334987905  0.5520843992563741  1.0000
  H   H413      1.0  0.7405762585215558  0.28298680843597673  0.5809250960886252  1.0000
  H   H414      1.0  0.7555050531688157  0.2448502458681791  0.570065043192726  1.0000
  H   H415      1.0  0.7129520212028202  0.2482183341585265  0.577911198164631  1.0000
  H   H416      1.0  0.7372080317881544  0.22822242872178616  0.5356578959593105  1.0000
  H   H417      1.0  0.6946691363027254  0.2314739545891174  0.5435346352086396  1.0000
  H   H418      1.0  0.7093037858927479  0.2544145734667461  0.5218751887168096  1.0000
  H   H419      1.0  0.7474232635499756  0.3028161983057415  0.526256971155387  1.0000
  H   H420      1.0  0.7755423205029055  0.27647585723972834  0.5397161977962693  1.0000
  H   H421      1.0  0.7609668735601064  0.31434853907782895  0.55099741926975  1.0000
  H   H422      1.0  0.6886975281041388  0.30664639421010087  0.5370928827112854  1.0000
  H   H423      1.0  0.7024763411329491  0.3189167527317473  0.5616323873850255  1.0000
  H   H424      1.0  0.6745740934931272  0.2840934346702114  0.5589994210637758  1.0000
  N   N15       1.0  0.16247447894064265  0.0467870092601701  0.711217091434414  1.0000
  C   C441      1.0  0.1700623083264709  0.049174491618818816  0.7329669400911315  1.0000
  C   C442      1.0  0.19040654453537073  0.060850613554111366  0.6993440476725873  1.0000
  C   C443      1.0  0.1320449400161734  0.06566366021508485  0.706725756673926  1.0000
  C   C444      1.0  0.15730365793656642  0.011380044179395865  0.7057551885792809  1.0000
  H   H425      1.0  0.19309158697792242  0.035482323119359505  0.7367932276418754  1.0000
  H   H426      1.0  0.1498150474938612  0.0381320033281034  0.7423486263665983  1.0000
  H   H427      1.0  0.17333167872872096  0.0755962380187798  0.7378009375803519  1.0000
  H   H428      1.0  0.213572628511452  0.0465316914637246  0.7017720144499953  1.0000
  H   H429      1.0  0.18508412290918672  0.06024496983988836  0.6828944001907798  1.0000
  H   H430      1.0  0.1954934958047911  0.0873594787970593  0.7033871182311402  1.0000
  H   H431      1.0  0.12555628767233015  0.06404761722480679  0.6904193007735533  1.0000
  H   H432      1.0  0.13497131711828966  0.09255528356679354  0.7105777085475837  1.0000
  H   H433      1.0  0.11046904882733685  0.05571449466434575  0.7154092471068568  1.0000
  H   H434      1.0  0.17970797520042014  0.9961828377603064  0.7087621898981644  1.0000
  H   H435      1.0  0.15116680765646395  0.00874551980978211  0.689502971209763  1.0000
  H   H436      1.0  0.13651077456104263  0.9999250936626056  0.7145092057281912  1.0000
  N   N16       1.0  0.48356311161776255  0.32698137449603215  0.6822891091995027  1.0000
  C   C445      1.0  0.49840709474718464  0.35952309323800147  0.6879545669073167  1.0000
  C   C446      1.0  0.474552273941508  0.3275900047809508  0.6607067156775186  1.0000
  C   C447      1.0  0.45349802101168973  0.32068374854823234  0.6945810170658704  1.0000
  C   C448      1.0  0.5077999202959136  0.30016701813344415  0.6858751233890895  1.0000
  H   H437      1.0  0.5060256384585017  0.35993322115083926  0.7040530101807482  1.0000
  H   H438      1.0  0.48054590767618766  0.3802725662677514  0.6857988869167646  1.0000
  H   H439      1.0  0.5206955995964414  0.36553803591392325  0.67860714427268  1.0000
  H   H440      1.0  0.4577779543691029  0.348772163562635  0.6572670268960275  1.0000
  H   H441      1.0  0.4968426380794747  0.3304658318767716  0.6508928167160469  1.0000
  H   H442      1.0  0.4611834350337628  0.3043937108377979  0.6561645601160511  1.0000
  H   H443      1.0  0.4413109622375917  0.2965540159584843  0.6905606618981582  1.0000
  H   H444      1.0  0.4347172578735937  0.340431740963395  0.6921260013379231  1.0000
  H   H445      1.0  0.4591942258248861  0.3201794018376984  0.7109774737453316  1.0000
  H   H446      1.0  0.4974493930353171  0.27529436029262355  0.6816639828887066  1.0000
  H   H447      1.0  0.515067895047549  0.29891555410016374  0.7020389985069048  1.0000
  H   H448      1.0  0.5308689937864334  0.30435096472209344  0.6768858446684006  1.0000
  N   N17       1.0  0.1778607518691994  0.4852915801582597  0.21296325759646886  1.0000
  C   C449      1.0  0.1432933093672609  0.48553378553487087  0.2057270265254366  1.0000
  C   C450      1.0  0.19551526585239765  0.4569285050024047  0.20376258178542922  1.0000
  C   C451      1.0  0.17801161949444322  0.48184449499096704  0.23516799235487293  1.0000
  C   C452      1.0  0.19445686148901414  0.5169892365157571  0.20716132524355643  1.0000
  H   H449      1.0  0.12956303414816617  0.5070003530673226  0.2120518275358101  1.0000
  H   H450      1.0  0.1296330632267306  0.4623023600723558  0.21003709658894096  1.0000
  H   H451      1.0  0.14219138668620146  0.4878233454586589  0.18904568961655216  1.0000
  H   H452      1.0  0.2218620060721548  0.45614450793621486  0.20863788305498043  1.0000
  H   H453      1.0  0.18364330978587562  0.4326347536385291  0.20788744427009526  1.0000
  H   H454      1.0  0.19549945748714478  0.4586931993300759  0.18700398105120628  1.0000
  H   H455      1.0  0.20369172341903968  0.48065907680275655  0.24115930238858865  1.0000
  H   H456      1.0  0.1645131337489888  0.45887338307077696  0.2401877155278062  1.0000
  H   H457      1.0  0.16572804045117753  0.5034399712000345  0.24252708592625452  1.0000
  H   H458      1.0  0.22060607423070508  0.517823118978863  0.21240613318075321  1.0000
  H   H459      1.0  0.18151271407083788  0.5389217328706948  0.21376524656326576  1.0000
  H   H460      1.0  0.19470854400373688  0.5204269089464698  0.19049961454849063  1.0000
  N   N18       1.0  0.10753876565391818  0.5331762298936616  0.6244315955794597  1.0000
  C   C453      1.0  0.08770563207763038  0.5463881315983019  0.6075337491527919  1.0000
  C   C454      1.0  0.08974755577240145  0.5047372548574716  0.6338928937011561  1.0000
  C   C455      1.0  0.11259516931655211  0.5597047023347511  0.6395632335445243  1.0000
  C   C456      1.0  0.14007530465827855  0.5220335445017757  0.6168034422893259  1.0000
  H   H461      1.0  0.10071539583191536  0.5675640583060846  0.5998386430172284  1.0000
  H   H462      1.0  0.06345472444393163  0.5561858546081125  0.6128768718603449  1.0000
  H   H463      1.0  0.08264088773158962  0.5269716496810419  0.5959789933352224  1.0000
  H   H464      1.0  0.1038717230226871  0.49459501256201305  0.6469032277330017  1.0000
  H   H465      1.0  0.06496695403375252  0.5124347012973902  0.6396247677789423  1.0000
  H   H466      1.0  0.08572791538296887  0.48407452502509857  0.6229651038282773  1.0000
  H   H467      1.0  0.12947569221354494  0.5516398302721945  0.6518619590392601  1.0000
  H   H468      1.0  0.08876675809447554  0.5673400250379084  0.6465412354446936  1.0000
  H   H469      1.0  0.12385418635588819  0.5823467009385461  0.6325680025062507  1.0000
  H   H470      1.0  0.1373618071918261  0.5023481179992789  0.6051268764140996  1.0000
  H   H471      1.0  0.15573744622298324  0.5119837991480063  0.6291794295399393  1.0000
  H   H472      1.0  0.15436619058100343  0.5431492480255949  0.6099590637384117  1.0000
  N   N19       1.0  0.6991245643918751  0.9129174921309684  0.8980564727481043  1.0000
  C   C457      1.0  0.717079970484293  0.8811039021750822  0.9002749187899943  1.0000
  C   C458      1.0  0.6713953327785328  0.913990454375065  0.9126628067606671  1.0000
  C   C459      1.0  0.6857833434141158  0.9153087332008278  0.8774163295149096  1.0000
  C   C460      1.0  0.7220141051642253  0.9413024376453373  0.9017671557333455  1.0000
  H   H473      1.0  0.7380420845356737  0.8795730085117878  0.8893656040987216  1.0000
  H   H474      1.0  0.7005029156718415  0.8592173354130201  0.8973927721942828  1.0000
  H   H475      1.0  0.7273464517848313  0.8782129900522719  0.9157210934413986  1.0000
  H   H476      1.0  0.6571867793590204  0.9376626355795077  0.911154070456988  1.0000
  H   H477      1.0  0.6535789025563072  0.8929983159159216  0.9102190286437731  1.0000
  H   H478      1.0  0.6804114781611413  0.912445696241486  0.9284597510872374  1.0000
  H   H479      1.0  0.6710336430573338  0.9383569724997604  0.8754952418754791  1.0000
  H   H480      1.0  0.6691302707435822  0.8938315290804645  0.8739310520090667  1.0000
  H   H481      1.0  0.7058271346506231  0.915723092925686  0.8658486370410636  1.0000
  H   H482      1.0  0.7089154099743514  0.965599233115313  0.9008946984261018  1.0000
  H   H483      1.0  0.7424219997371637  0.9423465016295103  0.8904311956667846  1.0000
  H   H484      1.0  0.7334071193987732  0.939827805821205  0.916984732662651  1.0000
  N   N20       1.0  0.7022436799762443  0.9947693738315948  0.6996425442064761  1.0000
  C   C461      1.0  0.707672716164084  0.02349102838631323  0.7132313511632045  1.0000
  C   C462      1.0  0.7170499255970995  0.9645003577053126  0.7085342590255665  1.0000
  C   C463      1.0  0.7178529257799892  0.0018713767207452214  0.6798643462958283  1.0000
  C   C464      1.0  0.6662734393134957  0.9892461943796661  0.6969535641779583  1.0000
  H   H485      1.0  0.6967403449461865  0.04672934698064579  0.706900866808484  1.0000
  H   H486      1.0  0.7344840496786469  0.028347681982326733  0.7158413142785687  1.0000
  H   H487      1.0  0.6956670802911169  0.019244143390348967  0.7281981376474809  1.0000
  H   H488      1.0  0.7132930696792271  0.9423595128126683  0.6986089617212405  1.0000
  H   H489      1.0  0.744212567127557  0.9677157785011146  0.7107717180557951  1.0000
  H   H490      1.0  0.7056946991105262  0.9584665007004401  0.7234577451622153  1.0000
  H   H491      1.0  0.7158847522806707  0.980012045205048  0.6696229199843331  1.0000
  H   H492      1.0  0.7446800290231614  0.007910036755114147  0.6814184068404152  1.0000
  H   H493      1.0  0.7058224040259649  0.023334323906670784  0.6721282720515077  1.0000
  H   H494      1.0  0.6535080636533007  0.9846932903573151  0.7116502394741411  1.0000
  H   H495      1.0  0.6610837338138975  0.9674480292324649  0.6870686960834359  1.0000
  H   H496      1.0  0.6544689005844205  0.011489248231160154  0.690053134229455  1.0000
  N   N21       1.0  0.3125463852570717  0.9738803925885181  0.2123202400210553  1.0000
  C   C465      1.0  0.3194928388732258  0.008486498754049165  0.20562368996050392  1.0000
  C   C466      1.0  0.342451242126463  0.953433344411377  0.209200464023994  1.0000
  C   C467      1.0  0.28481882719326035  0.9597913418339222  0.2004524088020181  1.0000
  C   C468      1.0  0.3034520451411317  0.9738518482820661  0.23393450859421114  1.0000
  H   H497      1.0  0.3269028741777865  0.009290692984300408  0.18946571733093517  1.0000
  H   H498      1.0  0.3401498238430731  0.019971092497585996  0.21435125136600106  1.0000
  H   H499      1.0  0.2975198510818757  0.02477290498739193  0.20750805662251415  1.0000
  H   H500      1.0  0.33827510008134604  0.9271081056514247  0.2140662618836309  1.0000
  H   H501      1.0  0.34999873024223827  0.9531214499210322  0.1930062216612167  1.0000
  H   H502      1.0  0.36389875165114177  0.9634417932530305  0.21785695360885204  1.0000
  H   H503      1.0  0.27861647799471295  0.9338163971632663  0.2052663959964846  1.0000
  H   H504      1.0  0.2910438288884097  0.9589180762263331  0.18413470864238773  1.0000
  H   H505      1.0  0.262025030826955  0.97503821593501  0.20198535894990938  1.0000
  H   H506      1.0  0.323371951519936  0.9851562531659656  0.24329892635287284  1.0000
  H   H507      1.0  0.29904494227736345  0.9480485242593895  0.23971104172319369  1.0000
  H   H508      1.0  0.2806406052822758  0.9885691230216588  0.23671760963400063  1.0000
  N   N22       1.0  0.422943431288624  0.31628586934169056  0.16357679787564272  1.0000
  C   C469      1.0  0.45441326280015026  0.30028762263934367  0.16934266153366373  1.0000
  C   C470      1.0  0.4180338725704419  0.3129287490885848  0.14159590496602006  1.0000
  C   C471      1.0  0.42435690028626344  0.3520493029749084  0.16897033106889364  1.0000
  C   C472      1.0  0.3950225850042022  0.2999542884695764  0.17436028943680043  1.0000
  H   H509      1.0  0.4541730420175345  0.27325206486217224  0.16554211670722868  1.0000
  H   H510      1.0  0.45908113384007215  0.30261170516706226  0.18581749676821982  1.0000
  H   H511      1.0  0.47595474010926114  0.31208085674369695  0.16137127945483096  1.0000
  H   H512      1.0  0.3945687554770898  0.3248583757582037  0.13667442954664982  1.0000
  H   H513      1.0  0.43848056016947684  0.32522766858234053  0.13293048333311888  1.0000
  H   H514      1.0  0.4168806690539412  0.2862898132708328  0.13692344812419235  1.0000
  H   H515      1.0  0.4016778543660651  0.36535116098862136  0.16399066057952336  1.0000
  H   H516      1.0  0.44595527512616073  0.3647521721715856  0.16171170062029236  1.0000
  H   H517      1.0  0.4268712009935371  0.3556556806428439  0.18551484176547992  1.0000
  H   H518      1.0  0.3708303912870237  0.31108243783150236  0.17001530956399322  1.0000
  H   H519      1.0  0.3974754789088281  0.3024768798528758  0.19098788687429646  1.0000
  H   H520      1.0  0.393512197986711  0.2727817313193006  0.17092186341146207  1.0000
  N   N23       1.0  0.7684265810524216  0.5926024636769448  0.638547543437905  1.0000
  C   C473      1.0  0.7603932189598299  0.6263324012862136  0.6309521592110957  1.0000
  C   C474      1.0  0.7573573751844295  0.5894465579021549  0.6597443918598056  1.0000
  C   C475      1.0  0.8046058694840585  0.5876435155002537  0.6374380079394714  1.0000
  C   C476      1.0  0.7515358190139074  0.5670210213300788  0.6261407829351744  1.0000
  H   H521      1.0  0.7696569346658048  0.6302823365208695  0.6152860692213601  1.0000
  H   H522      1.0  0.7719157043819603  0.6461212152512715  0.6404906818829924  1.0000
  H   H523      1.0  0.7332086171940669  0.6306888927790191  0.6309976338914598  1.0000
  H   H524      1.0  0.7628860458332184  0.5642638967431572  0.6659546037969614  1.0000
  H   H525      1.0  0.7700729916757962  0.6081787459264767  0.6695435292633191  1.0000
  H   H526      1.0  0.7302190755207036  0.5934283678851765  0.6612351694649559  1.0000
  H   H527      1.0  0.811616410877094  0.5624285074109363  0.6429937162475271  1.0000
  H   H528      1.0  0.818000454507263  0.6063434161295306  0.646786178541173  1.0000
  H   H529      1.0  0.8140845861170647  0.5901117038024002  0.6217273045968739  1.0000
  H   H530      1.0  0.7575377995389536  0.5412909999717453  0.6313693884503797  1.0000
  H   H531      1.0  0.7592356723850372  0.5688831550184924  0.6100420592110405  1.0000
  H   H532      1.0  0.7241214860780164  0.569601240768182  0.6268239455028288  1.0000
  N   N24       1.0  0.7291118475730346  0.4471302955381273  0.46169747600725264  1.0000
  C   C477      1.0  0.7254676467459876  0.477638706720925  0.44931575290461756  1.0000
  C   C478      1.0  0.7189511134440731  0.4540099785286139  0.48270468095209396  1.0000
  C   C479      1.0  0.764124905701439  0.4366248966561132  0.46134557716415825  1.0000
  C   C480      1.0  0.707984152771754  0.42018909188249914  0.453357263687209  1.0000
  H   H533      1.0  0.7334765138974071  0.47325336202240026  0.4334606937306197  1.0000
  H   H534      1.0  0.740874985737529  0.49859443730053693  0.455226486797577  1.0000
  H   H535      1.0  0.6992521401538321  0.48601162354399563  0.4488320465890938  1.0000
  H   H536      1.0  0.6924628940453713  0.46140618315179904  0.4835875018028446  1.0000
  H   H537      1.0  0.7220368423826939  0.4316063714887429  0.4924991347006117  1.0000
  H   H538      1.0  0.7341321934400205  0.47447521617386723  0.4894035174006042  1.0000
  H   H539      1.0  0.7677115669780517  0.4130791958160486  0.4699506712260551  1.0000
  H   H540      1.0  0.7808093179775081  0.45587478941591186  0.4680129949075959  1.0000
  H   H541      1.0  0.7728306065635269  0.43211707266082405  0.44566163200936576  1.0000
  H   H542      1.0  0.7092429838501862  0.3971152756500349  0.4626825177153801  1.0000
  H   H543      1.0  0.7159270536620146  0.4134236367604959  0.43783627608669257  1.0000
  H   H544      1.0  0.6815424929190939  0.42772332185679407  0.45253977400285683  1.0000
  N   N25       1.0  0.2473601222396272  0.24006764903619984  0.1096234149054927  1.0000
  C   C481      1.0  0.2805855186751009  0.24999435052237404  0.10222818394322536  1.0000
  C   C482      1.0  0.22738254563497104  0.22750911949270258  0.09256473924350539  1.0000
  C   C483      1.0  0.23090748262483152  0.2693357814686729  0.11860256818089075  1.0000
  C   C484      1.0  0.2507138315259223  0.21364775469050795  0.12509651747387682  1.0000
  H   H545      1.0  0.2960669139432624  0.259839339959795  0.11472220942615022  1.0000
  H   H546      1.0  0.27907610333709193  0.26989770648841843  0.09048640248122772  1.0000
  H   H547      1.0  0.2939933999544866  0.22852816399055734  0.09552835416398306  1.0000
  H   H548      1.0  0.20204671416013162  0.21986859490654753  0.09753698165110433  1.0000
  H   H549      1.0  0.22461375388510305  0.24709532960595598  0.08068883065469354  1.0000
  H   H550      1.0  0.23915263697656441  0.20549529045563228  0.08536547634177721  1.0000
  H   H551      1.0  0.20565474408314777  0.26289018716005036  0.12424760833153402  1.0000
  H   H552      1.0  0.22840128862088424  0.28994747233182244  0.10740061365621398  1.0000
  H   H553      1.0  0.2452821081151624  0.27934281438475056  0.13159930265885175  1.0000
  H   H554      1.0  0.26548633984673004  0.22269641012048172  0.138215917559401  1.0000
  H   H555      1.0  0.263571962622553  0.19135512292475515  0.11898265180209547  1.0000
  H   H556      1.0  0.22612392156556865  0.2053430186714786  0.1309845811027003  1.0000
  N   N26       1.0  0.9675810589259828  0.964857751531237  0.24757089778879413  1.0000
  C   C485      1.0  0.9987595352530301  0.984504568023812  0.24702330563262886  1.0000
  C   C486      1.0  0.9748286547477457  0.9292138544664155  0.2440520548116319  1.0000
  C   C487      1.0  0.9452713988513001  0.9769745153765141  0.23160600727127362  1.0000
  C   C488      1.0  0.9513389417097746  0.9687403214991108  0.2674482747112027  1.0000
  H   H557      1.0  0.994022539817512  0.011562815901540846  0.2494734593017286  1.0000
  H   H558      1.0  0.011477714983205045  0.9820164385771628  0.23214870329383935  1.0000
  H   H559      1.0  0.016267016801961853  0.9761175299109979  0.2588896544385556  1.0000
  H   H560      1.0  0.9861731395602892  0.9253645250574379  0.22888138730747837  1.0000
  H   H561      1.0  0.9922243521753461  0.9192771999152239  0.25552380128774105  1.0000
  H   H562      1.0  0.9517931739266033  0.913676849128582  0.2447242015710815  1.0000
  H   H563      1.0  0.9220797405914056  0.9617667986014024  0.23110739267361674  1.0000
  H   H564      1.0  0.9570628003042349  0.9754635526420438  0.21645362312811423  1.0000
  H   H565      1.0  0.9383782689952328  0.003510131409568241  0.23404802686736856  1.0000
  H   H566      1.0  0.9275557668013358  0.9544073322768949  0.2682564901114208  1.0000
  H   H567      1.0  0.9453647646842388  0.9953624476340686  0.27059399587183125  1.0000
  H   H568      1.0  0.9673437314705784  0.9597489541457654  0.27991865818816586  1.0000
  N   N27       1.0  0.45362652232510925  0.5211171156300898  0.6274884903353285  1.0000
  C   C489      1.0  0.4740927014353179  0.49099508534098046  0.6248469921421844  1.0000
  C   C490      1.0  0.4217073163044823  0.5165318378868196  0.6169001529596859  1.0000
  C   C491      1.0  0.47136800072223406  0.5504702903566693  0.6190644237344218  1.0000
  C   C492      1.0  0.4473311804330358  0.5264594396062502  0.6491997940494066  1.0000
  H   H569      1.0  0.49798141174512045  0.4931107950347302  0.633161041611727  1.0000
  H   H570      1.0  0.479971009735513  0.48639267616287535  0.6086956328767528  1.0000
  H   H571      1.0  0.4611071076750982  0.468357571715957  0.6307321546739787  1.0000
  H   H572      1.0  0.40536477465354537  0.5385938060007474  0.6188285677737713  1.0000
  H   H573      1.0  0.4253719737241756  0.5125528930225378  0.6004530519754214  1.0000
  H   H574      1.0  0.4076407653465583  0.4945713986261502  0.6229061153331369  1.0000
  H   H575      1.0  0.4565807097823636  0.5736313267084396  0.6208664747910548  1.0000
  H   H576      1.0  0.4765007870377947  0.547305948511275  0.6026781829557756  1.0000
  H   H577      1.0  0.4955771603358842  0.5545518370945411  0.6267394943417078  1.0000
  H   H578      1.0  0.43152828368808255  0.5486906372750964  0.6518217910654666  1.0000
  H   H579      1.0  0.47083727377340273  0.5297629881757489  0.6577648097270989  1.0000
  H   H580      1.0  0.43417251057597206  0.5047097107954414  0.6559854337653224  1.0000
  N   N28       1.0  0.6759293581988357  0.45078793148341334  0.3212231513170505  1.0000
  C   C493      1.0  0.6972302719899153  0.4608319681956473  0.33828250184213005  1.0000
  C   C494      1.0  0.6414399762134144  0.4463525265095608  0.3284044226038066  1.0000
  C   C495      1.0  0.6878597324749717  0.41893682405664495  0.3127884782194933  1.0000
  C   C496      1.0  0.6771751598299756  0.47696973877295207  0.30545961091396795  1.0000
  H   H581      1.0  0.6886875540620531  0.4846504105066853  0.3450882911790914  1.0000
  H   H582      1.0  0.7234676192812343  0.4645505745194465  0.33351699162368975  1.0000
  H   H583      1.0  0.6969796956603527  0.44154690983934264  0.3504252401441384  1.0000
  H   H584      1.0  0.6247529659540227  0.4379298753291649  0.3160801372631189  1.0000
  H   H585      1.0  0.6397157876657704  0.4275301303734424  0.3407840146699074  1.0000
  H   H586      1.0  0.6313090653726826  0.47006251412883476  0.33449046884112743  1.0000
  H   H587      1.0  0.6722566067846398  0.41063569442651954  0.29986521699422  1.0000
  H   H588      1.0  0.6871782671088703  0.3986714863041037  0.32433646737128996  1.0000
  H   H589      1.0  0.7138431874486982  0.42133408751357443  0.30724847578481307  1.0000
  H   H590      1.0  0.6666043268099083  0.5009282973314584  0.3109632645144076  1.0000
  H   H591      1.0  0.6628092248299429  0.4694404679584066  0.29190016467090013  1.0000
  H   H592      1.0  0.7030147141065093  0.48222529673060593  0.30041173304984636  1.0000
  N   N29       1.0  0.7463624229636369  0.07058026913886091  0.40050323355880313  1.0000
  C   C497      1.0  0.7256193616541446  0.10062472044118811  0.40259286251372606  1.0000
  C   C498      1.0  0.7617670349987065  0.07042750470213319  0.3802704294318638  1.0000
  C   C499      1.0  0.7255483205567302  0.04025524716050483  0.4030933687886072  1.0000
  C   C500      1.0  0.772624748435112  0.07098666338935843  0.41600373941096863  1.0000
  H   H593      1.0  0.7057036793321397  0.10111411683937384  0.39102146364981155  1.0000
  H   H594      1.0  0.7405818739377136  0.12394142870667349  0.40062664624636757  1.0000
  H   H595      1.0  0.7136342644301966  0.10170839591623822  0.41770577350260063  1.0000
  H   H596      1.0  0.7785858530265602  0.04879993159982963  0.37847182546753566  1.0000
  H   H597      1.0  0.7428872413724464  0.06896810478974261  0.3681113058051443  1.0000
  H   H598      1.0  0.7767704298831328  0.09346329973420867  0.377537681508689  1.0000
  H   H599      1.0  0.7405683205178873  0.017188242068759383  0.4018597625523705  1.0000
  H   H600      1.0  0.7058843878000036  0.038610722766698004  0.3913997569946672  1.0000
  H   H601      1.0  0.7132852946242306  0.0395931864384869  0.41813928228131936  1.0000
  H   H602      1.0  0.7886272308822196  0.04850791351350345  0.41486383785519065  1.0000
  H   H603      1.0  0.7620148075378799  0.07125162394624285  0.4314976784883422  1.0000
  H   H604      1.0  0.7891557353606797  0.0932290845591351  0.41433135958938117  1.0000
  N   N30       1.0  0.19402989083765368  0.43600437332852826  0.07867096750624049  1.0000
  C   C501      1.0  0.2101340418811708  0.40575818650337514  0.08666954512960358  1.0000
  C   C502      1.0  0.19686728126068495  0.4364033977731203  0.05643042840750837  1.0000
  C   C503      1.0  0.21053258862960977  0.46601485844630314  0.08704510096016614  1.0000
  C   C504      1.0  0.15865491792985414  0.43577798838296417  0.08457088399316616  1.0000
  H   H605      1.0  0.20884244738432034  0.4047158776556928  0.10339860620431496  1.0000
  H   H606      1.0  0.23678154431145318  0.4049558475553399  0.08234386567258915  1.0000
  H   H607      1.0  0.19827469881675208  0.38255514184047806  0.08075851782192835  1.0000
  H   H608      1.0  0.18386212198995872  0.45814194914374234  0.049721401182465715  1.0000
  H   H609      1.0  0.22322977812518552  0.43790482690803484  0.05150377157248257  1.0000
  H   H610      1.0  0.18607786261298992  0.4133152639905858  0.0496275784165785  1.0000
  H   H611      1.0  0.19950323901166772  0.48936967007762006  0.08102711068621071  1.0000
  H   H612      1.0  0.23751968413784014  0.46649252504312994  0.08344737350124187  1.0000
  H   H613      1.0  0.20819422843678898  0.46685111758247094  0.10376138436197813  1.0000
  H   H614      1.0  0.1457393604054316  0.458392836607315  0.07891689127683148  1.0000
  H   H615      1.0  0.15563200612289602  0.4353882017940017  0.10127638917410525  1.0000
  H   H616      1.0  0.14541161939965033  0.413500816003145  0.07846062004327767  1.0000
  N   N31       1.0  0.20892859958517643  0.7790557276099629  0.5907616716294501  1.0000
  C   C505      1.0  0.23131048032349757  0.8077590002800924  0.5868285315959211  1.0000
  C   C506      1.0  0.22771695028821579  0.7520386338230455  0.6006103347583116  1.0000
  C   C507      1.0  0.19507967338671528  0.7668288537507372  0.5715073901352619  1.0000
  C   C508      1.0  0.18161828583955647  0.7895626938128034  0.6041416888934985  1.0000
  H   H617      1.0  0.21791790030217753  0.828635173683966  0.5794317151597638  1.0000
  H   H618      1.0  0.25219969879007476  0.8005547874830089  0.5767741927944751  1.0000
  H   H619      1.0  0.24210980385043526  0.8174939990214838  0.6011056501778509  1.0000
  H   H620      1.0  0.21157954296025577  0.7300682983113409  0.6037984644066362  1.0000
  H   H621      1.0  0.24828725117717743  0.7430258834799677  0.5908665356282778  1.0000
  H   H622      1.0  0.23818364957406388  0.7601227345167996  0.6153463174852766  1.0000
  H   H623      1.0  0.17814962350812258  0.7450405658794689  0.5739615393709189  1.0000
  H   H624      1.0  0.214966898814893  0.7582340219245296  0.5611002529975773  1.0000
  H   H625      1.0  0.1807041757545222  0.7864708754465968  0.5636282754358873  1.0000
  H   H626      1.0  0.16428678834144841  0.7684204114646916  0.607329254028344  1.0000
  H   H627      1.0  0.166834428032874  0.8100251375825162  0.5973726473200355  1.0000
  H   H628      1.0  0.19107884967088418  0.7985018601586507  0.6189491186422457  1.0000
  N   N32       1.0  0.8856493498132934  0.2271037158941021  0.3829707977116218  1.0000
  C   C509      1.0  0.9140780921432292  0.21865983604740452  0.39596000023057826  1.0000
  C   C510      1.0  0.8586707469686973  0.24080991890314069  0.3955013793413267  1.0000
  C   C511      1.0  0.8738488813787304  0.1966588591120354  0.3725494676527452  1.0000
  C   C512      1.0  0.8960554267445521  0.25233336686910923  0.3678592363968648  1.0000
  H   H629      1.0  0.9351165744993472  0.2087647020923407  0.3869228227635051  1.0000
  H   H630      1.0  0.9072779465605492  0.19882657912440474  0.40709265914855564  1.0000
  H   H631      1.0  0.9230582978413241  0.24086304074339876  0.40446711503744637  1.0000
  H   H632      1.0  0.8368916399412644  0.24760353682703903  0.38616477831638546  1.0000
  H   H633      1.0  0.8500739181416144  0.2224988698375814  0.40707887941593157  1.0000
  H   H634      1.0  0.8667123237826532  0.26386460710790477  0.40355598546971044  1.0000
  H   H635      1.0  0.8525812079542316  0.20198695049906323  0.3624224297614485  1.0000
  H   H636      1.0  0.8656346743337919  0.17708273350606038  0.38347190312628526  1.0000
  H   H637      1.0  0.893809417199852  0.18544844779274755  0.36318981014302315  1.0000
  H   H638      1.0  0.875016568193051  0.2594154544922201  0.3579480418341154  1.0000
  H   H639      1.0  0.9162459916937122  0.24278049983342787  0.35803228550614435  1.0000
  H   H640      1.0  0.9051459008763503  0.27564153569025823  0.37521370898997425  1.0000
  N   N33       1.0  0.6601913077863887  0.5833193535687382  0.07973447405683491  1.0000
  C   C513      1.0  0.6358518037828254  0.6097932761887389  0.07552653073184847  1.0000
  C   C514      1.0  0.6497941042972286  0.5643637187095263  0.09789700112534058  1.0000
  C   C515      1.0  0.6930767734451257  0.5987656419461849  0.08321275352424568  1.0000
  C   C516      1.0  0.6621023810636028  0.5604592536865338  0.062317028550342796  1.0000
  H   H641      1.0  0.6431762538586057  0.6248185765450089  0.06203267282319193  1.0000
  H   H642      1.0  0.6336984591639104  0.6273070996007404  0.0884831194115652  1.0000
  H   H643      1.0  0.6107517693543392  0.5990836081955017  0.07264693748802847  1.0000
  H   H644      1.0  0.666843260824245  0.5432925490223135  0.10103378507544912  1.0000
  H   H645      1.0  0.6497627593755503  0.5805051259897126  0.11157185192680832  1.0000
  H   H646      1.0  0.6244776751171056  0.5534819199127319  0.09622212137382699  1.0000
  H   H647      1.0  0.7118484400918794  0.5796942707702841  0.0872550527998173  1.0000
  H   H648      1.0  0.6922010344200324  0.6169379429733589  0.09588249009879114  1.0000
  H   H649      1.0  0.7022426986501541  0.6125563321821547  0.06966263920434039  1.0000
  H   H650      1.0  0.637831267379224  0.5479040675651313  0.05946657388319659  1.0000
  H   H651      1.0  0.6807563436700022  0.54056140838947  0.06486853592063134  1.0000
  H   H652      1.0  0.6693272943447938  0.5740929040284387  0.04829097786994237  1.0000
  N   N34       1.0  0.018249672801251116  0.33125687723472247  0.8945922315386636  1.0000
  C   C517      1.0  0.002449477605141359  0.3611541323607825  0.8858554962156038  1.0000
  C   C518      1.0  0.03982611595502239  0.3412435060890705  0.9115514187367474  1.0000
  C   C519      1.0  0.03847090928999841  0.3146441434508957  0.8790052845770548  1.0000
  C   C520      1.0  0.9922434150843964  0.30797989264812664  0.9019658496936137  1.0000
  H   H653      1.0  0.9859630047008111  0.35458160916019277  0.8729999152551238  1.0000
  H   H654      1.0  0.021209230067488427  0.37959246386526196  0.880301224448672  1.0000
  H   H655      1.0  0.9867327175039666  0.3740904096818822  0.8971761777921444  1.0000
  H   H656      1.0  0.05206938879449985  0.3193549024686394  0.918625324155031  1.0000
  H   H657      1.0  0.059885400181810544  0.35866554131692197  0.9065005082195233  1.0000
  H   H658      1.0  0.025618406983651587  0.3542617149044593  0.9235678825847655  1.0000
  H   H659      1.0  0.05074030948643293  0.2919434267060764  0.885106252000741  1.0000
  H   H660      1.0  0.058386772883960214  0.3316265657697171  0.8732210766170901  1.0000
  H   H661      1.0  0.023078390223311374  0.30685861594712116  0.8659119298383781  1.0000
  H   H662      1.0  0.9762162393348963  0.32007327684042425  0.9134951517742607  1.0000
  H   H663      1.0  0.003149915406253978  0.2852733349237416  0.9089033746695614  1.0000
  H   H664      1.0  0.9756078871436944  0.29988271500425845  0.8895009824126584  1.0000
  N   N35       1.0  0.9208718764124605  0.1787298556850057  0.8690865845760759  1.0000
  C   C521      1.0  0.920245352981412  0.14264531704679734  0.8644662210675538  1.0000
  C   C522      1.0  0.95163209072877  0.19391551825024989  0.8608734572205631  1.0000
  C   C523      1.0  0.9199368537688793  0.1833972636467978  0.8911740124594495  1.0000
  C   C524      1.0  0.891748275589703  0.19489247836027082  0.8598900968443693  1.0000
  H   H665      1.0  0.9199733228285644  0.1380125857048098  0.847948634299476  1.0000
  H   H666      1.0  0.8979952133887095  0.13010597583854025  0.8711056311654202  1.0000
  H   H667      1.0  0.9423811973444948  0.1299228046170765  0.8707156949172075  1.0000
  H   H668      1.0  0.9528955775132067  0.22119222012762615  0.8640554296535062  1.0000
  H   H669      1.0  0.9740665407060745  0.1823084853186187  0.8676112466052611  1.0000
  H   H670      1.0  0.9533010673638093  0.19066419842467008  0.8442428402386579  1.0000
  H   H671      1.0  0.9210683961259929  0.21024978403738193  0.8952979065485127  1.0000
  H   H672      1.0  0.9410616012692675  0.1708112871074619  0.8987051097791954  1.0000
  H   H673      1.0  0.8968201947689114  0.17265555275255223  0.897873783604626  1.0000
  H   H674      1.0  0.8920565024076081  0.2223641735166932  0.8624420422944519  1.0000
  H   H675      1.0  0.8680791427306064  0.18493656373491088  0.866364378863807  1.0000
  H   H676      1.0  0.8909025231321189  0.19084853380220415  0.8433174917089492  1.0000
  N   N36       1.0  0.8185521583064148  0.7437808621682283  0.053510625952205675  1.0000
  C   C525      1.0  0.8333047298857932  0.7184397397198521  0.04011796419966831  1.0000
  C   C526      1.0  0.8423997911706125  0.7525832553914741  0.06956781136823793  1.0000
  C   C527      1.0  0.7878771649136024  0.7300738335804393  0.06268556735721852  1.0000
  C   C528      1.0  0.8105437675593289  0.7739805764039482  0.04169857015770939  1.0000
  H   H677      1.0  0.815767363872425  0.7107956434427439  0.028003611750695375  1.0000
  H   H678      1.0  0.8395489307527495  0.6953057034339198  0.04862463570949299  1.0000
  H   H679      1.0  0.8564548685706378  0.7278271474723094  0.0328366423416018  1.0000
  H   H680      1.0  0.8487692769639641  0.7303538637076037  0.07888393738153243  1.0000
  H   H681      1.0  0.8658862338901185  0.7630102908904397  0.06326749820522033  1.0000
  H   H682      1.0  0.8319347345770569  0.7714128696793546  0.08011114060214546  1.0000
  H   H683      1.0  0.7761437227826861  0.7483093845529711  0.0730937891122651  1.0000
  H   H684      1.0  0.7931155415690105  0.707373979224012  0.07173737347532044  1.0000
  H   H685      1.0  0.7693951575747386  0.7227126632558305  0.05105330285696541  1.0000
  H   H686      1.0  0.799325992938683  0.793509214463164  0.05144402809742675  1.0000
  H   H687      1.0  0.792530674945185  0.768169060192911  0.02948621516968682  1.0000
  H   H688      1.0  0.8331164454055007  0.7850491914121634  0.03455394350789554  1.0000
  N   N37       1.0  0.7914618059320909  0.5022854594097289  0.8233659777461398  1.0000
  C   C529      1.0  0.7752514700138978  0.5286376695367283  0.8353514144773397  1.0000
  C   C530      1.0  0.7988370588596954  0.5149932802614811  0.8028629049964409  1.0000
  C   C531      1.0  0.76935686679764  0.47273365272072404  0.8220600035833161  1.0000
  C   C532      1.0  0.8226208197509433  0.49255601728886506  0.8332653538956097  1.0000
  H   H689      1.0  0.7518147664595545  0.5370191027148484  0.828241691910671  1.0000
  H   H690      1.0  0.7916542816014521  0.5509963275314765  0.8370443951278889  1.0000
  H   H691      1.0  0.7690958293131662  0.5196651025256201  0.8508396101249945  1.0000
  H   H692      1.0  0.8109504969058177  0.495581024157297  0.793418902789876  1.0000
  H   H693      1.0  0.7759575505281122  0.5228770829460819  0.7949217377638577  1.0000
  H   H694      1.0  0.8159964019524247  0.5369387098136715  0.803286752834376  1.0000
  H   H695      1.0  0.7811623288058649  0.45234915222869604  0.8132296987743309  1.0000
  H   H696      1.0  0.7455021252038656  0.47897250622856297  0.814652754094851  1.0000
  H   H697      1.0  0.7636135707969234  0.46242754017696536  0.8373231249652191  1.0000
  H   H698      1.0  0.835496670545726  0.47264715356127734  0.8246621007054004  1.0000
  H   H699      1.0  0.818022840324958  0.4825512085028789  0.8486951821933785  1.0000
  H   H700      1.0  0.8400154320570702  0.5141592495811269  0.8346548558113153  1.0000
  N   N38       1.0  0.7464409624916196  0.20454785728361347  0.16373308648533358  1.0000
  C   C533      1.0  0.7137507267885294  0.18767544338310502  0.164496045426757  1.0000
  C   C534      1.0  0.76607478608552  0.19447795083388647  0.18147297748808522  1.0000
  C   C535      1.0  0.7417506430421735  0.24114090992900927  0.16374165234484114  1.0000
  C   C536      1.0  0.7640924851774634  0.1947100346744533  0.14514886116920317  1.0000
  H   H701      1.0  0.698232404447906  0.19500981622943828  0.15141920238462242  1.0000
  H   H702      1.0  0.699737146584416  0.19429281075025126  0.17836402910719548  1.0000
  H   H703      1.0  0.716301355823805  0.1599803109334542  0.16417162006902736  1.0000
  H   H704      1.0  0.7909972967878668  0.20662041834360137  0.1813803417168828  1.0000
  H   H705      1.0  0.7534535332654612  0.20137666305752114  0.19579291876807095  1.0000
  H   H706      1.0  0.7698631594634668  0.16689868221421653  0.18171499933555552  1.0000
  H   H707      1.0  0.7658770893397222  0.2547830026261441  0.16321189916987558  1.0000
  H   H708      1.0  0.7280124151677301  0.2494613032902807  0.1773829715855948  1.0000
  H   H709      1.0  0.7271579960705744  0.24931834764199756  0.1503734749129762  1.0000
  H   H710      1.0  0.7890977317052577  0.20651599269728196  0.14416165181933635  1.0000
  H   H711      1.0  0.7502066620932418  0.20242043980680582  0.13144843108011248  1.0000
  H   H712      1.0  0.7673745764197939  0.16710828697884114  0.14440601207087608  1.0000
  N   N39       1.0  0.47250823456306296  0.9542087261177056  0.8093603714734331  1.0000
  C   C537      1.0  0.4621480903435302  0.9596900523872572  0.8304946813659201  1.0000
  C   C538      1.0  0.4933648811510929  0.9826037223233536  0.8024382632869306  1.0000
  C   C539      1.0  0.4428884462024006  0.9513894777972155  0.7964210384494396  1.0000
  C   C540      1.0  0.49167580178104864  0.9230224182180099  0.8080616036066658  1.0000
  H   H713      1.0  0.4465410824484231  0.9385961651830519  0.836234863365342  1.0000
  H   H714      1.0  0.4477646677820506  0.983076965117089  0.8321655263231108  1.0000
  H   H715      1.0  0.48393916055462105  0.9614868260843902  0.8407064614012165  1.0000
  H   H716      1.0  0.5019652798218366  0.97907011996188  0.7866049154982971  1.0000
  H   H717      1.0  0.4798651570735121  0.006646271695093464  0.8031935549180147  1.0000
  H   H718      1.0  0.5161307468017999  0.9852466385560438  0.8117658797231532  1.0000
  H   H719      1.0  0.4499693680109401  0.9471847652700708  0.7803868128519662  1.0000
  H   H720      1.0  0.4277942652900121  0.9744893812361671  0.7970352931625878  1.0000
  H   H721      1.0  0.42673116878043554  0.9300898606499776  0.801228520773872  1.0000
  H   H722      1.0  0.500294674250968  0.9181120521721624  0.7923878740699439  1.0000
  H   H723      1.0  0.47701936798684874  0.9010069477881879  0.8134051234711308  1.0000
  H   H724      1.0  0.5141867478709256  0.9244490669983971  0.8175905597727272  1.0000
  N   N40       1.0  0.24353770879473483  0.7290960610957851  0.3865903797789445  1.0000
  C   C541      1.0  0.21990558947885314  0.7209214317274167  0.37032138047617286  1.0000
  C   C542      1.0  0.27190825832522164  0.7061137058387156  0.38549647915626595  1.0000
  C   C543      1.0  0.226933638613008  0.7252826306410265  0.4063839206456031  1.0000
  C   C544      1.0  0.255483774003101  0.7639275292304777  0.38421356225522296  1.0000
  H   H725      1.0  0.19789578599815574  0.737448757624367  0.37080387524042413  1.0000
  H   H726      1.0  0.21085636090902926  0.6945913512942156  0.37160605861564683  1.0000
  H   H727      1.0  0.231689401612944  0.7238069150231152  0.35520361838776654  1.0000
  H   H728      1.0  0.28984533977638804  0.7111542314547129  0.39778722965131114  1.0000
  H   H729      1.0  0.26376011158070267  0.6795766509671395  0.3870255226095077  1.0000
  H   H730      1.0  0.28558514329157214  0.7086645658542202  0.3709732472520851  1.0000
  H   H731      1.0  0.21750327882155332  0.6993090880972284  0.4086890095777524  1.0000
  H   H732      1.0  0.2056050259876434  0.7425032581677584  0.4079029027193136  1.0000
  H   H733      1.0  0.2443390797527006  0.7308919930990384  0.4190041324150903  1.0000
  H   H734      1.0  0.26994463699860766  0.767427147117283  0.3700202394588527  1.0000
  H   H735      1.0  0.2720008446718379  0.7712813617194356  0.39687337393520156  1.0000
  H   H736      1.0  0.23463125910645283  0.7819018124212439  0.3840729212383209  1.0000
  N   N41       1.0  0.25869400498171824  0.647601933466304  0.8933250945173187  1.0000
  C   C545      1.0  0.27888913649440367  0.6375979929187545  0.9108584025116112  1.0000
  C   C546      1.0  0.2504101788443536  0.6833990083855506  0.8949564404157841  1.0000
  C   C547      1.0  0.2279468522204863  0.6272443370217924  0.8928920793448764  1.0000
  C   C548      1.0  0.2776270636414224  0.6420591845879686  0.8745495746845073  1.0000
  H   H737      1.0  0.2857885702492551  0.6107827828220576  0.9100477348326617  1.0000
  H   H738      1.0  0.2653529139438861  0.6413721151417636  0.9252919600115469  1.0000
  H   H739      1.0  0.30236537170327776  0.6522425969756876  0.9116217147647016  1.0000
  H   H740      1.0  0.23487090824266746  0.6917417554461615  0.8820904279550482  1.0000
  H   H741      1.0  0.2366875556420641  0.6887613724405252  0.9091450814318339  1.0000
  H   H742      1.0  0.27317847930927996  0.699356843161708  0.8949009061766672  1.0000
  H   H743      1.0  0.21227691677135993  0.6337675091060573  0.8797032473594139  1.0000
  H   H744      1.0  0.21288345665671018  0.6308118872318234  0.9067850572179343  1.0000
  H   H745      1.0  0.23361651980793705  0.6000664948090687  0.8917666622710502  1.0000
  H   H746      1.0  0.2832438880338361  0.6151823946761457  0.872430813701048  1.0000
  H   H747      1.0  0.3016686937719898  0.6557568594654023  0.8747052650182945  1.0000
  H   H748      1.0  0.26379983942236507  0.6505416006742337  0.8610174348748849  1.0000
  N   N42       1.0  0.7830696669647021  0.564298088663287  0.9553360188671799  1.0000
  C   C549      1.0  0.7917569789625336  0.5687855284196448  0.9768033537350768  1.0000
  C   C550      1.0  0.7717593447916679  0.5964086074437601  0.9469258590772018  1.0000
  C   C551      1.0  0.7560976008179707  0.5392224856459575  0.9536156366323478  1.0000
  C   C552      1.0  0.8124835557655233  0.5529159707509881  0.9440086657484437  1.0000
  H   H749      1.0  0.7699707319649806  0.5770554828604215  0.9857780256036026  1.0000
  H   H750      1.0  0.8115535584575482  0.5880625342079288  0.9787136954784283  1.0000
  H   H751      1.0  0.8007050288306105  0.5451161404630797  0.9836261597050519  1.0000
  H   H752      1.0  0.764745274918978  0.593967329282411  0.9307876765926167  1.0000
  H   H753      1.0  0.7495791676688053  0.6055502766963825  0.9551365068299535  1.0000
  H   H754      1.0  0.7913203313073078  0.6161103179801751  0.9478300204096964  1.0000
  H   H755      1.0  0.7487757485839968  0.5354194368922892  0.9376231499962308  1.0000
  H   H756      1.0  0.7334668538364684  0.5472369577651977  0.961932549939886  1.0000
  H   H757      1.0  0.763639481277098  0.5145666426408566  0.9597621648390336  1.0000
  H   H758      1.0  0.8334068842143926  0.5711104216101796  0.945178787914405  1.0000
  H   H759      1.0  0.8069686143446664  0.5500112720124368  0.9276885633744927  1.0000
  H   H760      1.0  0.8212919651469346  0.5283014657829813  0.9495785118333673  1.0000
  N   N43       1.0  0.6430322382186195  0.05743616507921606  0.039694522344089433  1.0000
  C   C553      1.0  0.6420481665906466  0.09405876779366786  0.04221943228198133  1.0000
  C   C554      1.0  0.6092278891914261  0.044740655244507085  0.03557445114396307  1.0000
  C   C555      1.0  0.6555273573250602  0.04187181821922499  0.058386943687245285  1.0000
  C   C556      1.0  0.6653026739919254  0.04919992534639258  0.022701721038989042  1.0000
  H   H761      1.0  0.6328582709026437  0.1067442758761251  0.02841127009094402  1.0000
  H   H762      1.0  0.6671858429095895  0.10443456091384232  0.04532744360631491  1.0000
  H   H763      1.0  0.6256062370637376  0.10115945836286518  0.055018003622083755  1.0000
  H   H764      1.0  0.5988947245326145  0.056149798400189944  0.02164928687894463  1.0000
  H   H765      1.0  0.6089850347785368  0.017153815384597947  0.03357102520005917  1.0000
  H   H766      1.0  0.5920466477916742  0.050581065627779816  0.048274579422848074  1.0000
  H   H767      1.0  0.6558950179190106  0.01417716333605279  0.057268503857245134  1.0000
  H   H768      1.0  0.6399480571997248  0.048501918218482806  0.07167984189337906  1.0000
  H   H769      1.0  0.6813315021809733  0.05023371842541964  0.06165128748884019  1.0000
  H   H770      1.0  0.6569790981151006  0.060965696973821544  0.00838353959317395  1.0000
  H   H771      1.0  0.6666919246297892  0.021769467872091577  0.02030585089831205  1.0000
  H   H772      1.0  0.6910543105780421  0.05836355003758613  0.025527410355253854  1.0000
  N   N44       1.0  0.7705057842192121  0.9769833894417371  0.20845032962801915  1.0000
  C   C557      1.0  0.7488966547051473  0.9910543596873604  0.19264184041757806  1.0000
  C   C558      1.0  0.7653059313031647  0.9404320694049314  0.20969107635853232  1.0000
  C   C559      1.0  0.7627092275648527  0.9922708643002046  0.22814020950209668  1.0000
  C   C560      1.0  0.805454348104212  0.9841109042435124  0.20329367445153218  1.0000
  H   H773      1.0  0.7523944737992783  0.01859391339292853  0.19113570340217517  1.0000
  H   H774      1.0  0.7222447902331744  0.9861338692360155  0.1959181992140712  1.0000
  H   H775      1.0  0.7545064440244137  0.9800881130228702  0.17758533357634038  1.0000
  H   H776      1.0  0.7704102435138697  0.9282594675030876  0.19492475619737074  1.0000
  H   H777      1.0  0.782105068542753  0.9289124901780947  0.22103618816275156  1.0000
  H   H778      1.0  0.7393701646108816  0.9339984705835054  0.214025706309203  1.0000
  H   H779      1.0  0.7788367506731957  0.9820759931259199  0.2402954112079172  1.0000
  H   H780      1.0  0.7364876039474714  0.9874504463823821  0.23259007516121308  1.0000
  H   H781      1.0  0.7666934131315277  0.019827104012720264  0.22774303062185547  1.0000
  H   H782      1.0  0.8224292215279377  0.9746966913577466  0.21508858304240802  1.0000
  H   H783      1.0  0.8102276670572399  0.011408581982095711  0.20171636827263642  1.0000
  H   H784      1.0  0.8124935618211416  0.9718965503970848  0.18887673082862627  1.0000
  N   N45       1.0  0.5173775681178048  0.4914409683890298  0.22472206956688784  1.0000
  C   C561      1.0  0.5221473233275417  0.5045061241935728  0.2453553358412742  1.0000
  C   C562      1.0  0.5424608812211664  0.5065036322050888  0.21110083617257827  1.0000
  C   C563      1.0  0.4838906653891865  0.49990118454921295  0.21745377434011678  1.0000
  C   C564      1.0  0.5210857875469294  0.45475558430714463  0.224881859136893  1.0000
  H   H785      1.0  0.5037679315742764  0.49359537912344187  0.25610802813856753  1.0000
  H   H786      1.0  0.5197671286814386  0.5321689202710022  0.24583365533440238  1.0000
  H   H787      1.0  0.5472241411310128  0.4984279514601517  0.2512024228224515  1.0000
  H   H788      1.0  0.5406714182910357  0.5342049251154583  0.2107248753270081  1.0000
  H   H789      1.0  0.5680406867244153  0.5002228804203349  0.21598341708302166  1.0000
  H   H790      1.0  0.5393492878865991  0.4973475609711599  0.195352282266906  1.0000
  H   H791      1.0  0.4797384290930397  0.49026665431447547  0.20187738888500573  1.0000
  H   H792      1.0  0.48022595300235554  0.5274071666802858  0.2170230348024104  1.0000
  H   H793      1.0  0.4642965337931471  0.4888089450972518  0.22730688582060898  1.0000
  H   H794      1.0  0.5174449521828254  0.4440119189938551  0.20959005033765213  1.0000
  H   H795      1.0  0.5029460676039125  0.4424441540060953  0.23520833112927325  1.0000
  H   H796      1.0  0.5462324322021104  0.447465282872594  0.2298980999785359  1.0000
  N   N46       1.0  0.980519479446057  0.8146434101082987  0.15558858147456164  1.0000
  C   C565      1.0  0.9800588720323067  0.8343341389560374  0.1744102657710288  1.0000
  C   C566      1.0  0.01432581220393988  0.815363629712368  0.14689914747912672  1.0000
  C   C567      1.0  0.9569722525228253  0.8291684825311326  0.14102969723309444  1.0000
  C   C568      1.0  0.9706789562121864  0.7797128664803015  0.16003095709219398  1.0000
  H   H797      1.0  0.9870256570823928  0.860889452065018  0.17157696831838143  1.0000
  H   H798      1.0  0.9976647635233026  0.8242768675577368  0.18571750084954516  1.0000
  H   H799      1.0  0.9549545535390828  0.8342278556449152  0.18141676710082305  1.0000
  H   H800      1.0  0.015569089196789699  0.8013088772942357  0.13247106062658845  1.0000
  H   H801      1.0  0.022728289920778525  0.8413558628189299  0.14363645790112103  1.0000
  H   H802      1.0  0.03273123650463479  0.8043132917446015  0.15739098014142427  1.0000
  H   H803      1.0  0.9566642819814429  0.8150340143278313  0.1266234160217095  1.0000
  H   H804      1.0  0.9635036372836415  0.8555712650571391  0.13741458916379343  1.0000
  H   H805      1.0  0.9312067179986333  0.8289401975667743  0.14712877002411182  1.0000
  H   H806      1.0  0.970638451477229  0.7641596109292889  0.14615192472395386  1.0000
  H   H807      1.0  0.9452474379000612  0.7782739096681514  0.16659172017765092  1.0000
  H   H808      1.0  0.9877895849026949  0.7679604342083178  0.17103540662603697  1.0000
  N   N47       1.0  0.15089851604279306  0.0589682637752984  0.3659628791787687  1.0000
  C   C569      1.0  0.1454415034019953  0.09541369108740438  0.36578558617462603  1.0000
  C   C570      1.0  0.12026046517915606  0.04159612275750324  0.35951183405555937  1.0000
  C   C571      1.0  0.1594667280221407  0.048069668565181134  0.38656471706299556  1.0000
  C   C572      1.0  0.17852213743211917  0.05094740742533088  0.35215295941196656  1.0000
  H   H809      1.0  0.1681480044956671  0.10933445104131345  0.37052382884373497  1.0000
  H   H810      1.0  0.12501216450492833  0.10240763461754554  0.37624758367026667  1.0000
  H   H811      1.0  0.1386613563728387  0.10457040019432262  0.35051826736067754  1.0000
  H   H812      1.0  0.11296271598026035  0.04917629171138471  0.3440139079984306  1.0000
  H   H813      1.0  0.12331249722227645  0.014008193416663373  0.359721391414929  1.0000
  H   H814      1.0  0.09911440031851568  0.047578222835876094  0.3697671949720863  1.0000
  H   H815      1.0  0.1654205078976118  0.02101449222540208  0.3871720736645329  1.0000
  H   H816      1.0  0.13874491881709186  0.05240984065492893  0.397319132815706  1.0000
  H   H817      1.0  0.18132700563442422  0.06211036609423992  0.3922347917691514  1.0000
  H   H818      1.0  0.18353691003792047  0.023657802703799913  0.35195824054785985  1.0000
  H   H819      1.0  0.20191249990262874  0.06376926764995505  0.35689824946006615  1.0000
  H   H820      1.0  0.17314971488305883  0.05902899952467178  0.3364505552550513  1.0000
  N   N48       1.0  0.5383303886100025  0.6481008815247646  0.40682109265980587  1.0000
  C   C573      1.0  0.5468504027149691  0.6181142677303095  0.4187163873702423  1.0000
  C   C574      1.0  0.5031611293031655  0.6565362951135139  0.4102054240833689  1.0000
  C   C575      1.0  0.5437634533811542  0.6412739404294984  0.3851809813432998  1.0000
  C   C576      1.0  0.5596711386959932  0.6763709251780491  0.4131624093573866  1.0000
  H   H821      1.0  0.5732474751442278  0.6110056062149463  0.4163037622742945  1.0000
  H   H822      1.0  0.5312700333350643  0.5962641164691175  0.41435960730780197  1.0000
  H   H823      1.0  0.543215159483227  0.6223048208984004  0.4351462952324333  1.0000
  H   H824      1.0  0.49614156903011747  0.6793580442698052  0.4016847599572689  1.0000
  H   H825      1.0  0.4864005158016023  0.6360025017943134  0.40516681641472885  1.0000
  H   H826      1.0  0.49782168213593625  0.6609192194331075  0.4264571178272886  1.0000
  H   H827      1.0  0.5383558728711831  0.6634643802512306  0.3756564839774996  1.0000
  H   H828      1.0  0.5277599119822719  0.6203456703315515  0.37983376987225625  1.0000
  H   H829      1.0  0.5698411250802905  0.6341021068505031  0.38217224859579874  1.0000
  H   H830      1.0  0.555867366376843  0.6988761115577042  0.4035709945384664  1.0000
  H   H831      1.0  0.5863366964105028  0.6698702973247699  0.41203794453440157  1.0000
  H   H832      1.0  0.5549086937197653  0.6834496229355501  0.4291124876802129  1.0000
  N   N49       1.0  0.6803606322237411  0.9263747507819162  0.568548794812204  1.0000
  C   C577      1.0  0.6951255679467584  0.8970067150297937  0.5784697801912263  1.0000
  C   C578      1.0  0.6673191125859879  0.9164680070661538  0.5486061274409421  1.0000
  C   C579      1.0  0.705980733217147  0.9526720355828857  0.5658683261897416  1.0000
  C   C580      1.0  0.6531688352845133  0.9392370033507789  0.5812476989997225  1.0000
  H   H833      1.0  0.7063162569748831  0.9035963511052494  0.5932769577118021  1.0000
  H   H834      1.0  0.7150218495838566  0.8861407870125452  0.5689751448865418  1.0000
  H   H835      1.0  0.676436971895578  0.8768953095292249  0.5812228810566802  1.0000
  H   H836      1.0  0.6558886898925858  0.9379194163183664  0.5406211205951899  1.0000
  H   H837      1.0  0.6874313472110066  0.9068023957187064  0.5386968274654873  1.0000
  H   H838      1.0  0.6483176429051255  0.8962503061834791  0.5499621128156716  1.0000
  H   H839      1.0  0.6956319626723783  0.9754567384524586  0.5587356192166207  1.0000
  H   H840      1.0  0.7266288044790151  0.9439550873315244  0.5561002409276053  1.0000
  H   H841      1.0  0.7170878857790233  0.960090157997891  0.5805181542815566  1.0000
  H   H842      1.0  0.641817983162072  0.9618542510671761  0.5744734337757218  1.0000
  H   H843      1.0  0.6622370568128534  0.9462778267695373  0.5965103078956814  1.0000
  H   H844      1.0  0.6332389282057928  0.9201478976605811  0.5833919130613022  1.0000
  N   N50       1.0  0.464810189697073  0.8319512680843378  0.3929889660160745  1.0000
  C   C581      1.0  0.4438358985592692  0.8619679134029042  0.39370390228071084  1.0000
  C   C582      1.0  0.4658233532760701  0.819135901160349  0.3721205256775959  1.0000
  C   C583      1.0  0.4506572706119706  0.8060996721220651  0.4065414241825381  1.0000
  C   C584      1.0  0.4987831661972054  0.8407114225205762  0.3995541862807709  1.0000
  H   H845      1.0  0.4177400922147966  0.8559604650692428  0.3896586508829557  1.0000
  H   H846      1.0  0.45277834734284983  0.881487117997947  0.3829429470163818  1.0000
  H   H847      1.0  0.4435032140924083  0.8731754297536695  0.4090353161474251  1.0000
  H   H848      1.0  0.4757037014984747  0.8383685135762359  0.36146318385439014  1.0000
  H   H849      1.0  0.4817719030434198  0.7967226457181649  0.37090321381396607  1.0000
  H   H850      1.0  0.44060920210465965  0.811996052188591  0.36676607876437023  1.0000
  H   H851      1.0  0.4658424131086524  0.7830663849435755  0.4064593841583986  1.0000
  H   H852      1.0  0.4249817938682862  0.7989939382588848  0.4019433201553983  1.0000
  H   H853      1.0  0.4493035231879348  0.8151757013134981  0.42237873968828943  1.0000
  H   H854      1.0  0.5156019325871404  0.8188727424121395  0.3989258613876577  1.0000
  H   H855      1.0  0.49910331781749806  0.8501032608480646  0.41535481115140066  1.0000
  H   H856      1.0  0.509869875316232  0.8607057022914923  0.38988211787284427  1.0000
  N   N51       1.0  0.2633159179890767  0.2722792126887816  0.5858567205691128  1.0000
  C   C585      1.0  0.2458871850806642  0.24205379609494262  0.5933369832090278  1.0000
  C   C586      1.0  0.2815395499696842  0.26420605448765977  0.5671464431547691  1.0000
  C   C587      1.0  0.2869445709540663  0.2841161876612069  0.6013135500424334  1.0000
  C   C588      1.0  0.2388613476392406  0.29861646707303907  0.5816635784111712  1.0000
  H   H857      1.0  0.23228702452117383  0.24688813569248302  0.6076577391469646  1.0000
  H   H858      1.0  0.2636539516892349  0.22177742382854304  0.5965189912038232  1.0000
  H   H859      1.0  0.22802463054778724  0.23206289875403718  0.5820364611749994  1.0000
  H   H860      1.0  0.2949177820425004  0.28638878016269403  0.5609563856792498  1.0000
  H   H861      1.0  0.30016786219514535  0.24431375221223622  0.5698134337854976  1.0000
  H   H862      1.0  0.2645199411871089  0.254593111113695  0.5552518209076943  1.0000
  H   H863      1.0  0.30068756173182204  0.30688549871031234  0.5962995956133548  1.0000
  H   H864      1.0  0.305584335310411  0.26465194769548217  0.6049003708782337  1.0000
  H   H865      1.0  0.2740642126574477  0.29012091633166076  0.6157193196591532  1.0000
  H   H866      1.0  0.25115282090557167  0.3218424560679449  0.576018742836819  1.0000
  H   H867      1.0  0.22465832592145724  0.30513337262388024  0.5955071358101413  1.0000
  H   H868      1.0  0.22069395590429322  0.2903431550721054  0.5700493057178713  1.0000
  N   N52       1.0  0.20089417308346744  0.15615066850575254  0.8891253699046336  1.0000
  C   C589      1.0  0.21572782080002106  0.13095260078732762  0.8756666531305202  1.0000
  C   C590      1.0  0.17551274930601607  0.13987001666684384  0.9020302550100413  1.0000
  C   C591      1.0  0.18542561499367874  0.18268346254773715  0.8768800065576472  1.0000
  C   C592      1.0  0.22692786494106804  0.17106212277830513  0.9019898694596018  1.0000
  H   H869      1.0  0.23515592099598906  0.14210939315184978  0.86573655943511  1.0000
  H   H870      1.0  0.1966584080522659  0.1192268050826919  0.8658137851872385  1.0000
  H   H871      1.0  0.2271283693886308  0.11023610946930962  0.8844091974246441  1.0000
  H   H872      1.0  0.18592298608838054  0.11846098031739949  0.9106053545538138  1.0000
  H   H873      1.0  0.16508478710798855  0.1575565811346571  0.9131813155568258  1.0000
  H   H874      1.0  0.154585561042549  0.1297967971744607  0.89290984632623  1.0000
  H   H875      1.0  0.17582000117794508  0.20314266832767225  0.8865275901289259  1.0000
  H   H876      1.0  0.16412621616078293  0.17287186632919238  0.8679440720898006  1.0000
  H   H877      1.0  0.20340029315296482  0.19420868539520142  0.8661225113100278  1.0000
  H   H878      1.0  0.24650493308551183  0.18361244190245585  0.8927658460541197  1.0000
  H   H879      1.0  0.23902097287429755  0.15175385195496882  0.9114964748509906  1.0000
  H   H880      1.0  0.2164149762503809  0.19022907633294173  0.9123225209068431  1.0000
  N   N53       1.0  0.20255234256589688  0.7355429912873689  0.0959721403880835  1.0000
  C   C593      1.0  0.1986505299056351  0.7039015586127154  0.10734305803508763  1.0000
  C   C594      1.0  0.21589739409439915  0.7616448165347648  0.10948033965191768  1.0000
  C   C595      1.0  0.16998627052936915  0.7460159387847493  0.08814257808473  1.0000
  C   C596      1.0  0.22567864533201193  0.730789045296183  0.0789176174887347  1.0000
  H   H881      1.0  0.222813596438356  0.6948755507740814  0.11314552304427598  1.0000
  H   H882      1.0  0.18756171752167597  0.6838196825723297  0.09788037983174815  1.0000
  H   H883      1.0  0.182106592341694  0.7070269614064902  0.12065983562162882  1.0000
  H   H884      1.0  0.21993675534863785  0.7856617998286477  0.10133726695630059  1.0000
  H   H885      1.0  0.19856412522918557  0.7666876460158323  0.12210959654513885  1.0000
  H   H886      1.0  0.23992774644756515  0.7542539259398829  0.11624954152023481  1.0000
  H   H887      1.0  0.17201001640291963  0.7700795438341936  0.07969631533638237  1.0000
  H   H888      1.0  0.15182448494378292  0.7496239631385431  0.10058700829138967  1.0000
  H   H889      1.0  0.15925296088655724  0.7270495363922652  0.07776096576996402  1.0000
  H   H890      1.0  0.228835098150124  0.7543240028051437  0.0700238698947224  1.0000
  H   H891      1.0  0.2164922639631777  0.7111629529141279  0.06843114770167023  1.0000
  H   H892      1.0  0.25065454701477985  0.7233200472689572  0.08426378282625772  1.0000
  N   N54       1.0  0.2991114714254339  0.416420307889874  0.9445853664305659  1.0000
  C   C597      1.0  0.268545691261097  0.43638943143156095  0.9455453609285683  1.0000
  C   C598      1.0  0.3014974271858347  0.4002966815835429  0.9246198273711026  1.0000
  C   C599      1.0  0.29816768241702596  0.3904991531361693  0.9605057198905191  1.0000
  C   C600      1.0  0.3281418974708324  0.43858896243798295  0.9476359166495134  1.0000
  H   H893      1.0  0.2647543291256645  0.4473846337217987  0.9607668783362916  1.0000
  H   H894      1.0  0.2462965312440801  0.42079560542005917  0.9422257915755938  1.0000
  H   H895      1.0  0.269116142020467  0.45720418827640735  0.9344232088739736  1.0000
  H   H896      1.0  0.32413354369464736  0.3848464798575141  0.9232851414883472  1.0000
  H   H897      1.0  0.27971607411877203  0.3836918457400442  0.9217258000712183  1.0000
  H   H898      1.0  0.30211574977459243  0.4191380316772493  0.9122558156632975  1.0000
  H   H899      1.0  0.29626805401663037  0.40177428045297925  0.9757963818572373  1.0000
  H   H900      1.0  0.32064470436183984  0.37466593296998474  0.9601623355670545  1.0000
  H   H901      1.0  0.27618591223001143  0.3737270245867561  0.9587957184508883  1.0000
  H   H902      1.0  0.35169261394251233  0.42437886198785424  0.9470979489340762  1.0000
  H   H903      1.0  0.3268486884432637  0.451368945464425  0.9625029457980264  1.0000
  H   H904      1.0  0.32954339139930106  0.4583460005006042  0.9357711493443505  1.0000
  N   N55       1.0  0.48286126746311164  0.512568434391642  0.8395793575661974  1.0000
  C   C601      1.0  0.4812390053838422  0.5137070832402096  0.861846663233725  1.0000
  C   C602      1.0  0.4533379337970735  0.4947945398602447  0.8317236706174258  1.0000
  C   C603      1.0  0.5131102594569272  0.4948587416855579  0.8332514428205062  1.0000
  C   C604      1.0  0.48379573367509865  0.5469824583194752  0.8314600843231854  1.0000
  H   H905      1.0  0.5034086681177011  0.5264243560568136  0.8683454488676745  1.0000
  H   H906      1.0  0.47966073092117395  0.4882561100495301  0.8685592834702616  1.0000
  H   H907      1.0  0.45916356300154143  0.5277175732606945  0.867151556562622  1.0000
  H   H908      1.0  0.4532243767897585  0.4942953322700611  0.8149221484028694  1.0000
  H   H909      1.0  0.4519154819827132  0.46858204311224183  0.8372685800031238  1.0000
  H   H910      1.0  0.43008032116633116  0.507352239687499  0.8363802635338027  1.0000
  H   H911      1.0  0.5150420173660055  0.4936516061828933  0.8165142142056397  1.0000
  H   H912      1.0  0.513260820499915  0.46879412876687027  0.8391346597726782  1.0000
  H   H913      1.0  0.5358412571093131  0.5076997567665309  0.8389261231571019  1.0000
  H   H914      1.0  0.4837554835663015  0.5471912790696937  0.8146647717872413  1.0000
  H   H915      1.0  0.5061250265914201  0.5609643452939529  0.8366572723866708  1.0000
  H   H916      1.0  0.4616579937812207  0.5612504079914223  0.8363208023680915  1.0000
  N   N56       1.0  0.5856641250109489  0.714366559801481  0.8711856773108279  1.0000
  C   C605      1.0  0.5554107033503234  0.6969941484475065  0.8641381725333899  1.0000
  C   C606      1.0  0.591082830938313  0.7064944546341811  0.8927108290574349  1.0000
  C   C607      1.0  0.5817807890001407  0.750813413104546  0.8686742885678019  1.0000
  C   C608      1.0  0.6144179548108648  0.7030696345173315  0.8592225376136085  1.0000
  H   H917      1.0  0.5503311620376755  0.7026137154868791  0.8480065419157007  1.0000
  H   H918      1.0  0.5332886944047827  0.7042937096242774  0.8731030692951472  1.0000
  H   H919      1.0  0.5579438555746025  0.6694543776088288  0.8656012743661229  1.0000
  H   H920      1.0  0.5934172308043616  0.6791382851078673  0.8952258662818554  1.0000
  H   H921      1.0  0.6142282425278076  0.7183719081968165  0.898393302753153  1.0000
  H   H922      1.0  0.5703308519159525  0.7153234683858265  0.9023209538401825  1.0000
  H   H923      1.0  0.6039097282127275  0.7645513482855459  0.8742829899583476  1.0000
  H   H924      1.0  0.5600075604520316  0.7601935990720858  0.8772023782279005  1.0000
  H   H925      1.0  0.5786319659305298  0.757886959587762  0.8525487333334298  1.0000
  H   H926      1.0  0.6180471271272174  0.675628579735802  0.8607709164570084  1.0000
  H   H927      1.0  0.6377376576438584  0.7154784356916227  0.8642245308784919  1.0000
  H   H928      1.0  0.6113263628482613  0.7087209581925384  0.8429098577742684  1.0000
  N   N57       1.0  0.009509923667984532  0.0014794609276080894  0.8104163855992847  1.0000
  C   C609      1.0  0.013537173262334612  0.038196820872479886  0.8099006214120752  1.0000
  C   C610      1.0  0.976222492474726  0.9928639474599933  0.8183486945364081  1.0000
  C   C611      1.0  0.034973391330873405  0.9869454032917477  0.8236949954881946  1.0000
  C   C612      1.0  0.013387830034752302  0.9880117512264999  0.7898097085628161  1.0000
  H   H929      1.0  0.03857843709198994  0.04561877247345847  0.8044258502377866  1.0000
  H   H930      1.0  0.010452959011233443  0.04924263635134607  0.8251564657873911  1.0000
  H   H931      1.0  0.9951436996106383  0.05009071564337919  0.7997798712775089  1.0000
  H   H932      1.0  0.9727268404021159  0.0027815919705123093  0.8339199836359783  1.0000
  H   H933      1.0  0.9563492907553116  0.0035648499533449396  0.8087713203571525  1.0000
  H   H934      1.0  0.9722948085902771  0.9653349352069928  0.8190494287585123  1.0000
  H   H935      1.0  0.032840290174226405  0.959242076096655  0.8243813170302134  1.0000
  H   H936      1.0  0.0326108168893795  0.9964906612599398  0.8394066258820265  1.0000
  H   H937      1.0  0.06042747571020057  0.9932316250179162  0.8182528959827193  1.0000
  H   H938      1.0  0.03831086839745934  0.994168077606892  0.7834674032407695  1.0000
  H   H939      1.0  0.9946870265442663  0.9985028090089736  0.7793099415685124  1.0000
  H   H940      1.0  0.010686553690883116  0.9603171355772627  0.7895975924623875  1.0000
  N   N58       1.0  0.0117687032127618  0.022319197095628258  0.6242527535371792  1.0000
  C   C613      1.0  0.04592559302039545  0.021908176830488145  0.6160886534783216  1.0000
  C   C614      1.0  0.9931785403620528  0.04986203934266991  0.6148371974529305  1.0000
  C   C615      1.0  0.012910478665126401  0.027345159583883293  0.646311361899716  1.0000
  C   C616      1.0  0.9949716087392606  0.9902073468337274  0.6198021165951574  1.0000
  H   H941      1.0  0.060667043435401746  0.0013822116212254263  0.6228457296310882  1.0000
  H   H942      1.0  0.059560729286020964  0.04555377722592406  0.6194535630501736  1.0000
  H   H943      1.0  0.04612290366684646  0.018267697455550538  0.5994661932726494  1.0000
  H   H944      1.0  0.9672865267715299  0.05073899033851231  0.6206844131923138  1.0000
  H   H945      1.0  0.005125140180367582  0.07448508746268263  0.6179323489454533  1.0000
  H   H946      1.0  0.9918132898562316  0.046839472833612276  0.5981742494978356  1.0000
  H   H947      1.0  0.9875872241162409  0.027569238044017168  0.653060207268755  1.0000
  H   H948      1.0  0.02575225021969274  0.0511098146217891  0.6503144631353377  1.0000
  H   H949      1.0  0.026465006096551225  0.0068594653765350335  0.6539006276793362  1.0000
  H   H950      1.0  0.9694207338510937  0.9892596495411254  0.6262358525904835  1.0000
  H   H951      1.0  0.00858091604412392  0.9688303779275135  0.6264180850561423  1.0000
  H   H952      1.0  0.9930598161805395  0.9856828745410003  0.6033032867798741  1.0000
  N   N59       1.0  0.8194293212049641  0.515044010742937  0.1482028746428454  1.0000
  C   C617      1.0  0.7956152574536249  0.494915213933538  0.1602402182297233  1.0000
  C   C618      1.0  0.8186715222739581  0.5039166207667751  0.12697108430361218  1.0000
  C   C619      1.0  0.8532711044977407  0.5108676891256179  0.15627844638001254  1.0000
  C   C620      1.0  0.8102600426982005  0.5506335443610151  0.14926008717047612  1.0000
  H   H953      1.0  0.7957891763727183  0.5024875207206401  0.17637474036898443  1.0000
  H   H954      1.0  0.8014091651846622  0.467814467117988  0.1595592348973738  1.0000
  H   H955      1.0  0.7697732633039785  0.49795830449855044  0.15468804250074852  1.0000
  H   H956      1.0  0.8360679219277969  0.5189768506981748  0.11742998753265044  1.0000
  H   H957      1.0  0.8259665820814335  0.4772925891202397  0.1255548160894416  1.0000
  H   H958      1.0  0.7935189132768046  0.506440083454438  0.12039134485138675  1.0000
  H   H959      1.0  0.8609129410750429  0.48424298874538196  0.15607631494583563  1.0000
  H   H960      1.0  0.8551894163571734  0.5199968172106806  0.17206901591716067  1.0000
  H   H961      1.0  0.8718499710051182  0.5252045786495999  0.1471665858843788  1.0000
  H   H962      1.0  0.8280244462574814  0.5664071265562471  0.14051698260261788  1.0000
  H   H963      1.0  0.810406429655445  0.5599651283392535  0.16504742877700865  1.0000
  H   H964      1.0  0.7850337364800042  0.5549998131201627  0.14307407137863992  1.0000
  N   N60       1.0  0.36254375352695045  0.022191342564575892  0.6247153940189785  1.0000
  C   C621      1.0  0.37521750115158187  0.9907165874465134  0.6333159356417813  1.0000
  C   C622      1.0  0.35430385995531966  0.0453647999101618  0.6412511796488034  1.0000
  C   C623      1.0  0.3324488315841432  0.015167393059985814  0.6127353911797772  1.0000
  C   C624      1.0  0.38820262795420385  0.03757709268803827  0.6116108314893862  1.0000
  H   H965      1.0  0.39795431693935407  0.9952536968215719  0.6424611523847716  1.0000
  H   H966      1.0  0.3817333896502082  0.972616233650115  0.6212653820179155  1.0000
  H   H967      1.0  0.35645961789104785  0.9785477885511348  0.6433402189384335  1.0000
  H   H968      1.0  0.3453905954872935  0.06964537746082816  0.6352632064600413  1.0000
  H   H969      1.0  0.3341670130323659  0.03510495449510482  0.6510567130303013  1.0000
  H   H970      1.0  0.3761593368436239  0.0505949969845446  0.6509579042291028  1.0000
  H   H971      1.0  0.32218721309049697  0.038485824276284955  0.6061475182965661  1.0000
  H   H972      1.0  0.31237033186407365  0.003943878333393159  0.622216977846198  1.0000
  H   H973      1.0  0.3375630504005369  0.9977499115213171  0.6000991592292397  1.0000
  H   H974      1.0  0.3798812925507599  0.061986639887967314  0.6053743480132211  1.0000
  H   H975      1.0  0.3944173433385833  0.02125353519224804  0.5986256698098018  1.0000
  H   H976      1.0  0.41156601980704977  0.04235563442542991  0.6200617456596716  1.0000
  N   N61       1.0  0.030053310144934287  0.3024041421622173  0.40443207123845826  1.0000
  C   C625      1.0  0.017870535059023585  0.326591754690303  0.4194753069156793  1.0000
  C   C626      1.0  0.002259096848019615  0.2810511226731949  0.3975510084825864  1.0000
  C   C627      1.0  0.055789976729278434  0.2813057521262006  0.41368578470216033  1.0000
  C   C628      1.0  0.04435522085412025  0.32066322069314745  0.38700842975762484  1.0000
  H   H977      1.0  0.0381712799526861  0.3434512999232045  0.42470187588661723  1.0000
  H   H978      1.0  0.007222223646616621  0.31370941598375734  0.4329355505036392  1.0000
  H   H979      1.0  0.9981546202833077  0.34270716246445176  0.4131028210753831  1.0000
  H   H980      1.0  0.010688550066391578  0.26273154034805535  0.3860541631342634  1.0000
  H   H981      1.0  0.9910627847760626  0.2667237122653598  0.4103069755888248  1.0000
  H   H982      1.0  0.9822584512642831  0.296260976228122  0.39066934702522654  1.0000
  H   H983      1.0  0.06654001771329376  0.263588545973158  0.40257392647090473  1.0000
  H   H984      1.0  0.045820663400004014  0.2662676951673254  0.4265095662579424  1.0000
  H   H985      1.0  0.07662769748145326  0.2967065742344092  0.41961981892608874  1.0000
  H   H986      1.0  0.05457649126150965  0.3032756799561151  0.37552098601619543  1.0000
  H   H987      1.0  0.06502291195097798  0.3375467398808741  0.39164200370597746  1.0000
  H   H988      1.0  0.025607798330917086  0.33632489719465936  0.37933897024850693  1.0000
  N   N62       1.0  0.2839058640321825  0.09383442123596714  0.45841162497128557  1.0000
  C   C629      1.0  0.25580860963057583  0.06989038362476867  0.4589873000430482  1.0000
  C   C630      1.0  0.3143888800136846  0.07683710388543726  0.4649902223924775  1.0000
  C   C631      1.0  0.2769470742890898  0.1220184465548581  0.4720847626637734  1.0000
  C   C632      1.0  0.2884328505414215  0.10653596686258913  0.4376173204011309  1.0000
  H   H989      1.0  0.23258711299772655  0.08166979780162499  0.4535939362302158  1.0000
  H   H990      1.0  0.250695828356607  0.06089545962653255  0.47461482461874405  1.0000
  H   H991      1.0  0.2605226574778665  0.047727273537389946  0.4493480266878026  1.0000
  H   H992      1.0  0.33608807263851687  0.09420664730226977  0.46479045768586913  1.0000
  H   H993      1.0  0.3116835098643508  0.06686070793541457  0.4806084932413756  1.0000
  H   H994      1.0  0.32032567169747256  0.05541987987230368  0.4549477840795012  1.0000
  H   H995      1.0  0.25363539849247285  0.134852031729329  0.46781765891219845  1.0000
  H   H996      1.0  0.29723332477452  0.14100771908766566  0.4718548803721532  1.0000
  H   H997      1.0  0.27372094837144556  0.11337009729494278  0.48795342784047685  1.0000
  H   H998      1.0  0.30870866553162085  0.1254913982130234  0.43668476180704313  1.0000
  H   H999      1.0  0.2654928782350427  0.11854482145244039  0.4318989278983719  1.0000
  H   H1000     1.0  0.2946932779275822  0.08606617085120852  0.42697975198132143  1.0000
  N   N63       1.0  0.3074657667682014  0.5408589286712906  0.7141689740231975  1.0000
  C   C633      1.0  0.29281160585005195  0.56663437968532  0.7009850219661788  1.0000
  C   C634      1.0  0.28974839778669775  0.5397387628452108  0.7337076939325066  1.0000
  C   C635      1.0  0.34281916938765633  0.5488591544764219  0.7176541340888012  1.0000
  C   C636      1.0  0.3046404406585653  0.507962596840213  0.7042896997371032  1.0000
  H   H1001     1.0  0.30570460056420357  0.5678870545796995  0.6861058725008399  1.0000
  H   H1002     1.0  0.2944537570143436  0.5918771478735491  0.7079066007189637  1.0000
  H   H1003     1.0  0.2661861795359738  0.5612350454029837  0.6978424116580109  1.0000
  H   H1004     1.0  0.30057160238167463  0.520568297999154  0.7439611248839042  1.0000
  H   H1005     1.0  0.2912406799702311  0.5641865488910578  0.7416162617093877  1.0000
  H   H1006     1.0  0.2630746563431402  0.5333016237887447  0.7316773759692561  1.0000
  H   H1007     1.0  0.354787305003398  0.5292543180583585  0.7270097187470042  1.0000
  H   H1008     1.0  0.3459639422522748  0.5730657996605418  0.7256586849821071  1.0000
  H   H1009     1.0  0.3568222548409103  0.5505764626736033  0.703181441492118  1.0000
  H   H1010     1.0  0.3198069517286749  0.5071833063637342  0.6902877453732361  1.0000
  H   H1011     1.0  0.2785479440581915  0.5019272531657397  0.7001842482954425  1.0000
  H   H1012     1.0  0.3134539944162457  0.48759087065150253  0.7142899305512277  1.0000
  N   N64       1.0  0.5130954762225339  0.18746137191462003  0.625970835114442  1.0000
  C   C637      1.0  0.4840977362825545  0.1915877212875345  0.6126475199313066  1.0000
  C   C638      1.0  0.5292631395295543  0.22031350046915857  0.6290560206213858  1.0000
  C   C639      1.0  0.5369320152481868  0.16436555529219762  0.6165501468240834  1.0000
  C   C640      1.0  0.502224025018378  0.1736526434980396  0.6456455775033374  1.0000
  H   H1013     1.0  0.4913086178803079  0.20268753534732267  0.5978527640126328  1.0000
  H   H1014     1.0  0.46504202369550884  0.20790321562543035  0.6195847882414776  1.0000
  H   H1015     1.0  0.47177543017238277  0.16727832106593193  0.609463780301766  1.0000
  H   H1016     1.0  0.5118949038765526  0.23856783970559955  0.6358084734056919  1.0000
  H   H1017     1.0  0.5508103763339798  0.21817876660620167  0.6393466912550188  1.0000
  H   H1018     1.0  0.5387232537882048  0.23103587445960758  0.6146122267093966  1.0000
  H   H1019     1.0  0.5593820079438058  0.16125836762296722  0.6260974507012672  1.0000
  H   H1020     1.0  0.5454186478303931  0.17361889362928834  0.6015556718278643  1.0000
  H   H1021     1.0  0.5258336929611972  0.13907135868499307  0.6144285539213786  1.0000
  H   H1022     1.0  0.5236698337067338  0.16961631500251098  0.6559097272190225  1.0000
  H   H1023     1.0  0.4895513545994891  0.1490666847749498  0.6438710013441225  1.0000
  H   H1024     1.0  0.48458010394748197  0.1904956550650626  0.6534042851017688  1.0000
