data_image0
_chemical_formula_structural       FeS2FeS2FeSFeS3FeS2FeS2FeSFeS3FeS2FeS2FeSFeS3FeS2FeS2FeSFeS3FeS2FeS2FeSFeS3FeS2FeS2FeSFeS3FeS2FeS2FeSFeS3FeS2FeS2FeSFeS3FeS2FeS2FeSFeS3FeS2FeS2FeSFeS3FeS2FeS2FeSFeS3FeS2FeS2FeSFeS3FeS2FeS2FeSFeS3FeS2FeS2FeSFeS3FeS2FeS2FeSFeS3FeS2FeS2FeSFeS3C6H4C6H4C6H4C6H4C6H4C6H4C6H4C6H4C6H4C6H4C6H4C6H4C6H4C6H4C6H4C6H4C6H4C6H4C6H4C6H4C6H4C6H4C6H4C6H4C6H4C6H4C6H4C6H4C6H4C6H4C6H4C6H4FeS2FeS2FeSFeS3FeS2FeS2FeSFeS3FeS2FeS2FeSFeS3FeS2FeS2FeSFeS3FeS2FeS2FeSFeS3FeS2FeS2FeSFeS3FeS2FeS2FeSFeS3FeS2FeS2FeSFeS3FeS2FeS2FeSFeS3FeS2FeS2FeSFeS3FeS2FeS2FeSFeS3FeS2FeS2FeSFeS3FeS2FeS2FeSFeS3FeS2FeS2FeSFeS3FeS2FeS2FeSFeS3FeS2FeS2FeSFeS3C6H4C6H4C6H4C6H4C6H4C6H4C6H4C6H4C6H4C6H4C6H4C6H4C6H4C6H4C6H4C6H4C6H4C6H4C6H4C6H4C6H4C6H4C6H4C6H4C6H4C6H4C6H4C6H4C6H4C6H4C6H4C6H4NC4H12NC4H12NC4H12NC4H12NC4H12NC4H12NC4H12NC4H12NC4H12NC4H12NC4H12NC4H12NC4H12NC4H12NC4H12NC4H12NC4H12NC4H12NC4H12NC4H12NC4H12NC4H12NC4H12NC4H12NC4H12NC4H12NC4H12NC4H12NC4H12NC4H12NC4H12NC4H12NC4H12NC4H12NC4H12NC4H12NC4H12NC4H12NC4H12NC4H12NC4H12NC4H12NC4H12NC4H12NC4H12NC4H12NC4H12NC4H12NC4H12NC4H12NC4H12NC4H12NC4H12NC4H12NC4H12NC4H12NC4H12NC4H12NC4H12NC4H12NC4H12NC4H12NC4H12NC4H12
_chemical_formula_sum              "Fe128 S256 C640 H1024 N64"
_cell_length_a       47.5954392642564
_cell_length_b       49.05590501416503
_cell_length_c       26.223206541584727
_cell_angle_alpha    89.61446961873052
_cell_angle_beta     89.85976764378127
_cell_angle_gamma    89.51939737003185

_space_group_name_H-M_alt    "P 1"
_space_group_IT_number       1

loop_
  _space_group_symop_operation_xyz
  'x, y, z'

loop_
  _atom_site_type_symbol
  _atom_site_label
  _atom_site_symmetry_multiplicity
  _atom_site_fract_x
  _atom_site_fract_y
  _atom_site_fract_z
  _atom_site_occupancy
  Fe  Fe1       1.0  0.009641078917100199  0.332227430795312  0.8771228582562033  1.0000
  S   S1        1.0  0.014153100357252812  0.28429443996917664  0.4561892748556446  1.0000
  S   S2        1.0  0.06029258900007983  0.343413358336496  0.3962970810606754  1.0000
  Fe  Fe2       1.0  0.9526323907039949  0.3155107734248005  0.8375414833063919  1.0000
  S   S3        1.0  0.9491164178950524  0.28245303070255695  0.41047428574376743  1.0000
  S   S4        1.0  0.9279693850167561  0.32405742773233176  0.7663671250122492  1.0000
  Fe  Fe3       1.0  0.9722970322491944  0.3029544863618825  0.47373410926044596  1.0000
  S   S5        1.0  0.9569948714672964  0.3015458122043929  0.5547763031880035  1.0000
  Fe  Fe4       1.0  0.9907551349949525  0.2735748063952227  0.8874946521350842  1.0000
  S   S6        1.0  0.008597112027610487  0.23124040298210255  0.8871021007443544  1.0000
  S   S7        1.0  0.9798533962637888  0.34119294006213585  0.4286336943184964  1.0000
  S   S8        1.0  0.9962846817405648  0.30125058575216174  0.8205270248566312  1.0000
  Fe  Fe5       1.0  0.06268337277406166  0.4625589665533463  0.652131119004121  1.0000
  S   S9        1.0  0.07709794741313668  0.44800911244584585  0.5754530725667678  1.0000
  S   S10       1.0  0.02463560041674895  0.4479351925520157  0.6950806367277956  1.0000
  Fe  Fe6       1.0  0.11154894478583392  0.5011917810498996  0.6640798872131026  1.0000
  S   S11       1.0  0.1313156544059834  0.48947344286197225  0.5893252965456961  1.0000
  S   S12       1.0  0.13093801479158407  0.528206584823729  0.7230813318937765  1.0000
  Fe  Fe7       1.0  0.08704867297821227  0.492010822821943  0.5600864210363407  1.0000
  S   S13       1.0  0.07765514101663787  0.5117794336959436  0.4844156801661766  1.0000
  Fe  Fe8       1.0  0.11998697985416948  0.4465881363306404  0.6105865038996071  1.0000
  S   S14       1.0  0.14706317617238374  0.40920966977711126  0.5978303257080753  1.0000
  S   S15       1.0  0.0680423232173335  0.5068630127677829  0.6333128636301835  1.0000
  S   S16       1.0  0.10470507667977774  0.45801931502584947  0.6886728410926573  1.0000
  Fe  Fe9       1.0  0.02281021471741629  0.14427436059709123  0.668163164287695  1.0000
  S   S17       1.0  0.04482765716434467  0.1544257053920661  0.5953189643230128  1.0000
  S   S18       1.0  0.9833176956520521  0.1685019414904775  0.6839364758544736  1.0000
  Fe  Fe10      1.0  0.07084032992712673  0.10751365587266103  0.7036841863211282  1.0000
  S   S19       1.0  0.09714252068309248  0.11564548897059827  0.6337274007554767  1.0000
  S   S20       1.0  0.08838446480725977  0.08547299219786506  0.772447240764117  1.0000
  Fe  Fe11      1.0  0.0831923415143104  0.15918737992702447  0.6433438467135889  1.0000
  S   S21       1.0  0.10700445849488377  0.19843463468736453  0.6346526829564273  1.0000
  Fe  Fe12      1.0  0.056222911420897415  0.11017112341671491  0.5924009205397134  1.0000
  S   S22       1.0  0.050572321934002844  0.09055085237815352  0.5155850999952002  1.0000
  S   S23       1.0  0.060562405909486694  0.151677505658562  0.7163976699063624  1.0000
  S   S24       1.0  0.030594595097353627  0.09915383820166462  0.6617820058742567  1.0000
  Fe  Fe13      1.0  0.1515687357443602  0.2844316852007944  0.2913120647029528  1.0000
  S   S25       1.0  0.16790267185808652  0.24838336600489272  0.24979211834861934  1.0000
  S   S26       1.0  0.11150921518277407  0.3033593846891055  0.2647819403529996  1.0000
  Fe  Fe14      1.0  0.20000754076856272  0.2851256722177837  0.3645839878496508  1.0000
  S   S27       1.0  0.22112647815208938  0.24827395930219803  0.3304705047153342  1.0000
  S   S28       1.0  0.2150473260580802  0.307711021259403  0.43330609015756505  1.0000
  Fe  Fe15      1.0  0.2096417504173624  0.26824998747737955  0.2560625873606165  1.0000
  S   S29       1.0  0.286168533630384  0.2875204515120533  0.7445271425364499  1.0000
  Fe  Fe16      1.0  0.17761942717854057  0.23116622521998256  0.32707519916415695  1.0000
  S   S30       1.0  0.16490718081185254  0.18765802483964655  0.3401721551895443  1.0000
  S   S31       1.0  0.19235903722381673  0.3066615209781228  0.29009675513755234  1.0000
  S   S32       1.0  0.1574964896340443  0.26599404021216727  0.36876302622422236  1.0000
  Fe  Fe17      1.0  0.14762006268172176  0.6815993153088207  0.3193316969188453  1.0000
  S   S33       1.0  0.12258387035704668  0.6973822034046734  0.3854539368494191  1.0000
  S   S34       1.0  0.19133033311597664  0.6948177585955746  0.2990623885081951  1.0000
  Fe  Fe18      1.0  0.10343442543063704  0.6407162269633928  0.2897185675403931  1.0000
  S   S35       1.0  0.07432464329568589  0.652552789624604  0.35313319200246285  1.0000
  S   S36       1.0  0.09102434357992632  0.6128035873275747  0.2265407954116068  1.0000
  Fe  Fe19      1.0  0.08568758855797465  0.6955312369456534  0.332112092103418  1.0000
  S   S37       1.0  0.055616426576488465  0.7309057317801426  0.32052696158929067  1.0000
  Fe  Fe20      1.0  0.11339798982060856  0.6531675768030513  0.4008050905417522  1.0000
  S   S38       1.0  0.11643937534629627  0.6349095521020811  0.47957812637196845  1.0000
  S   S39       1.0  0.11169086513663576  0.6834962923235556  0.26455538447913696  1.0000
  S   S40       1.0  0.14168212840945035  0.6375844214743707  0.3389068030738113  1.0000
  Fe  Fe21      1.0  0.9002023068387842  0.7309615351950403  0.278681597222227  1.0000
  S   S41       1.0  0.9107661375375639  0.7737885897337148  0.8016827376064893  1.0000
  S   S42       1.0  0.9311021102656218  0.6967096933377118  0.27002415708862704  1.0000
  Fe  Fe22      1.0  0.8530793227656457  0.754147232100035  0.34377067830842845  1.0000
  S   S43       1.0  0.8445944459478509  0.7886060855424336  0.2891637017832048  1.0000
  S   S44       1.0  0.8320306932492758  0.7483700526979771  0.4199881017119443  1.0000
  Fe  Fe23      1.0  0.8643607482839065  0.7809269494620577  0.7991709845648753  1.0000
  S   S45       1.0  0.8436264654788977  0.77821990698487  0.7227122227783905  1.0000
  Fe  Fe24      1.0  0.8914282290141041  0.7920215299455118  0.2847851366708552  1.0000
  S   S46       1.0  0.908566423000667  0.8345235586040679  0.2812235491307525  1.0000
  S   S47       1.0  0.8542208396017177  0.7218660595334666  0.28357021276649813  1.0000
  S   S48       1.0  0.8997890270102852  0.7599795429898428  0.34423708565905026  1.0000
  Fe  Fe25      1.0  0.2891150433093799  0.8205766545773322  0.24891812944373365  1.0000
  S   S49       1.0  0.29792647891978763  0.8649728209746672  0.23552624318899018  1.0000
  S   S50       1.0  0.31315213544806253  0.7928555715169716  0.3020273375598098  1.0000
  Fe  Fe26      1.0  0.23546471137209757  0.8223907417865005  0.18655767691654135  1.0000
  S   S51       1.0  0.2399414398316177  0.8665496023964836  0.16721474910231882  1.0000
  S   S52       1.0  0.19619110032206086  0.8012483063970453  0.16367189807474758  1.0000
  Fe  Fe27      1.0  0.28527635268374096  0.8558064108491531  0.15497922882967297  1.0000
  S   S53       1.0  0.2688315382794862  0.802775490458083  0.5218226385925203  1.0000
  Fe  Fe28      1.0  0.2518259911217824  0.8709270053469573  0.2492004832410491  1.0000
  S   S54       1.0  0.23251000500971766  0.9026026308140515  0.29983404022002275  1.0000
  S   S55       1.0  0.27982201894256303  0.8108406098116535  0.1671533891431749  1.0000
  S   S56       1.0  0.2440452338991077  0.8274057757406018  0.2696515972681117  1.0000
  Fe  Fe29      1.0  0.06704475891184805  0.9461055227750247  0.4391221530319662  1.0000
  S   S57       1.0  0.07455338463331768  0.9573931618042659  0.3567850049031001  1.0000
  S   S58       1.0  0.08824875915932034  0.9668241482339217  0.5051793433090861  1.0000
  Fe  Fe30      1.0  0.02689527674648806  0.9006105609850239  0.4135720762325917  1.0000
  S   S59       1.0  0.03026829594564728  0.9084958386399656  0.3298833862743131  1.0000
  S   S60       1.0  0.003059320263689269  0.8637859399138648  0.44028196136421327  1.0000
  Fe  Fe31      1.0  0.07619707547975049  0.9123430219878949  0.3437642769732255  1.0000
  S   S61       1.0  0.1012438550129636  0.8890792907341792  0.28602113817329833  1.0000
  Fe  Fe32      1.0  0.02788180343778168  0.9525783672513345  0.3499792260896571  1.0000
  S   S62       1.0  0.0023411927991117136  0.9791897743623569  0.2975634337507845  1.0000
  S   S63       1.0  0.07337947718060861  0.9012219259595462  0.42649748370267393  1.0000
  S   S64       1.0  0.019908564944273177  0.944634831771992  0.43321705528179555  1.0000
  Fe  Fe33      1.0  0.5481398686307412  0.024697838071773948  0.44683222733692846  1.0000
  S   S65       1.0  0.5944299252526483  0.020272514489472204  0.4605800132437646  1.0000
  S   S66       1.0  0.5334943732496339  0.047106015225481856  0.37632310734987406  1.0000
  Fe  Fe34      1.0  0.5333998304994712  0.991294408230406  0.541635091240419  1.0000
  S   S67       1.0  0.5785176416791422  0.9836019303839014  0.5611628398774922  1.0000
  S   S68       1.0  0.5027700174691926  0.979145658599505  0.6025154050725501  1.0000
  Fe  Fe35      1.0  0.5837987333465156  0.02776409207426145  0.5424013097621233  1.0000
  S   S69       1.0  0.6043959454024499  0.05598814900190541  0.5974320000409344  1.0000
  Fe  Fe36      1.0  0.5838924760932522  0.9768604776726824  0.47712500167877514  1.0000
  S   S70       1.0  0.6107094125085258  0.9448208935021627  0.44057914870738873  1.0000
  S   S71       1.0  0.5382710261271487  0.036039804830540145  0.5274353149892292  1.0000
  S   S72       1.0  0.5380688141741381  0.9804270155469776  0.45894401098280596  1.0000
  Fe  Fe37      1.0  0.6445787972919771  0.8223509522961573  0.5954005855579071  1.0000
  S   S73       1.0  0.6508273859652115  0.7920956484150706  0.6584921735832895  1.0000
  S   S74       1.0  0.6049348235938378  0.8470842442256874  0.5953502674406861  1.0000
  Fe  Fe38      1.0  0.6981003706241183  0.805641823418211  0.5406932429641021  1.0000
  S   S75       1.0  0.7091050363315125  0.7736145734363373  0.599292938322615  1.0000
  S   S76       1.0  0.720379171288166  0.8146921979166122  0.46658825014910077  1.0000
  Fe  Fe39      1.0  0.6634689882562635  0.7634477707381585  0.5966829470917505  1.0000
  S   S77       1.0  0.646500765737328  0.7211598918141955  0.5950123514994083  1.0000
  Fe  Fe40      1.0  0.6956321371695569  0.8054955046491004  0.6558386926882814  1.0000
  S   S78       1.0  0.7160172713310401  0.8129375143786173  0.7315306047570869  1.0000
  S   S79       1.0  0.6532519627685658  0.7925342143883718  0.5333495213003471  1.0000
  S   S80       1.0  0.6883916426296276  0.8385079535005864  0.5977106747469043  1.0000
  Fe  Fe41      1.0  0.6165386336854051  0.6598602217940294  0.34192951331184057  1.0000
  S   S81       1.0  0.5973145689951878  0.6639381822866485  0.2644618653935975  1.0000
  S   S82       1.0  0.6512634950000659  0.6881399985738514  0.36350007409996393  1.0000
  Fe  Fe42      1.0  0.5819138738325875  0.6100878303655008  0.3689059665140092  1.0000
  S   S83       1.0  0.5596754274370608  0.6097863119494048  0.29391885272960455  1.0000
  S   S84       1.0  0.5712109204289311  0.581766863250723  0.4329844504359207  1.0000
  Fe  Fe43      1.0  0.6024989301143877  0.6185601593865295  0.2615864422748021  1.0000
  S   S85       1.0  0.624455627769785  0.5978928176570916  0.19651609636025502  1.0000
  Fe  Fe44      1.0  0.5567316231054695  0.6551476614739851  0.30428432135060335  1.0000
  S   S86       1.0  0.5178129966925193  0.680634277966759  0.293218593057622  1.0000
  S   S87       1.0  0.6250583597179732  0.6152160471930038  0.3362714196512231  1.0000
  S   S88       1.0  0.575551593956017  0.6545380712546278  0.38248124268667955  1.0000
  Fe  Fe45      1.0  0.4802415701166373  0.7800008160649234  0.5044479033636615  1.0000
  S   S89       1.0  0.4839697304857479  0.824852647301496  0.4898858464240208  1.0000
  S   S90       1.0  0.5181671447855991  0.7541016973221649  0.48807622672419987  1.0000
  Fe  Fe46      1.0  0.42308736389071044  0.7859477432151436  0.5552103619323067  1.0000
  S   S91       1.0  0.42213371492536667  0.8312479972991171  0.5450653570266301  1.0000
  S   S92       1.0  0.38883980491450115  0.7672070840641879  0.6020478499398048  1.0000
  Fe  Fe47      1.0  0.4386049996948665  0.8219784702058469  0.46668240991658455  1.0000
  S   S93       1.0  0.4224258671243424  0.8440291444378528  0.3969432698803238  1.0000
  Fe  Fe48      1.0  0.46727007356565664  0.8293482263102507  0.5692131136828993  1.0000
  S   S94       1.0  0.4855379443749184  0.8528985651324908  0.6341408469673029  1.0000
  S   S95       1.0  0.4362720609879462  0.7764040303138439  0.47496376297408444  1.0000
  S   S96       1.0  0.46681667769177326  0.784622623924541  0.5856484238404994  1.0000
  Fe  Fe49      1.0  0.6465193864186336  0.41381850622785815  0.5822020418791689  1.0000
  S   S97       1.0  0.6376710118570763  0.3998945025387868  0.5023603390240279  1.0000
  S   S98       1.0  0.6823175532284003  0.40235259905225207  0.6335410922741804  1.0000
  Fe  Fe50      1.0  0.5929947124528294  0.44692946637934455  0.5901421956001582  1.0000
  S   S99       1.0  0.5788852964571327  0.43609733264987216  0.5117891667505264  1.0000
  S   S100      1.0  0.566649085714694  0.4723774118444671  0.6428886163148132  1.0000
  Fe  Fe51      1.0  0.5937067023806948  0.39390704942765375  0.5310000537125382  1.0000
  S   S101      1.0  0.5674065081260095  0.35703329208026174  0.5160637485217038  1.0000
  Fe  Fe52      1.0  0.623712216231485  0.44335372038831833  0.4893197911510224  1.0000
  S   S102      1.0  0.633916117093797  0.4681702697265474  0.4192006303298368  1.0000
  S   S103      1.0  0.6036686115045132  0.40401907517816776  0.6120097613401447  1.0000
  S   S104      1.0  0.6368063368392862  0.45769658096122423  0.5666500269371522  1.0000
  Fe  Fe53      1.0  0.7521964864668913  0.23838124138012387  0.6062054756099512  1.0000
  S   S105      1.0  0.7744127996332669  0.24991862418548774  0.5336500390618334  1.0000
  S   S106      1.0  0.7139726643441688  0.21155785723511333  0.6022951010875378  1.0000
  Fe  Fe54      1.0  0.7916425727589027  0.2712309673930613  0.6717380002662752  1.0000
  S   S107      1.0  0.8161352550228502  0.2866695728813776  0.6046836684901707  1.0000
  S   S108      1.0  0.8048608893231716  0.2780410365850254  0.7529916266893281  1.0000
  Fe  Fe55      1.0  0.774698005462803  0.29183519525418583  0.5666070421945814  1.0000
  S   S109      1.0  0.7664276355982463  0.32738168545674384  0.5146661377109794  1.0000
  Fe  Fe56      1.0  0.8141740388879531  0.24360092781346207  0.5779618967387824  1.0000
  S   S110      1.0  0.8529026292214  0.22373587776584394  0.5452262311448518  1.0000
  S   S111      1.0  0.7497330874903011  0.28099579749665826  0.6364344516356144  1.0000
  S   S112      1.0  0.7921301277433962  0.22752817182475116  0.6472435767458621  1.0000
  Fe  Fe57      1.0  0.5705779868846815  0.23677113720946852  0.7002732975776171  1.0000
  S   S113      1.0  0.5348259501012618  0.2365252243989483  0.6453378714473296  1.0000
  S   S114      1.0  0.6048933197613318  0.2675542639208483  0.692509236379583  1.0000
  Fe  Fe58      1.0  0.5465430768928211  0.19044703040872313  0.763718141700001  1.0000
  S   S115      1.0  0.50836508338165  0.1866061117936461  0.7142512165792411  1.0000
  S   S116      1.0  0.5492030325374746  0.1649901329645593  0.8352875054670534  1.0000
  Fe  Fe59      1.0  0.5391676093616737  0.1911428251402183  0.6498647189591209  1.0000
  S   S117      1.0  0.5380253690829582  0.16718015168367134  0.5774018774125219  1.0000
  Fe  Fe60      1.0  0.5077676845594823  0.23231640778017829  0.7148989430305512  1.0000
  S   S118      1.0  0.47062721913910516  0.2599785615273464  0.7282560674100025  1.0000
  S   S119      1.0  0.5776437176379408  0.19163944073662328  0.6991063547666747  1.0000
  S   S120      1.0  0.5433432993829249  0.2358888492257183  0.7699350655240439  1.0000
  Fe  Fe61      1.0  0.4139700733533686  0.3828761308422758  0.49349743751432823  1.0000
  S   S121      1.0  0.3997462281808799  0.348234761126239  0.445560164956247  1.0000
  S   S122      1.0  0.4495483860063861  0.4076137135880507  0.46188410762135623  1.0000
  Fe  Fe62      1.0  0.36719916757222343  0.37460128851943575  0.5705865031400389  1.0000
  S   S123      1.0  0.3486331122036384  0.33977916936215113  0.5274204401876657  1.0000
  S   S124      1.0  0.3468633317408041  0.38803940799698394  0.643888311311461  1.0000
  Fe  Fe63      1.0  0.39330936699489233  0.3261303941905081  0.5191581200548937  1.0000
  S   S125      1.0  0.4050836921151864  0.2818950995796579  0.5229569885720883  1.0000
  Fe  Fe64      1.0  0.35671293647589053  0.36543573976215843  0.45827565816077437  1.0000
  S   S126      1.0  0.32860389881550706  0.36894550798955555  0.39014365865041306  1.0000
  S   S127      1.0  0.4117420673157276  0.3592586719980907  0.5670618044223865  1.0000
  S   S128      1.0  0.371149791732277  0.4017769339353486  0.5015929443497442  1.0000
  C   C1        1.0  0.4515364334460934  0.2650593122354416  0.6718951732386019  1.0000
  C   C2        1.0  0.4325700441201283  0.2869281396993355  0.6683533004463176  1.0000
  C   C3        1.0  0.41795110692947257  0.29184676660870673  0.6228472586211492  1.0000
  C   C4        1.0  0.42230104387842804  0.2749520939731228  0.580736635596102  1.0000
  C   C5        1.0  0.44096300927233717  0.25282455009093663  0.5845360473251107  1.0000
  C   C6        1.0  0.4557330895068471  0.24797674900731304  0.6300120481041991  1.0000
  H   H1        1.0  0.4294897264192843  0.30034579830265806  0.7004574788500549  1.0000
  H   H2        1.0  0.40312783851961215  0.308580009264564  0.6205132464866622  1.0000
  H   H3        1.0  0.4443253292875957  0.23967476967887275  0.5520859170095662  1.0000
  H   H4        1.0  0.47023938708617213  0.2309347717007002  0.6326528132130864  1.0000
  C   C7        1.0  0.6838001540231485  0.2269018345027199  0.6284370832559155  1.0000
  C   C8        1.0  0.6572426697544389  0.21923130591637927  0.6110299508648699  1.0000
  C   C9        1.0  0.6328828939335472  0.2312255036359887  0.6315349266490279  1.0000
  C   C10       1.0  0.6351124508282645  0.2515900134040905  0.6683564708717763  1.0000
  C   C11       1.0  0.6616338044448205  0.2595172314686462  0.6853275601161831  1.0000
  C   C12       1.0  0.68591300382596  0.246843648611873  0.6660373997537676  1.0000
  H   H5        1.0  0.6555129439084296  0.20462610498146813  0.5805849856101185  1.0000
  H   H6        1.0  0.6124133477959686  0.2253257693008086  0.617751669987063  1.0000
  H   H7        1.0  0.6633961498881746  0.2749883019565219  0.7143591929437485  1.0000
  H   H8        1.0  0.7061730570658172  0.25208819582397246  0.6812523391756771  1.0000
  C   C13       1.0  0.7093729862992104  0.3856294890104907  0.6007251473043466  1.0000
  C   C14       1.0  0.727730752147527  0.3684451408966512  0.6276371523914763  1.0000
  C   C15       1.0  0.7466531517995776  0.3516739040495865  0.6011918595053445  1.0000
  C   C16       1.0  0.7472876729499842  0.35218524826486786  0.5479010973749399  1.0000
  C   C17       1.0  0.730432337446205  0.37087230300213486  0.5211558438677203  1.0000
  C   C18       1.0  0.7112725519018119  0.38746556421385103  0.5475934402722317  1.0000
  H   H9        1.0  0.726532229870605  0.36723435801590654  0.6688059611249481  1.0000
  H   H10       1.0  0.7603844520425633  0.33799791104010224  0.622073182181456  1.0000
  H   H11       1.0  0.7312192194320647  0.371596152065688  0.4799150844627655  1.0000
  H   H12       1.0  0.6976693055587021  0.40129737034239865  0.5267757716375718  1.0000
  C   C19       1.0  0.4818468927329885  0.3905527975527898  0.46902241011469314  1.0000
  C   C20       1.0  0.4836800819192657  0.3662302235750659  0.49700291645586137  1.0000
  C   C21       1.0  0.5100633778050456  0.35472420463778387  0.5081583655347257  1.0000
  C   C22       1.0  0.534620037879717  0.3678188989874643  0.4922631058724341  1.0000
  C   C23       1.0  0.5326434593835899  0.39091793981021844  0.4609006255067899  1.0000
  C   C24       1.0  0.5062753376286041  0.4022176020549268  0.44906368219240855  1.0000
  H   H13       1.0  0.4648516917733495  0.35656840155629677  0.5110263238804008  1.0000
  H   H14       1.0  0.5113574528408177  0.336222447533174  0.5304696668972627  1.0000
  H   H15       1.0  0.5514714336830844  0.4001345729495009  0.44581598983186854  1.0000
  H   H16       1.0  0.5049336024201712  0.4204736750139094  0.4258068153932768  1.0000
  C   C25       1.0  0.6043067761541007  0.5709160460881018  0.17360994388648243  1.0000
  C   C26       1.0  0.6176207450371155  0.548550443595924  0.15080895966700325  1.0000
  C   C27       1.0  0.6015828992982751  0.5275366374459087  0.1299922852485802  1.0000
  C   C28       1.0  0.5722242416094165  0.5293632304551947  0.1302345088328971  1.0000
  C   C29       1.0  0.5589459751611835  0.5516276409004063  0.1533610123786069  1.0000
  C   C30       1.0  0.5749670525375093  0.5723195594435494  0.17527039694781488  1.0000
  H   H17       1.0  0.6403107766002217  0.5475717248856724  0.14897494197696437  1.0000
  H   H18       1.0  0.6001389676113565  0.5011811425921974  0.5697907696929051  1.0000
  H   H19       1.0  0.5362407927603159  0.5531169107954137  0.15355994621647984  1.0000
  H   H20       1.0  0.5645456955359857  0.589870740704315  0.19153862774775665  1.0000
  C   C31       1.0  0.5874639121617622  0.5498215125047986  0.4262983843974677  1.0000
  C   C32       1.0  0.6057416837748231  0.5444111812481764  0.3855993365314662  1.0000
  C   C33       1.0  0.6200860874989571  0.5193011026307316  0.3831847430612206  1.0000
  C   C34       1.0  0.6156477576676851  0.4994047511661116  0.4208472210112266  1.0000
  C   C35       1.0  0.596773838921296  0.5046640108931674  0.46043802550648694  1.0000
  C   C36       1.0  0.5828650958734007  0.52984675490054  0.46345452338058807  1.0000
  H   H21       1.0  0.6089442304440461  0.5595456977822814  0.35614037596842074  1.0000
  H   H22       1.0  0.6346653238833476  0.5154213642993801  0.3524133860377122  1.0000
  H   H23       1.0  0.5930785170964592  0.48934375093430504  0.48899427326596695  1.0000
  H   H24       1.0  0.568736645208016  0.533976385769283  0.49489260830200005  1.0000
  C   C37       1.0  0.5174272329373182  0.7047861985979993  0.34207861823666996  1.0000
  C   C38       1.0  0.5427967866730102  0.7132624801825146  0.36325154124565684  1.0000
  C   C39       1.0  0.5428011445924558  0.7290093319344554  0.40749827013271206  1.0000
  C   C40       1.0  0.5173897784491349  0.7372125242294674  0.4296081057332509  1.0000
  C   C41       1.0  0.49192779626524546  0.7301967240218852  0.40676466392599864  1.0000
  C   C42       1.0  0.49194616974403954  0.7138551229631873  0.3629869142569898  1.0000
  H   H25       1.0  0.5624986763669488  0.7073260393882888  0.34583677609463237  1.0000
  H   H26       1.0  0.5625278946721333  0.7346514028280304  0.4247545593558799  1.0000
  H   H27       1.0  0.4722505578706509  0.7362259797044701  0.424072541907618  1.0000
  H   H28       1.0  0.47229701200603164  0.7072294714531682  0.34674557951605134  1.0000
  C   C43       1.0  0.6497579537823741  0.7099754266053815  0.5320405447088327  1.0000
  C   C44       1.0  0.6324199907061033  0.6892994998730053  0.5141325019426237  1.0000
  C   C45       1.0  0.6329120991159263  0.6823370342433708  0.46235641234790176  1.0000
  C   C46       1.0  0.6514088048860226  0.6954149174897725  0.4288553860318046  1.0000
  C   C47       1.0  0.6699552209007773  0.7148773098038381  0.4475124638672563  1.0000
  C   C48       1.0  0.6688201990343344  0.7225119056201655  0.49886169821650483  1.0000
  H   H29       1.0  0.6182571616451794  0.6791569527386461  0.5401389110243706  1.0000
  H   H30       1.0  0.6190852734979108  0.6668470719965764  0.44849280490579496  1.0000
  H   H31       1.0  0.6849730092350643  0.7243266562256349  0.42215548263185265  1.0000
  H   H32       1.0  0.6828464676996152  0.7380075328415767  0.5127598994186974  1.0000
  C   C49       1.0  0.558311893553374  0.07109528574877211  0.35596595067637665  1.0000
  C   C50       1.0  0.5796293869559871  0.0791160052269344  0.3889395433102261  1.0000
  C   C51       1.0  0.6004502341795717  0.09704696545773817  0.37220393448716727  1.0000
  C   C52       1.0  0.5998745016211519  0.10731784612446708  0.3223985518470441  1.0000
  C   C53       1.0  0.5782759457940752  0.09974666968288343  0.289346686220657  1.0000
  C   C54       1.0  0.557451840755307  0.08163113481275897  0.30619379987129075  1.0000
  H   H33       1.0  0.5798401685121197  0.07185524280058608  0.427695650789221  1.0000
  H   H34       1.0  0.6169334582966713  0.1031101721694131  0.3980298612635032  1.0000
  H   H35       1.0  0.5776919116329791  0.10770065031839218  0.25078851173481  1.0000
  H   H36       1.0  0.5408564904593495  0.07564350989691615  0.28054541944396616  1.0000
  C   C55       1.0  0.5857218178850538  0.0867455485477322  0.5928622554602401  1.0000
  C   C56       1.0  0.5803737954051758  0.10237497451362843  0.6362853532193549  1.0000
  C   C57       1.0  0.5648282638615035  0.12673687371767228  0.6321869943832223  1.0000
  C   C58       1.0  0.5551766552336062  0.13567094394007342  0.5844589424951284  1.0000
  C   C59       1.0  0.5600833446343747  0.11968859511721974  0.541405646756556  1.0000
  C   C60       1.0  0.5753347399662808  0.09528908094280886  0.5456370969066996  1.0000
  H   H37       1.0  0.5880095136828619  0.09557875594070214  0.673000985353609  1.0000
  H   H38       1.0  0.5603543358769715  0.13855987026213049  0.6658786940510909  1.0000
  H   H39       1.0  0.5521170653980992  0.12614675839863332  0.5047507796985211  1.0000
  H   H40       1.0  0.5793002319885281  0.08313264998792058  0.5122155010341685  1.0000
  C   C61       1.0  0.4985832472773402  0.9438948595974879  0.6096633478244959  1.0000
  C   C62       1.0  0.49348194910130233  0.9332744086829323  0.6584029674236194  1.0000
  C   C63       1.0  0.49038507656149954  0.9051913001812433  0.6654641598990894  1.0000
  C   C64       1.0  0.49095246467294895  0.8877237974243951  0.6235563683074589  1.0000
  C   C65       1.0  0.49580823707836563  0.898249745670987  0.5746102559377432  1.0000
  C   C66       1.0  0.5002435036561479  0.9263562085578787  0.5677990579465922  1.0000
  H   H41       1.0  0.4924356323326942  0.946722197085969  0.690968693583229  1.0000
  H   H42       1.0  0.48734972533251464  0.8970453537947485  0.7034924167795282  1.0000
  H   H43       1.0  0.49653115287907  0.8847480152423677  0.5421557225088164  1.0000
  H   H44       1.0  0.504218849883392  0.9345282266300514  0.53005762799234  1.0000
  C   C67       1.0  0.6077163199448875  0.9152566750996194  0.4777087914967941  1.0000
  C   C68       1.0  0.583139041537247  0.9105821927938286  0.5056709232760705  1.0000
  C   C69       1.0  0.5816805950666826  0.8883047130871483  0.539215099221263  1.0000
  C   C70       1.0  0.6051455473000729  0.8713608347551863  0.5462192522486736  1.0000
  C   C71       1.0  0.6292882034061252  0.8752976051833059  0.5166543799330501  1.0000
  C   C72       1.0  0.6304761432928888  0.8971547432112374  0.48199691280388296  1.0000
  H   H45       1.0  0.5653402262139213  0.9243066843361629  0.501888247898752  1.0000
  H   H46       1.0  0.5626979322525577  0.8848256172300264  0.5609556957063444  1.0000
  H   H47       1.0  0.647391619028466  0.8621045467904869  0.5215731374004241  1.0000
  H   H48       1.0  0.6495020136439685  0.9007906965509214  0.460406566623759  1.0000
  C   C73       1.0  0.3024353537139394  0.7931988332262327  0.5433983948798219  1.0000
  C   C74       1.0  0.30644082483902463  0.7868173240155901  0.5949019067579666  1.0000
  C   C75       1.0  0.33287070723976364  0.7785253825970377  0.6125662552763735  1.0000
  C   C76       1.0  0.3557422862287594  0.7773087507907518  0.5791187296895743  1.0000
  C   C77       1.0  0.3520119771477983  0.7842463209563705  0.5277578631860949  1.0000
  C   C78       1.0  0.3252863182944657  0.7918617689445379  0.5096881093790359  1.0000
  H   H49       1.0  0.2891702336964328  0.7880930928096589  0.6214112027590947  1.0000
  H   H50       1.0  0.33540910960443737  0.7733758773302113  0.652290845274324  1.0000
  H   H51       1.0  0.3696233304126587  0.7830791402070016  0.501863096089923  1.0000
  H   H52       1.0  0.3224743336367056  0.7965203063554832  0.46975097300085594  1.0000
  C   C79       1.0  0.3433011762711551  0.8074747991981129  0.32824677665311336  1.0000
  C   C80       1.0  0.354909951628763  0.8311493880260812  0.30731436513960675  1.0000
  C   C81       1.0  0.37893596607710567  0.8426090012465527  0.3291111342355424  1.0000
  C   C82       1.0  0.3914255721637485  0.8304126437014161  0.37190313494928445  1.0000
  C   C83       1.0  0.379730873832818  0.806830874960026  0.39282278222022965  1.0000
  C   C84       1.0  0.35580523174641104  0.7952918936207021  0.37096482901517275  1.0000
  H   H53       1.0  0.34600842150106986  0.8402005563193038  0.2734195546717735  1.0000
  H   H54       1.0  0.3880505068003141  0.8607520261478894  0.31242729836322986  1.0000
  H   H55       1.0  0.3891844314231234  0.7973875712165136  0.4257231918178735  1.0000
  H   H56       1.0  0.3469620817524626  0.7769494564170658  0.387360008273097  1.0000
  C   C85       1.0  0.19603256950244016  0.897779248273631  0.2999164602872648  1.0000
  C   C86       1.0  0.18444974622047877  0.8771050845006312  0.27032362389729736  1.0000
  C   C87       1.0  0.15530451846912682  0.8742986885573263  0.26712923925125603  1.0000
  C   C88       1.0  0.13756344927991582  0.8919567124922838  0.29394681801905853  1.0000
  C   C89       1.0  0.14899172269675157  0.9122520695756927  0.3246759269735515  1.0000
  C   C90       1.0  0.17829309526986273  0.9152381782534469  0.32747355494282376  1.0000
  H   H57       1.0  0.19780171285464318  0.8635482828155134  0.24880150614074067  1.0000
  H   H58       1.0  0.14652573209331984  0.858497881833095  0.24348833141809587  1.0000
  H   H59       1.0  0.13529155687612143  0.9259625244118499  0.3454791133826299  1.0000
  H   H60       1.0  0.18714733887910415  0.9312821308796418  0.35037625564611  1.0000
  C   C91       1.0  0.8085301893917857  0.7889030151919012  0.7251203472107448  1.0000
  C   C92       1.0  0.7931431441539202  0.7917077753205405  0.6799812856881281  1.0000
  C   C93       1.0  0.7649051880301647  0.7999602958125621  0.6817270403923585  1.0000
  C   C94       1.0  0.7519039104148753  0.8048801243109598  0.7286620906329457  1.0000
  C   C95       1.0  0.7673257971034845  0.8021496840594519  0.7737821404874848  1.0000
  C   C96       1.0  0.7957016634544418  0.7943893875520187  0.771955074911434  1.0000
  H   H61       1.0  0.8031348867232644  0.787663464441119  0.643659101738814  1.0000
  H   H62       1.0  0.753372887903705  0.8026982461192337  0.6466592599167811  1.0000
  H   H63       1.0  0.7573516173281508  0.805678446985877  0.8101452605285541  1.0000
  H   H64       1.0  0.8076925555308389  0.7923928147862848  0.8066574826434479  1.0000
  C   C97       1.0  0.800645948123928  0.7664286739701145  0.43176772095805765  1.0000
  C   C98       1.0  0.7883338329128363  0.7830894757480006  0.3944010397149926  1.0000
  C   C99       1.0  0.763769129029288  0.7979664269156262  0.4055532898607216  1.0000
  C   C100      1.0  0.7513112427290192  0.7960623251240423  0.45393987313041867  1.0000
  C   C101      1.0  0.7635986285218755  0.77935537245796  0.4912003521429289  1.0000
  C   C102      1.0  0.7882104500003615  0.764585816168636  0.4801309033436309  1.0000
  H   H65       1.0  0.7975791189525483  0.7844409799696965  0.35690663788216426  1.0000
  H   H66       1.0  0.7544217903307778  0.810957431747763  0.37662720768410435  1.0000
  H   H67       1.0  0.7544201355678668  0.7780183097630752  0.5287433301824129  1.0000
  H   H68       1.0  0.7977039715906252  0.7517819071234569  0.5092369988309722  1.0000
  C   C103      1.0  0.9348719152700747  0.8422339737313226  0.3256716959702701  1.0000
  C   C104      1.0  0.944606312304706  0.8690205582656568  0.32882276434958657  1.0000
  C   C105      1.0  0.9653454651686242  0.8757734074502747  0.36436973967930336  1.0000
  C   C106      1.0  0.9762743804780027  0.8557906400792838  0.3971842924197437  1.0000
  C   C107      1.0  0.9664335096738252  0.8290238073758065  0.39436197011808327  1.0000
  C   C108      1.0  0.9459821740178896  0.8222013108230333  0.3582661722540397  1.0000
  H   H69       1.0  0.936045205293931  0.884632050054776  0.3038410580313802  1.0000
  H   H70       1.0  0.9725523795873742  0.8965714606989188  0.366864756838945  1.0000
  H   H71       1.0  0.9750003413563016  0.8134502418824456  0.41940653994428  1.0000
  H   H72       1.0  0.9391789126342944  0.8013973898980038  0.3552679229209903  1.0000
  C   C109      1.0  0.19205662873737714  0.723467580324628  0.258911846124935  1.0000
  C   C110      1.0  0.2179474955134294  0.7330726217753123  0.2413851518501376  1.0000
  C   C111      1.0  0.2192108139890009  0.7570321134472355  0.21216129998264632  1.0000
  C   C112      1.0  0.19446340390740474  0.7708405266351822  0.19872542202257626  1.0000
  C   C113      1.0  0.16847745758077082  0.7608430737959996  0.21505369594163626  1.0000
  C   C114      1.0  0.167303981859035  0.7373839470285363  0.2458647488158821  1.0000
  H   H73       1.0  0.2370775401512679  0.7221119290626877  0.2507224053062361  1.0000
  H   H74       1.0  0.23931827794340754  0.7646240288039936  0.199393338911412  1.0000
  H   H75       1.0  0.1493476383650738  0.7716784979667313  0.20507709450339595  1.0000
  H   H76       1.0  0.14729621826992692  0.730421480921658  0.2600823285115753  1.0000
  C   C115      1.0  0.02081802772866226  0.7215394662898198  0.30707042497546316  1.0000
  C   C116      1.0  0.0012246135839093508  0.7413549840909588  0.2912627572022901  1.0000
  C   C117      1.0  0.9733741179432254  0.7340088583448858  0.28076120817041456  1.0000
  C   C118      1.0  0.9652718566004697  0.7067334449193946  0.28506756205115347  1.0000
  C   C119      1.0  0.9848470933784667  0.6869847878391502  0.3003779691017618  1.0000
  C   C120      1.0  0.012478145831731569  0.6944015107964214  0.31155311793385776  1.0000
  H   H77       1.0  0.007518768269956455  0.7623248506607049  0.286610819298265  1.0000
  H   H78       1.0  0.9583058088050618  0.749336675218801  0.2685986934628265  1.0000
  H   H79       1.0  0.9784822154350511  0.6659484468414354  0.3044437454034652  1.0000
  H   H80       1.0  0.027096689751897607  0.6790680572356911  0.32423736783384943  1.0000
  C   C121      1.0  0.2457629886356534  0.32598785717683676  0.42072166931462557  1.0000
  C   C122      1.0  0.2551160362506054  0.330047978123772  0.37069239573633606  1.0000
  C   C123      1.0  0.2800155626426257  0.34432543332991217  0.36134126493898966  1.0000
  C   C124      1.0  0.29593053882800785  0.35397391879403717  0.40205951162256015  1.0000
  C   C125      1.0  0.28623761499140676  0.35046821830284147  0.45204722877129944  1.0000
  C   C126      1.0  0.26113062119676816  0.3365119186305005  0.4613461079981646  1.0000
  H   H81       1.0  0.24323067436583104  0.3222154199935377  0.33918803361686556  1.0000
  H   H82       1.0  0.2872570216178763  0.34740558691935025  0.32260053206628336  1.0000
  H   H83       1.0  0.2979751337645565  0.35870696210554814  0.48343449409832284  1.0000
  H   H84       1.0  0.25378764134369236  0.3334000297778237  0.49994688251664954  1.0000
  C   C127      1.0  0.30444614190428404  0.31563004240967035  0.7203207860157376  1.0000
  C   C128      1.0  0.32454281328325435  0.3113916357840834  0.6821195713163081  1.0000
  C   C129      1.0  0.33887768122889744  0.33351834793142243  0.6607619244323523  1.0000
  C   C130      1.0  0.33291805169974586  0.36002277289806106  0.6769561933918302  1.0000
  C   C131      1.0  0.31401086865751393  0.36415417275557926  0.7172634494432159  1.0000
  C   C132      1.0  0.2996486056982542  0.3419548477493731  0.7387718103231494  1.0000
  H   H85       1.0  0.3287786059812332  0.2909882760165668  0.6684363863987456  1.0000
  H   H86       1.0  0.35440483630803943  0.3300097049335729  0.6314758369514958  1.0000
  H   H87       1.0  0.3098073240781685  0.38459271087499075  0.7307351388032427  1.0000
  H   H88       1.0  0.2846523657046414  0.3453090408441358  0.7690311232133477  1.0000
  C   C133      1.0  0.07753231206195425  0.0010793402157982523  0.5094980353849553  1.0000
  C   C134      1.0  0.08760518128738501  0.017756539522672643  0.548509097815142  1.0000
  C   C135      1.0  0.07884936969972857  0.045157279643962545  0.551487494535056  1.0000
  C   C136      1.0  0.06053242298385286  0.05600168353108938  0.5147601450729515  1.0000
  C   C137      1.0  0.05070132009809236  0.039326639303919116  0.4756616448967652  1.0000
  C   C138      1.0  0.05890240390071244  0.011867652768950299  0.4735532027696546  1.0000
  H   H89       1.0  0.10214170966433313  0.009545645279609438  0.5764056770631314  1.0000
  H   H90       1.0  0.08657440168686152  0.057926834155105175  0.5817822158515472  1.0000
  H   H91       1.0  0.03651057200025987  0.04742602551252295  0.4472078706480003  1.0000
  H   H92       1.0  0.050776092867219624  0.9988353185597609  0.4442752061400083  1.0000
  C   C139      1.0  0.03926911724781923  0.06441094578972768  0.28904413870694934  1.0000
  C   C140      1.0  0.046058018449953046  0.04708801169311472  0.32983555030096035  1.0000
  C   C141      1.0  0.03481045785868497  0.020810713265941416  0.33218836930400647  1.0000
  C   C142      1.0  0.016305560309217922  0.012025668703657288  0.29461209433910485  1.0000
  C   C143      1.0  0.009114689540026477  0.029492844077255054  0.2543396125217516  1.0000
  C   C144      1.0  0.020938483547972897  0.0554932769436651  0.2511808049784149  1.0000
  H   H93       1.0  0.11113731114631924  0.04674293856535039  0.8433890626594592  1.0000
  H   H94       1.0  0.04019998770477806  0.007348558895621915  0.36324365591557556  1.0000
  H   H95       1.0  0.9946624064610305  0.02288490332685278  0.22524443005916317  1.0000
  H   H96       1.0  0.015617838548800833  0.06860028462241406  0.21954998027411543  1.0000
  C   C145      1.0  0.1588994466250721  0.1742205117377939  0.27946129528906893  1.0000
  C   C146      1.0  0.13601685801358013  0.15712775065182935  0.2715897570960792  1.0000
  C   C147      1.0  0.12758531229308256  0.15100228266102858  0.22183645246205197  1.0000
  C   C148      1.0  0.12539262763876435  0.2074598444774194  0.6901947813370617  1.0000
  C   C149      1.0  0.12670476594998  0.18972686300369704  0.7321363758704739  1.0000
  C   C150      1.0  0.17464769824019732  0.1833440963930303  0.23766911099091304  1.0000
  H   H97       1.0  0.12382611635328494  0.14993279283728086  0.3036301093116606  1.0000
  H   H98       1.0  0.13752987780386539  0.24671338377161567  0.6605989777647366  1.0000
  H   H99       1.0  0.11751068432455035  0.16971696360018573  0.7299334755389383  1.0000
  H   H100      1.0  0.19314184180192004  0.19556466971750217  0.24371962917627077  1.0000
  C   C151      1.0  0.08771495007653088  0.5462031357596376  0.4840746003128172  1.0000
  C   C152      1.0  0.0823979309010581  0.5624619493820661  0.4410233758339028  1.0000
  C   C153      1.0  0.09151310040668864  0.5895743524745949  0.4392579560632585  1.0000
  C   C154      1.0  0.10528865890380006  0.6008121255989114  0.48112734655115874  1.0000
  C   C155      1.0  0.11010173547898185  0.5847257230963995  0.5246692699920287  1.0000
  C   C156      1.0  0.10144351325120116  0.5574245631496887  0.5260625455226029  1.0000
  H   H101      1.0  0.0710432268114867  0.5542273946054325  0.40911055443437777  1.0000
  H   H102      1.0  0.08761795097613322  0.6018211451646032  0.4056437168471149  1.0000
  H   H103      1.0  0.1208657591748554  0.593199325725041  0.5570667121938597  1.0000
  H   H104      1.0  0.10550369320135888  0.5450790151386837  0.5595678963908207  1.0000
  C   C157      1.0  0.14050218832727693  0.5330823903940078  0.21448140493621026  1.0000
  C   C158      1.0  0.14456545916506433  0.5499545406165413  0.2566231634024182  1.0000
  C   C159      1.0  0.129305624428364  0.5744633154553854  0.26094184923766434  1.0000
  C   C160      1.0  0.1105201467886939  0.5824143724128952  0.22251618948554275  1.0000
  C   C161      1.0  0.10731302935020184  0.5660181914774639  0.17962245648887532  1.0000
  C   C162      1.0  0.12231830613986854  0.5414816925497582  0.17569039692563515  1.0000
  H   H105      1.0  0.08414499495758454  0.5578421341407797  0.6763402120562183  1.0000
  H   H106      1.0  0.13162401503481092  0.5867569492295143  0.2945494016416936  1.0000
  H   H107      1.0  0.09315686477972654  0.572188540407178  0.1493208920847211  1.0000
  H   H108      1.0  0.11969550691380382  0.5289700919277327  0.1426066003425024  1.0000
  C   C163      1.0  0.15776542697655202  0.3982365955189575  0.6584467547413118  1.0000
  C   C164      1.0  0.1627468437730693  0.4174714924434936  0.6963156744182032  1.0000
  C   C165      1.0  0.10131403550417274  0.3430766196651375  0.19413387448926156  1.0000
  C   C166      1.0  0.11905235366102505  0.3217324640405315  0.20916315912285002  1.0000
  C   C167      1.0  0.16719770741107298  0.3618760153303498  0.7195115207471584  1.0000
  C   C168      1.0  0.16048867035550168  0.37040012075849926  0.6697163930376278  1.0000
  H   H109      1.0  0.16165518674366122  0.43900511153817867  0.6873331575554165  1.0000
  H   H110      1.0  0.08202312625019334  0.346896269987959  0.21482909370290826  1.0000
  H   H111      1.0  0.1683919988963323  0.3403971425792805  0.7285645924393538  1.0000
  H   H112      1.0  0.15652737647891654  0.355456841795622  0.640510469248221  1.0000
  C   C169      1.0  0.9302559677056713  0.2772855383163393  0.5581782830561298  1.0000
  C   C170      1.0  0.9080551601640633  0.28069320837328743  0.5925479596352964  1.0000
  C   C171      1.0  0.8847730449296929  0.26345322041232344  0.590264349951214  1.0000
  C   C172      1.0  0.8834806101044377  0.24301019303653582  0.5533921303810915  1.0000
  C   C173      1.0  0.9066406920792026  0.23835962048467232  0.5216690080790194  1.0000
  C   C174      1.0  0.9301053574595514  0.2553543221451394  0.5243770558123385  1.0000
  H   H113      1.0  0.908322634872393  0.2972045724042995  0.6197031782090595  1.0000
  H   H114      1.0  0.8678971313084429  0.2661259162601523  0.6170831138360737  1.0000
  H   H115      1.0  0.9061628823431768  0.22207776813164382  0.494029977346883  1.0000
  H   H116      1.0  0.947933944311652  0.2516201681728208  0.499786268228773  1.0000
  C   C175      1.0  0.8937159912089575  0.3114350759456629  0.7641991210429125  1.0000
  C   C176      1.0  0.8768189106384705  0.3181642378707764  0.7223448538932057  1.0000
  C   C177      1.0  0.8493979849498752  0.3082570793922414  0.7192203014448172  1.0000
  C   C178      1.0  0.8389131690980888  0.2911665587141914  0.7574086584334064  1.0000
  C   C179      1.0  0.8557950811480872  0.28442004815636934  0.7994477813361286  1.0000
  C   C180      1.0  0.8831762302853923  0.2946291619587559  0.8029388121557207  1.0000
  H   H117      1.0  0.8847480695616575  0.3314117137844996  0.6925758419316904  1.0000
  H   H118      1.0  0.8361301205074485  0.3146073696452527  0.6880007427810695  1.0000
  H   H119      1.0  0.847762089171291  0.2712516891563194  0.8292226225705216  1.0000
  H   H120      1.0  0.8960759782070423  0.2894937119509065  0.8354617973751448  1.0000
  C   C181      1.0  0.9992927413923567  0.21335056645686717  0.8322572180892203  1.0000
  C   C182      1.0  0.9827388148139632  0.22560936612964705  0.7942979505099441  1.0000
  C   C183      1.0  0.9769828231016877  0.21145347152507082  0.7492376974159952  1.0000
  C   C184      1.0  0.9876664717121157  0.18503563500467288  0.7423515763556999  1.0000
  C   C185      1.0  0.003224590612338929  0.17248486063677151  0.7811896743359076  1.0000
  C   C186      1.0  0.009245633797783315  0.18670746353054551  0.8258941352969624  1.0000
  H   H121      1.0  0.9746766409717403  0.24606872686120024  0.7993870886506805  1.0000
  H   H122      1.0  0.9650526096666479  0.22128285170600118  0.7192041885643392  1.0000
  H   H123      1.0  0.01064794630536614  0.1517431430608038  0.776755614993104  1.0000
  H   H124      1.0  0.0005512434739196603  0.16995455746067042  0.32623171696980185  1.0000
  C   C187      1.0  0.04235884501276588  0.3797252483961339  0.8101463849290749  1.0000
  C   C188      1.0  0.016571073317923846  0.3935890931926946  0.810400969015858  1.0000
  C   C189      1.0  0.011228197938273787  0.41437055922582877  0.7746505063643119  1.0000
  C   C190      1.0  0.03157897182849689  0.4212355321632969  0.7382589352154463  1.0000
  C   C191      1.0  0.057192721297796956  0.4070372282964488  0.7374218934555481  1.0000
  C   C192      1.0  0.06271638018039738  0.38653724157485037  0.7737069798496916  1.0000
  H   H125      1.0  0.09669472039349603  0.3631821428999057  0.3164362016092925  1.0000
  H   H126      1.0  0.9913798610623792  0.4253022376314497  0.7755278096159205  1.0000
  H   H127      1.0  0.07265491062010465  0.411521072094336  0.708458284869142  1.0000
  H   H128      1.0  0.0826213767024857  0.3756967501281913  0.772940364338739  1.0000
  Fe  Fe65      1.0  0.019938674027960124  0.3206199196205073  0.40502523538644786  1.0000
  S   S129      1.0  0.007749697863978389  0.30334056728178493  0.9434088726564921  1.0000
  S   S130      1.0  0.04930631810264696  0.3538432076602431  0.8550094822147299  1.0000
  Fe  Fe66      1.0  0.961340714563954  0.3184903469503971  0.36282660230729324  1.0000
  S   S131      1.0  0.945545204717973  0.2846693713114478  0.8999667112909749  1.0000
  S   S132      1.0  0.9340943104912018  0.3400530730132021  0.30523984240858315  1.0000
  Fe  Fe67      1.0  0.9629232875462646  0.3171105249544335  0.9509812761568921  1.0000
  S   S133      1.0  0.9461192511988216  0.32322667521806225  0.03050719039889427  1.0000
  Fe  Fe68      1.0  0.9916113894021414  0.2659921026394207  0.39006220222490096  1.0000
  S   S134      1.0  0.9968269180588502  0.22109171840205374  0.37740713947923865  1.0000
  S   S135      1.0  0.9662397785217528  0.3491544002935314  0.8894200253754246  1.0000
  S   S136      1.0  0.0020555119824416934  0.300254464670687  0.3363502561818428  1.0000
  Fe  Fe69      1.0  0.07646737177599694  0.44017491760748373  0.16804238500038937  1.0000
  S   S137      1.0  0.08017370012861776  0.42563393168326485  0.0872887592723246  1.0000
  S   S138      1.0  0.04029205477732867  0.43053997499481794  0.2206246924455879  1.0000
  Fe  Fe70      1.0  0.1300153155407451  0.47312334720151  0.1623447861390248  1.0000
  S   S139      1.0  0.14004281139221764  0.4601986995807374  0.08228036998820887  1.0000
  S   S140      1.0  0.15547187152457295  0.5002646264543354  0.21304056029647045  1.0000
  Fe  Fe71      1.0  0.09411385465530327  0.46805629341424104  0.0682008137086485  1.0000
  S   S141      1.0  0.08114089518089034  0.4901876662455388  0.9963229166897418  1.0000
  Fe  Fe72      1.0  0.12548572525302082  0.4190031034797845  0.10704770793073193  1.0000
  S   S142      1.0  0.14686594807511796  0.38015109034584865  0.08445132390469445  1.0000
  S   S143      1.0  0.08488976549856142  0.48360035281533725  0.14678426356542928  1.0000
  S   S144      1.0  0.12101852251702674  0.4307164440952449  0.18908336832419814  1.0000
  Fe  Fe73      1.0  0.021013985372494215  0.15717887257927093  0.13945012566520099  1.0000
  S   S145      1.0  0.04795820848610721  0.14703162372862164  0.07168032701555482  1.0000
  S   S146      1.0  0.9900682567559052  0.19177209256967126  0.14544196028454448  1.0000
  Fe  Fe74      1.0  0.04850995265010316  0.11416428538160393  0.20678212886037795  1.0000
  S   S147      1.0  0.07759702103294344  0.09983319882280794  0.14519249276745283  1.0000
  S   S148      1.0  0.053049153330021914  0.09738856645297528  0.28640017732309886  1.0000
  Fe  Fe75      1.0  0.0833588755410083  0.1440407210018114  0.12789141695107298  1.0000
  S   S149      1.0  0.126861168144106  0.1606888756879897  0.11866651631265124  1.0000
  Fe  Fe76      1.0  0.03972666002614522  0.10356627739708495  0.09487542802138749  1.0000
  S   S150      1.0  0.029591355210952575  0.0728270975672397  0.03472686152769611  1.0000
  S   S151      1.0  0.05717825527458519  0.15827826652182472  0.19342105913419028  1.0000
  S   S152      1.0  0.009740211342759597  0.1140587602410747  0.15807321766395632  1.0000
  Fe  Fe77      1.0  0.20050109337876426  0.33104358885184815  0.8289793993754084  1.0000
  S   S153      1.0  0.20472201787276045  0.29797163571697544  0.7706472019926708  1.0000
  S   S154      1.0  0.17864875975850442  0.37141357679530296  0.8206336239426535  1.0000
  Fe  Fe78      1.0  0.23487025666588196  0.3007091224263199  0.9084640416959908  1.0000
  S   S155      1.0  0.24156056894809758  0.2646942656708255  0.8580313114333761  1.0000
  S   S156      1.0  0.25227686530973775  0.30049534116520393  0.9881756246558325  1.0000
  Fe  Fe79      1.0  0.24962272051030357  0.295779096436104  0.7967831073022742  1.0000
  S   S157      1.0  0.2369503638286419  0.2673358766403502  0.18670601392398667  1.0000
  Fe  Fe80      1.0  0.19623254150062375  0.269891759411943  0.83681035492803  1.0000
  S   S158      1.0  0.16741536507058236  0.2336753392784535  0.8386047995276721  1.0000
  S   S159      1.0  0.24613735873594558  0.3316355584849806  0.8488297984944476  1.0000
  S   S160      1.0  0.18861805248793442  0.3032335899562749  0.8934744200948732  1.0000
  Fe  Fe81      1.0  0.11763129728246678  0.6927488399875157  0.9071527165200826  1.0000
  S   S161      1.0  0.10848753828897556  0.6827376875077467  0.9888492071616007  1.0000
  S   S162      1.0  0.14953490352828314  0.7241285564008366  0.8861924335796889  1.0000
  Fe  Fe82      1.0  0.07793914173551265  0.650246998864776  0.8669577656424496  1.0000
  S   S163      1.0  0.06418415714542136  0.6369236490735336  0.945234997843492  1.0000
  S   S164      1.0  0.06161438479431957  0.6319300769911128  0.7942990364489961  1.0000
  Fe  Fe83      1.0  0.06369599530796655  0.681472285346773  0.9635982439203791  1.0000
  S   S165      1.0  0.031330688829601216  0.7026792724375658  0.011765869405961249  1.0000
  Fe  Fe84      1.0  0.11008889198898136  0.6392747623423736  0.9635092873361455  1.0000
  S   S166      1.0  0.13234958748289935  0.6083703098971849  0.012231018020002038  1.0000
  S   S167      1.0  0.07252759253531324  0.6949311354742319  0.8833158989243183  1.0000
  S   S168      1.0  0.1240480794298933  0.649406315368131  0.884116604811157  1.0000
  Fe  Fe85      1.0  0.9018307521931472  0.7499122516015725  0.8727533565217968  1.0000
  S   S169      1.0  0.8959581695212359  0.7634548160657944  0.21895812078145815  1.0000
  S   S170      1.0  0.9201101702267823  0.7080100904982645  0.8829146571938378  1.0000
  Fe  Fe86      1.0  0.8605524534217721  0.7914614942292221  0.9128329546134871  1.0000
  S   S171      1.0  0.8653259169728195  0.8192340313013786  0.8451881804454345  1.0000
  S   S172      1.0  0.8334640431714047  0.8011146640403626  0.9810277877928302  1.0000
  Fe  Fe87      1.0  0.8498457820338918  0.7567960512244372  0.22893948336380676  1.0000
  S   S173      1.0  0.8241121972626996  0.754530849729578  0.15788977683343797  1.0000
  Fe  Fe88      1.0  0.9113528343057221  0.8100169420710968  0.853009147495875  1.0000
  S   S174      1.0  0.9417682174772773  0.843503742302172  0.8357711456024335  1.0000
  S   S175      1.0  0.8551485902554941  0.7537060510545808  0.8660676915848615  1.0000
  S   S176      1.0  0.9068807013446282  0.7854982032624561  0.9250538133617434  1.0000
  Fe  Fe89      1.0  0.2410785649431408  0.8005750597969816  0.7065032078030771  1.0000
  S   S177      1.0  0.2512901403684111  0.834895425254568  0.6527168459756897  1.0000
  S   S178      1.0  0.26353782953592114  0.788591591315793  0.7789804806029045  1.0000
  Fe  Fe90      1.0  0.18977602437108537  0.7834961980935625  0.6464348007866425  1.0000
  S   S179      1.0  0.19500480514350563  0.8163479685503781  0.5870442456791862  1.0000
  S   S180      1.0  0.15451262739617036  0.7534891426484893  0.6525759981832034  1.0000
  Fe  Fe91      1.0  0.2408406989348524  0.805137840766348  0.5911195986474245  1.0000
  S   S181      1.0  0.30680849855509335  0.8713141583384113  0.08463406301821275  1.0000
  Fe  Fe92      1.0  0.20499822618113783  0.8432960939874751  0.653330582272757  1.0000
  S   S182      1.0  0.18715690971051846  0.8851249179402682  0.6660158149651351  1.0000
  S   S183      1.0  0.23469049600922584  0.7697649177545847  0.6447757134132618  1.0000
  S   S184      1.0  0.19552156465724935  0.8115791543729663  0.7122457729932233  1.0000
  Fe  Fe93      1.0  0.09815397632324967  0.9397872556976878  0.9879099372673819  1.0000
  S   S185      1.0  0.12341971275838916  0.9528145277207768  0.9196824538996347  1.0000
  S   S186      1.0  0.09782752091045448  0.962686047654583  0.06184993640362069  1.0000
  Fe  Fe94      1.0  0.07860398364772525  0.8875548593556489  0.9391425721058074  1.0000
  S   S187      1.0  0.10177695189535826  0.8959198344424055  0.8665379338824253  1.0000
  S   S188      1.0  0.05660965096374482  0.8480661427825185  0.954485434499367  1.0000
  Fe  Fe95      1.0  0.1368893009165291  0.9089627124945182  0.9173363684084248  1.0000
  S   S189      1.0  0.18072277944542744  0.8934225522848095  0.9040786065943452  1.0000
  Fe  Fe96      1.0  0.08590101066100372  0.9389479339718043  0.8749236094101507  1.0000
  S   S190      1.0  0.06763423273837517  0.9589994593034323  0.804304774479269  1.0000
  S   S191      1.0  0.11500193985041084  0.8970816387450454  0.989356425030218  1.0000
  S   S192      1.0  0.05934809973098565  0.9293168263177192  0.9439014397845525  1.0000
  Fe  Fe97      1.0  0.5934750261304268  0.01705786301644152  0.8508277739188799  1.0000
  S   S193      1.0  0.6165945678872101  0.9970034143089856  0.9154569258184081  1.0000
  S   S194      1.0  0.6115827612925223  0.05206320817048349  0.8065324335266792  1.0000
  Fe  Fe98      1.0  0.5453430759935196  0.9773358332809113  0.8555281169114994  1.0000
  S   S195      1.0  0.5633452599166815  0.9546471894323818  0.9221664949468378  1.0000
  S   S196      1.0  0.5063561753713811  0.9622743150244668  0.8180309941020097  1.0000
  Fe  Fe99      1.0  0.5740298727314449  0.995812334710459  0.9524185932610024  1.0000
  S   S197      1.0  0.5721976960530737  0.0041133822531354  0.03651255663806663  1.0000
  Fe  Fe100     1.0  0.6039292876982659  0.9577660689776301  0.8793550044258478  1.0000
  S   S198      1.0  0.6298965119118081  0.9199201559962321  0.868759492871208  1.0000
  S   S199      1.0  0.5515056907277495  0.018534962747158712  0.889704089387437  1.0000
  S   S200      1.0  0.5851913719371519  0.9778321756102658  0.8106289072268147  1.0000
  Fe  Fe101     1.0  0.6306292752209428  0.807204037823756  0.06004966610021878  1.0000
  S   S201      1.0  0.6256673586996973  0.7745910833407404  0.11976724386463045  1.0000
  S   S202      1.0  0.6045587425375892  0.8454580516078347  0.059935482082701386  1.0000
  Fe  Fe102     1.0  0.6785050386845145  0.7780278386787449  0.007025052783151464  1.0000
  S   S203      1.0  0.6784560489965118  0.7431294468250628  0.06254667613045051  1.0000
  S   S204      1.0  0.705727119432841  0.7772286180245482  0.9369863413853725  1.0000
  Fe  Fe103     1.0  0.6317530200131913  0.7455969228300954  0.05492677812255731  1.0000
  S   S205      1.0  0.607636807916209  0.7073945799004555  0.041215959311059924  1.0000
  Fe  Fe104     1.0  0.6727202666967891  0.7752309208237809  0.1221565747941642  1.0000
  S   S206      1.0  0.6947118955345815  0.7724655509957234  0.1977864877129698  1.0000
  S   S207      1.0  0.6319624272466787  0.7781002316078941  0.9947564671003037  1.0000
  S   S208      1.0  0.6774081371872107  0.8102499714704722  0.0673514265318329  1.0000
  Fe  Fe105     1.0  0.6047693128963586  0.651532770254536  0.7818595745967045  1.0000
  S   S209      1.0  0.5942934079306769  0.662330724974276  0.7010714016097062  1.0000
  S   S210      1.0  0.6416409145956533  0.6707799388570718  0.819797403505494  1.0000
  Fe  Fe106     1.0  0.555803716027001  0.6131228628647957  0.7930238070949743  1.0000
  S   S211      1.0  0.5400800833242199  0.6208646525825002  0.7134322411624172  1.0000
  S   S212      1.0  0.5351567932184761  0.5854600790348494  0.8503642135260171  1.0000
  Fe  Fe107     1.0  0.5857112824060005  0.6179106996209929  0.6924818452875038  1.0000
  S   S213      1.0  0.6000290529321719  0.5961454623171188  0.6224189178331238  1.0000
  Fe  Fe108     1.0  0.549984807951189  0.6645070500673161  0.7290543065370897  1.0000
  S   S214      1.0  0.5247821707834096  0.7007291775155472  0.7041457739883807  1.0000
  S   S215      1.0  0.6008911254615149  0.6066305613211624  0.770704147500473  1.0000
  S   S216      1.0  0.560911057664792  0.6575214249296379  0.8109351385634291  1.0000
  Fe  Fe109     1.0  0.4339497576230067  0.7740415131563954  0.8898745526535238  1.0000
  S   S217      1.0  0.4378313752124716  0.8055649270272118  0.8281419023024246  1.0000
  S   S218      1.0  0.43461661045769884  0.7293826010111507  0.8722556434616573  1.0000
  Fe  Fe110     1.0  0.4338159163981674  0.8159470673533116  0.9741441391358486  1.0000
  S   S219      1.0  0.4391487528079175  0.8510054263525231  0.919602076343446  1.0000
  S   S220      1.0  0.4288075753100591  0.8213284709085618  0.05869931828470176  1.0000
  Fe  Fe111     1.0  0.4065630571175903  0.8294713874873878  0.8734042271032417  1.0000
  S   S221      1.0  0.3741322462842807  0.8529861509874118  0.8288820923920436  1.0000
  Fe  Fe112     1.0  0.4698129614685601  0.8235134048034807  0.8796976481173878  1.0000
  S   S222      1.0  0.5117924205704989  0.8353349510054024  0.8487214550598642  1.0000
  S   S223      1.0  0.3991306491701456  0.796070671058692  0.9305844632563053  1.0000
  S   S224      1.0  0.4679985617012529  0.7905951570995158  0.9390029454823537  1.0000
  Fe  Fe113     1.0  0.6373385196008385  0.4512455616817303  0.04773311289639559  1.0000
  S   S225      1.0  0.6258526850013125  0.4236985060739856  0.9833937191562029  1.0000
  S   S226      1.0  0.6807992195884173  0.45154310917563256  0.0806356625445559  1.0000
  Fe  Fe114     1.0  0.5787332809098905  0.4748886698607735  0.05680887227662912  1.0000
  S   S227      1.0  0.5613203245684378  0.4487623637164583  0.9947592884890675  1.0000
  S   S228      1.0  0.5519797184689059  0.504958485549586  0.09898687889402069  1.0000
  Fe  Fe115     1.0  0.5874205197138979  0.4154532192750278  0.030214425522186783  1.0000
  S   S229      1.0  0.5725431946680438  0.37274611821305503  0.042806950645831954  1.0000
  Fe  Fe116     1.0  0.6011087244491558  0.4595737172402151  0.9536879571862107  1.0000
  S   S230      1.0  0.601098529272411  0.4734799459476407  0.8720587531771281  1.0000
  S   S231      1.0  0.6005748665116561  0.44050323415968157  0.09682090490309925  1.0000
  S   S232      1.0  0.6167187708463553  0.4881960645231207  0.013099279280877285  1.0000
  Fe  Fe117     1.0  0.7672324952267676  0.2799239442242189  0.07515850084151632  1.0000
  S   S233      1.0  0.7526478178192084  0.3231441639233961  0.06853542564976633  1.0000
  S   S234      1.0  0.7571275323401419  0.25116907097760394  0.011840594024269846  1.0000
  Fe  Fe118     1.0  0.8042584527603742  0.2916065524449606  0.16690302830764936  1.0000
  S   S235      1.0  0.7930070923935114  0.33628761031321247  0.16777075783226647  1.0000
  S   S236      1.0  0.835186201725726  0.26955161615610596  0.2179998193820285  1.0000
  Fe  Fe119     1.0  0.7491244343353951  0.3215082645572314  0.1535053208778634  1.0000
  S   S237      1.0  0.7096613072286686  0.3389531887873178  0.187591718818636  1.0000
  Fe  Fe120     1.0  0.7974626747058057  0.33375791323872567  0.08262467545109131  1.0000
  S   S238      1.0  0.8193128905228908  0.36132522837078446  0.02720349352172513  1.0000
  S   S239      1.0  0.7598135043270883  0.2768685546644289  0.15937661085796462  1.0000
  S   S240      1.0  0.8125535666257621  0.2905461987827357  0.08304574912311447  1.0000
  Fe  Fe121     1.0  0.6428329733697569  0.16081896831665585  0.12249321749044584  1.0000
  S   S241      1.0  0.603490647059726  0.18073707843134423  0.09435105209020422  1.0000
  S   S242      1.0  0.6767910401803342  0.1532188793217102  0.06502286981348582  1.0000
  Fe  Fe122     1.0  0.6178242374671199  0.14798161256752784  0.2255122403691805  1.0000
  S   S243      1.0  0.5758459643678983  0.16619392028666805  0.20660206105271728  1.0000
  S   S244      1.0  0.6256498055461053  0.13050580452372995  0.3033177212720193  1.0000
  Fe  Fe123     1.0  0.5815530413649211  0.14564838390113488  0.1311494831998059  1.0000
  S   S245      1.0  0.5475366412193662  0.1279429032884269  0.08295665055594781  1.0000
  Fe  Fe124     1.0  0.6011609921246341  0.19983789643454802  0.1714244639313518  1.0000
  S   S246      1.0  0.5863728937571351  0.2432470516555769  0.17823320367387985  1.0000
  S   S247      1.0  0.621159462557773  0.12386227382551263  0.15347097391494358  1.0000
  S   S248      1.0  0.6430689692909785  0.1834231298950858  0.1966503493186731  1.0000
  Fe  Fe125     1.0  0.43844736199921414  0.3418405644611651  0.1497782647652457  1.0000
  S   S249      1.0  0.44516180010454964  0.32074778635848217  0.07502657939561241  1.0000
  S   S250      1.0  0.46306155214325107  0.3779352700082935  0.1752762538493402  1.0000
  Fe  Fe126     1.0  0.38887711892969906  0.3074386633809976  0.17890499158450957  1.0000
  S   S251      1.0  0.39063696876337217  0.28292650918845685  0.10697563281829825  1.0000
  S   S252      1.0  0.3589704995865668  0.30424653588455797  0.24487777559647883  1.0000
  Fe  Fe127     1.0  0.4371203783997438  0.2825666742124316  0.11978020054892125  1.0000
  S   S253      1.0  0.4604327054337956  0.24373902105400158  0.10389458530693374  1.0000
  Fe  Fe128     1.0  0.3984164972306548  0.3230217659477355  0.06821061126717498  1.0000
  S   S254      1.0  0.37991945179988434  0.33502512318248984  0.9927050858851861  1.0000
  S   S255      1.0  0.43487850349522794  0.30344218601006795  0.19559457690821125  1.0000
  S   S256      1.0  0.39225327025137335  0.3477386150927128  0.1388275516339461  1.0000
  C   C193      1.0  0.5510248892646489  0.24395602818160417  0.15929129057782343  1.0000
  C   C194      1.0  0.5350163411516298  0.26801915791248965  0.16161714273567251  1.0000
  C   C195      1.0  0.5068363998748932  0.2680429484205482  0.14556633109023243  1.0000
  C   C196      1.0  0.49481539603628727  0.24409779567916184  0.12726132979994143  1.0000
  C   C197      1.0  0.5106668219205657  0.22009281704569747  0.12599234206184584  1.0000
  C   C198      1.0  0.5387338921822526  0.2201154643697419  0.14136168035864327  1.0000
  H   H129      1.0  0.5442806004145729  0.28654030906932515  0.17581346224564487  1.0000
  H   H130      1.0  0.4943842566509344  0.2864658262272267  0.14727329603935901  1.0000
  H   H131      1.0  0.5012391504465882  0.20139333697942305  0.11314935454970598  1.0000
  H   H132      1.0  0.5508270161200258  0.2015932548699784  0.13874043086536214  1.0000
  C   C199      1.0  0.7341820262399248  0.22466089151503765  0.027916651029610717  1.0000
  C   C200      1.0  0.7330679052268955  0.20198236655392143  0.9960162008991754  1.0000
  C   C201      1.0  0.7154136869121082  0.1801928617908577  0.007992925329120881  1.0000
  C   C202      1.0  0.6982933964905312  0.1812042358912263  0.05134068804648062  1.0000
  C   C203      1.0  0.6988350974272867  0.20415377570904794  0.08286261121675431  1.0000
  C   C204      1.0  0.7170339629386939  0.22583343974353398  0.07138684014372099  1.0000
  H   H133      1.0  0.7462349219684021  0.20105971173409645  0.9623802329381386  1.0000
  H   H134      1.0  0.7150363395856568  0.16252569432428268  0.9835729256904309  1.0000
  H   H135      1.0  0.6856931231370851  0.20496298905631402  0.11650505145558099  1.0000
  H   H136      1.0  0.7177569131401328  0.2433893175620441  0.0960249014511485  1.0000
  C   C205      1.0  0.6889703388549864  0.42033728620240807  0.1106791893901986  1.0000
  C   C206      1.0  0.6680041796879459  0.4053609336200293  0.13537388173210352  1.0000
  C   C207      1.0  0.6747630976417001  0.3810640231479692  0.16106295685593164  1.0000
  C   C208      1.0  0.7022480564830603  0.37081035918338306  0.1597868200764645  1.0000
  C   C209      1.0  0.7232551325088885  0.38559732805100866  0.13477689607310217  1.0000
  C   C210      1.0  0.716714475152834  0.4106350843756981  0.11116156773536479  1.0000
  H   H137      1.0  0.6466272012131875  0.412571830386382  0.1353677906560995  1.0000
  H   H138      1.0  0.6585427641485385  0.36983306318177966  0.1807820767905719  1.0000
  H   H139      1.0  0.7445945531284835  0.3778553509827334  0.1338494361556768  1.0000
  H   H140      1.0  0.7330573498587574  0.42212221842841163  0.0921998406526312  1.0000
  C   C211      1.0  0.4962939253579087  0.37584973960954043  0.1471098551829868  1.0000
  C   C212      1.0  0.5062583389270481  0.35082302093434325  0.1291559143350418  1.0000
  C   C213      1.0  0.530434857261051  0.34966607387134657  0.09867897806854287  1.0000
  C   C214      1.0  0.5446015655938701  0.37365986045774935  0.0861649758057148  1.0000
  C   C215      1.0  0.5352171975775096  0.3985911033218792  0.10583381338288356  1.0000
  C   C216      1.0  0.5112680580173634  0.3996392996406228  0.1368910355140882  1.0000
  H   H141      1.0  0.4948321848814387  0.33246809134577865  0.1376484621783034  1.0000
  H   H142      1.0  0.5375007158676405  0.33033136013769465  0.08346785165881743  1.0000
  H   H143      1.0  0.5458204098473011  0.4172461266228889  0.095962412353088  1.0000
  H   H144      1.0  0.5036050839074271  0.4190627138337492  0.15077992390013284  1.0000
  C   C217      1.0  0.5899736074599703  0.5619695557710606  0.627695118457803  1.0000
  C   C218      1.0  0.5996678999366815  0.5430424472563558  0.5921097991191198  1.0000
  C   C219      1.0  0.5924892911900056  0.5155822978077158  0.5971428739826936  1.0000
  C   C220      1.0  0.5752457902747212  0.5069168947518374  0.637027103895935  1.0000
  C   C221      1.0  0.5651474201647783  0.5258516730410141  0.6723473021879883  1.0000
  C   C222      1.0  0.5726414754758501  0.5533710111827376  0.6677676223858865  1.0000
  H   H145      1.0  0.6126753081220019  0.549450704691361  0.5605584846615709  1.0000
  H   H146      1.0  0.6119468065328189  0.5102340708667354  0.11283383852699469  1.0000
  H   H147      1.0  0.5518771885620154  0.5192678496574467  0.7036126883722753  1.0000
  H   H148      1.0  0.5649635674101434  0.5678937527123098  0.6952549208439286  1.0000
  C   C223      1.0  0.5519789517701706  0.5534734292066853  0.8548085119372616  1.0000
  C   C224      1.0  0.5696615178623416  0.5443850013330549  0.8157610847133496  1.0000
  C   C225      1.0  0.5842794273104474  0.5195879173251693  0.8207513700516672  1.0000
  C   C226      1.0  0.5816514519894516  0.5039233054090886  0.8652922281741013  1.0000
  C   C227      1.0  0.5638264319342816  0.5129198971139846  0.9043746199970141  1.0000
  C   C228      1.0  0.5486931649766436  0.5374532933281275  0.8988061623003364  1.0000
  H   H149      1.0  0.571841834605068  0.5563150262721711  0.7813944922533553  1.0000
  H   H150      1.0  0.5977922968215117  0.512821736740427  0.790203738726242  1.0000
  H   H151      1.0  0.5615618658169965  0.5009663994298337  0.9388441750951241  1.0000
  H   H152      1.0  0.5347828991282155  0.5441940897574197  0.9289582384242359  1.0000
  C   C229      1.0  0.49991998095310564  0.7082912852234102  0.751143707187025  1.0000
  C   C230      1.0  0.4945045021628316  0.7354808769368528  0.7634287720036423  1.0000
  C   C231      1.0  0.4755503527487767  0.7418336230438771  0.8024694677761088  1.0000
  C   C232      1.0  0.4607154201034561  0.7211797185341325  0.8274234285460085  1.0000
  C   C233      1.0  0.4662241818983381  0.6939110338189692  0.81527742821615  1.0000
  C   C234      1.0  0.4862600147111034  0.6874282835862825  0.777786613599777  1.0000
  H   H153      1.0  0.5053904479457024  0.7516622795653916  0.7436049938861056  1.0000
  H   H154      1.0  0.47237697034054016  0.7627683039237504  0.812758025943213  1.0000
  H   H155      1.0  0.45503338749397565  0.6777954853793318  0.8348399561656697  1.0000
  H   H156      1.0  0.4906588789904505  0.6663147847223226  0.7687539326210215  1.0000
  C   C235      1.0  0.6184663382462225  0.6951851176272479  0.9816644703131044  1.0000
  C   C236      1.0  0.6037591380094728  0.6742223417217208  0.9580053200080316  1.0000
  C   C237      1.0  0.6115417847572169  0.665714824207088  0.908864289467257  1.0000
  C   C238      1.0  0.6337970595359125  0.6784602233799107  0.883324509399681  1.0000
  C   C239      1.0  0.6489329865137626  0.6988212376547859  0.9076873966955111  1.0000
  C   C240      1.0  0.6411979504040826  0.7072272155159562  0.9565808535774784  1.0000
  H   H157      1.0  0.586066077005298  0.6650619909602756  0.9772951741661342  1.0000
  H   H158      1.0  0.600284036814652  0.649454872412916  0.8906369104521856  1.0000
  H   H159      1.0  0.6662427340970133  0.7086673636186144  0.8884587247873057  1.0000
  H   H160      1.0  0.6527979249553516  0.7233086531055497  0.9743280110009508  1.0000
  C   C241      1.0  0.5948166873858991  0.08357005243290017  0.8160674706476517  1.0000
  C   C242      1.0  0.5762709791635429  0.0875476944813336  0.8568483351159765  1.0000
  C   C243      1.0  0.5625152009132559  0.11269575178433335  0.8628122735922968  1.0000
  C   C244      1.0  0.5669786220591179  0.13382772510706814  0.8276275639797176  1.0000
  C   C245      1.0  0.5857415010781533  0.12991199857738564  0.7871828069616073  1.0000
  C   C246      1.0  0.5998681589731887  0.10492022864935735  0.7817676920049907  1.0000
  H   H161      1.0  0.5726375542633007  0.07143230283163571  0.8841406530901094  1.0000
  H   H162      1.0  0.5480812011904707  0.11556902985179487  0.894270713046157  1.0000
  H   H163      1.0  0.5897182620504873  0.14622368629787186  0.7605259762668255  1.0000
  H   H164      1.0  0.6145384658332432  0.10202857783816621  0.7507245303243234  1.0000
  C   C247      1.0  0.5636496734243206  0.03805291668213662  0.050814030576076474  1.0000
  C   C248      1.0  0.572664297300618  0.049283577819579046  0.0968588261542851  1.0000
  C   C249      1.0  0.5673777735421607  0.07686002343498044  0.10741606720396613  1.0000
  C   C250      1.0  0.5527192554702134  0.09308797397576273  0.07222397805967451  1.0000
  C   C251      1.0  0.5429828584632665  0.08165972687975143  0.026919954873274365  1.0000
  C   C252      1.0  0.5485740294763369  0.0542152180376394  0.016131062976654675  1.0000
  H   H165      1.0  0.5841358908058601  0.03678350390370988  0.1239650246311621  1.0000
  H   H166      1.0  0.5743843434650345  0.08547868127834925  0.14297199828085416  1.0000
  H   H167      1.0  0.5314148813780444  0.09409331210053873  0.9998278769930573  1.0000
  H   H168      1.0  0.5408375915868121  0.04552521149121702  0.9813279936773285  1.0000
  C   C253      1.0  0.5080232826343472  0.9266268330517226  0.81955090853452  1.0000
  C   C254      1.0  0.4834628387300044  0.9112840741659182  0.8166567815021543  1.0000
  C   C255      1.0  0.48470371265204304  0.8829039491113881  0.8233774623039446  1.0000
  C   C256      1.0  0.5105521745706828  0.8699074811253392  0.8321494764348834  1.0000
  C   C257      1.0  0.5352412402316953  0.885114400083691  0.8325648557188415  1.0000
  C   C258      1.0  0.5339041486855765  0.913482335752095  0.8268258751098921  1.0000
  H   H169      1.0  0.4634142448865968  0.9214483763392268  0.811274144655525  1.0000
  H   H170      1.0  0.46561044291249976  0.8711517997526811  0.8228182740012976  1.0000
  H   H171      1.0  0.555246485778888  0.8751545081555328  0.8396904956000342  1.0000
  H   H172      1.0  0.5528831775613725  0.9252531267487106  0.8291910395608604  1.0000
  C   C259      1.0  0.6246247365308378  0.8993368096469412  0.9227050367141297  1.0000
  C   C260      1.0  0.6153418578062442  0.9109556421930413  0.9683670693057134  1.0000
  C   C261      1.0  0.6096171521470958  0.89435660723449  0.010739086972707534  1.0000
  C   C262      1.0  0.6137383638741605  0.8661596696533579  0.007889864099794197  1.0000
  C   C263      1.0  0.6238168418959302  0.8546060047774011  0.9626627146739152  1.0000
  C   C264      1.0  0.6289937753996115  0.8711544091033057  0.9199190087087379  1.0000
  H   H173      1.0  0.6127998956192552  0.9328078678912681  0.9712900346132577  1.0000
  H   H174      1.0  0.6022751925577916  0.9034244227178669  0.04588353463861505  1.0000
  H   H175      1.0  0.6268111212435504  0.8328584090161113  0.9600333945267367  1.0000
  H   H176      1.0  0.6358312142977363  0.8620592691704847  0.8845006744225812  1.0000
  C   C265      1.0  0.3412206961072777  0.8584185016809258  0.07956739510164823  1.0000
  C   C266      1.0  0.35295102486265595  0.8422170673053933  0.11836992742353925  1.0000
  C   C267      1.0  0.38019495072251935  0.831334712548375  0.11267956873631979  1.0000
  C   C268      1.0  0.3954649567498051  0.8362239668957463  0.06783574406115367  1.0000
  C   C269      1.0  0.38366974287743105  0.8524566130237695  0.02928394676278767  1.0000
  C   C270      1.0  0.35681747752486676  0.8638510992535774  0.035445576065520124  1.0000
  H   H177      1.0  0.3409931200416056  0.8379588373992255  0.15257739563479955  1.0000
  H   H178      1.0  0.38902319086644493  0.8185397026795397  0.14227742245813957  1.0000
  H   H179      1.0  0.3952890318897813  0.8565002883234658  0.9947371135633084  1.0000
  H   H180      1.0  0.3480918898923947  0.8767404757511343  0.005730309977660442  1.0000
  C   C271      1.0  0.2939863026235456  0.8068478364199789  0.7927945497780421  1.0000
  C   C272      1.0  0.31217614518729797  0.7970112590809232  0.8306619637002255  1.0000
  C   C273      1.0  0.3368557971530558  0.8110967356102975  0.8420437269836629  1.0000
  C   C274      1.0  0.34312724023838587  0.8353176047585795  0.8162302567101097  1.0000
  C   C275      1.0  0.3245714232893198  0.8455147451128828  0.7793087574691707  1.0000
  C   C276      1.0  0.3000880766530666  0.8312294416185032  0.7674473767247643  1.0000
  H   H181      1.0  0.3072522262635038  0.7783409592898335  0.8508928426813376  1.0000
  H   H182      1.0  0.35081464690072184  0.8032983146124634  0.8710302895193487  1.0000
  H   H183      1.0  0.32908603123754054  0.864442063104651  0.7596924174960488  1.0000
  H   H184      1.0  0.2857789294234801  0.8393310303341484  0.7392575678920092  1.0000
  C   C277      1.0  0.18917688582090497  0.8910776859798973  0.7317330662416082  1.0000
  C   C278      1.0  0.1711018053032637  0.9100584388124129  0.754375689931625  1.0000
  C   C279      1.0  0.1693247609412174  0.9116970833199022  0.8076212618145194  1.0000
  C   C280      1.0  0.18634103266912355  0.894928583216475  0.8381885285526792  1.0000
  C   C281      1.0  0.2059081125559105  0.8773707572259519  0.8155372091733407  1.0000
  C   C282      1.0  0.20721524315267031  0.8753330459405481  0.762314438901191  1.0000
  H   H185      1.0  0.15797267757905245  0.9229275654048015  0.7307954037491123  1.0000
  H   H186      1.0  0.1545193104474344  0.9257033752723967  0.824956547964923  1.0000
  H   H187      1.0  0.2192191865003139  0.8645588641732318  0.8389594719994041  1.0000
  H   H188      1.0  0.2219672170792902  0.8613123881686083  0.7450142794552462  1.0000
  C   C283      1.0  0.7882254938662339  0.7588666102598444  0.17009468387518334  1.0000
  C   C284      1.0  0.769719155993312  0.7611152255501147  0.12900164897043354  1.0000
  C   C285      1.0  0.7410734437491077  0.7657212316082335  0.13764261702104497  1.0000
  C   C286      1.0  0.7307546684034655  0.7676247308420073  0.18742361542313768  1.0000
  C   C287      1.0  0.7492043825969966  0.7651118788028504  0.22873355066927115  1.0000
  C   C288      1.0  0.778027046089243  0.7608498695754471  0.22005213659483291  1.0000
  H   H189      1.0  0.7775310238181257  0.7595019951720786  0.09037791026460762  1.0000
  H   H190      1.0  0.7270474991150537  0.7679079660233019  0.10562783072200133  1.0000
  H   H191      1.0  0.7413018137062535  0.7665117000998493  0.2673630216875891  1.0000
  H   H192      1.0  0.7922500344907101  0.7589051219150517  0.25200384043766233  1.0000
  C   C289      1.0  0.7979757036365939  0.7941348725413011  0.9692558882288688  1.0000
  C   C290      1.0  0.789657416280809  0.7841771526717579  0.9219209015567832  1.0000
  C   C291      1.0  0.7613602784176345  0.7784099968495374  0.9126487468111085  1.0000
  C   C292      1.0  0.741211440913969  0.7828113416476306  0.950638871531864  1.0000
  C   C293      1.0  0.749466792276386  0.7926866528033008  0.9981783208235215  1.0000
  C   C294      1.0  0.7778458998068571  0.7983899410098223  0.007443087271134408  1.0000
  H   H193      1.0  0.8050011028394642  0.781044685438613  0.8922938991284749  1.0000
  H   H194      1.0  0.7551098474878044  0.7706112200345219  0.87594549447939  1.0000
  H   H195      1.0  0.7340019219482574  0.7961668167793967  0.027655620569173367  1.0000
  H   H196      1.0  0.7841342106033163  0.8059844360219803  0.04422968097867708  1.0000
  C   C295      1.0  0.9728888504096003  0.8450144528291793  0.8711090206810665  1.0000
  C   C296      1.0  0.9923868573449562  0.8652951250885241  0.8591853304633404  1.0000
  C   C297      1.0  0.018002555735367798  0.8664466344156189  0.8851999601361512  1.0000
  C   C298      1.0  0.02428088641573556  0.8471331775210442  0.92293933071029  1.0000
  C   C299      1.0  0.004818067278194116  0.8267922566930194  0.9350132126240088  1.0000
  C   C300      1.0  0.9789989512560827  0.8258387969461738  0.9093323949566482  1.0000
  H   H197      1.0  0.987672507092184  0.8801718056960633  0.829676379747164  1.0000
  H   H198      1.0  0.0329278864092597  0.8822151570613702  0.8757421385274273  1.0000
  H   H199      1.0  0.009621041274048281  0.8119657536795999  0.9645394636831301  1.0000
  H   H200      1.0  0.963950972615003  0.8102544542367441  0.9188719086624624  1.0000
  C   C301      1.0  0.15172423458772816  0.7286852129810649  0.8200939528682791  1.0000
  C   C302      1.0  0.17612928491010074  0.739731462608311  0.799138368848236  1.0000
  C   C303      1.0  0.17733213843255285  0.7461484797955719  0.7471543440221062  1.0000
  C   C304      1.0  0.1538927973444679  0.7422314278034194  0.7161272764241139  1.0000
  C   C305      1.0  0.12969041535391923  0.7303541171300552  0.7366689445136759  1.0000
  C   C306      1.0  0.1287175450840003  0.7232811939859134  0.7886149018513556  1.0000
  H   H201      1.0  0.19413503015895614  0.7435104667451683  0.8231633801794588  1.0000
  H   H202      1.0  0.19648632278507355  0.7542666488626372  0.7312954183480662  1.0000
  H   H203      1.0  0.11151963505329673  0.7273219348630221  0.7127607304844096  1.0000
  H   H204      1.0  0.10984278905943401  0.7146577836478324  0.8045952518023515  1.0000
  C   C307      1.0  0.9995710742526186  0.7033201750422965  0.9785474089556255  1.0000
  C   C308      1.0  0.979128747427498  0.7231203966302254  0.9896031358121359  1.0000
  C   C309      1.0  0.954493927979678  0.7247319622968995  0.9604065848494837  1.0000
  C   C310      1.0  0.9500800262746834  0.7060662973818568  0.9211864941775515  1.0000
  C   C311      1.0  0.9701171143421532  0.685771513036055  0.911373232515825  1.0000
  C   C312      1.0  0.9950744409095088  0.6847047856492513  0.9393892197273788  1.0000
  H   H205      1.0  0.9827140758421524  0.7376344421811243  0.01975481507930721  1.0000
  H   H206      1.0  0.938967777449638  0.7402848009835943  0.9684224499796501  1.0000
  H   H207      1.0  0.9666768076518389  0.6712448644009436  0.8811537412194617  1.0000
  H   H208      1.0  0.010778203907754635  0.6693634440908688  0.9307150140571758  1.0000
  C   C313      1.0  0.2879709130882961  0.3095737157930265  0.988914264847372  1.0000
  C   C314      1.0  0.3015373379711442  0.31826130217657117  0.9443691276780866  1.0000
  C   C315      1.0  0.32954350753269535  0.3268220223576873  0.945964014045509  1.0000
  C   C316      1.0  0.34445482224035623  0.3257396998140474  0.9917632899149574  1.0000
  C   C317      1.0  0.3311073391768055  0.3166869196372577  0.03625049520588042  1.0000
  C   C318      1.0  0.30291987109029894  0.3086467781365971  0.03476552482263995  1.0000
  H   H209      1.0  0.29057539023496065  0.3184673685359964  0.908636577752519  1.0000
  H   H210      1.0  0.33970563100669016  0.3341131680862508  0.9116746902934061  1.0000
  H   H211      1.0  0.34240536460972  0.3160253691948912  0.07192540710309236  1.0000
  H   H212      1.0  0.2928040059741102  0.30169529472385975  0.0691955706390377  1.0000
  C   C319      1.0  0.2710642876343298  0.2765559279223802  0.20314388646080217  1.0000
  C   C320      1.0  0.29264911763948104  0.27466428530354214  0.1670906897774187  1.0000
  C   C321      1.0  0.319762990921993  0.2833997076107578  0.17933352450600792  1.0000
  C   C322      1.0  0.3252967324891772  0.29366954263603906  0.2278562482565063  1.0000
  C   C323      1.0  0.3036783221238363  0.2954580561640698  0.2638271120972089  1.0000
  C   C324      1.0  0.2765660380165057  0.2868790082017425  0.25158337333453873  1.0000
  H   H213      1.0  0.2884921642342035  0.266257063488878  0.12987483231954888  1.0000
  H   H214      1.0  0.33636487448097613  0.2818118858134424  0.1514605215630831  1.0000
  H   H215      1.0  0.3079555737976647  0.30370150139715907  0.301027207298211  1.0000
  H   H216      1.0  0.2599001762720827  0.28850287192941454  0.2794143952679289  1.0000
  C   C325      1.0  0.07872429410552442  0.993178331625958  0.05449949903417717  1.0000
  C   C326      1.0  0.06653350875644741  0.9998661243875046  0.007550197782093759  1.0000
  C   C327      1.0  0.05094546670181032  0.024076397281242112  0.0020180843084298683  1.0000
  C   C328      1.0  0.047771686083627696  0.04183067586348365  0.043245874464442835  1.0000
  C   C329      1.0  0.05949831952405926  0.034847294798282524  0.09049874238782052  1.0000
  C   C330      1.0  0.07512354694886114  0.010633240903449526  0.0960535991327105  1.0000
  H   H217      1.0  0.06926354027036825  0.9865559075873389  0.975213024933537  1.0000
  H   H218      1.0  0.041620638357970696  0.02910315440086464  0.9655439058169328  1.0000
  H   H219      1.0  0.05628082859695249  0.04791561852779824  0.12295895396249623  1.0000
  H   H220      1.0  0.0844056033989471  0.005537210415306859  0.13252553616920681  1.0000
  C   C331      1.0  0.08276870405033601  0.05021130561901549  0.779654999416447  1.0000
  C   C332      1.0  0.0965668257906866  0.036122848749627234  0.8191301224070258  1.0000
  C   C333      1.0  0.09176028103868378  0.00825412639153389  0.8273558653086406  1.0000
  C   C334      1.0  0.07329895329085624  0.9942023748955762  0.7958445673661106  1.0000
  C   C335      1.0  0.059552208675152984  0.008253323975821127  0.756167973233104  1.0000
  C   C336      1.0  0.06430677880117175  0.03620299675053351  0.7479827505666562  1.0000
  H   H221      1.0  0.06013472243007589  0.05373737179196181  0.35937784181112487  1.0000
  H   H222      1.0  0.10248027118028451  0.9976746502682518  0.8579114208616392  1.0000
  H   H223      1.0  0.04497497944318818  0.997585890801188  0.7320199453990787  1.0000
  H   H224      1.0  0.05349940793966734  0.04691629914406682  0.71757076475365  1.0000
  C   C337      1.0  0.15299065115868224  0.22330947715882385  0.7800779680433775  1.0000
  C   C338      1.0  0.1521164068730776  0.24087696140603296  0.7378251521648558  1.0000
  C   C339      1.0  0.13827209669983723  0.2329971728336391  0.6930512212030127  1.0000
  C   C340      1.0  0.14144030939023197  0.16266340343613858  0.17996278898546425  1.0000
  C   C341      1.0  0.16570275739280146  0.17788306878123428  0.18788677235891105  1.0000
  C   C342      1.0  0.14031477926845976  0.19769386544367268  0.7770129790170379  1.0000
  H   H225      1.0  0.16168836472542542  0.26068943157271746  0.7397715370052361  1.0000
  H   H226      1.0  0.10988348954333332  0.1378434241315568  0.216014728296402  1.0000
  H   H227      1.0  0.17694568396533966  0.18624865245419897  0.15570764089120237  1.0000
  H   H228      1.0  0.14102852768306653  0.18392885517288604  0.8094121659516407  1.0000
  C   C343      1.0  0.09569795386265272  0.5230186454593422  0.9989485142168023  1.0000
  C   C344      1.0  0.08668881970810514  0.5436886116308828  0.9655947586199461  1.0000
  C   C345      1.0  0.09835053078271319  0.569844645349599  0.9684858717317202  1.0000
  C   C346      1.0  0.11863358493679936  0.5755076050888458  0.005454283570442309  1.0000
  C   C347      1.0  0.12783860652479925  0.5547707789361581  0.03826747367061767  1.0000
  C   C348      1.0  0.11642642091954769  0.5286378133111022  0.0348884409479302  1.0000
  H   H229      1.0  0.07036413704696705  0.5397706250034991  0.9383055787655264  1.0000
  H   H230      1.0  0.09159400927522043  0.5855671881920257  0.9422056238959876  1.0000
  H   H231      1.0  0.1435993495240795  0.5589500914516577  0.06675690193899708  1.0000
  H   H232      1.0  0.12363531614585321  0.5129236610293012  0.06049536519122256  1.0000
  C   C349      1.0  0.11135588945887497  0.5569757756311481  0.7418561895377218  1.0000
  C   C350      1.0  0.08907744588332418  0.5671200160308795  0.7124040415814631  1.0000
  C   C351      1.0  0.07356694843933088  0.5899201999787329  0.7290207549476451  1.0000
  C   C352      1.0  0.08020473081822004  0.602546417060586  0.7752052392363357  1.0000
  C   C353      1.0  0.10212940009693956  0.5920164870921957  0.8049355630211447  1.0000
  C   C354      1.0  0.11795620548929395  0.5696285420242048  0.7879015403162278  1.0000
  H   H233      1.0  0.1587313215045847  0.5436523514599803  0.28676270826811456  1.0000
  H   H234      1.0  0.056573236426820994  0.597914321934652  0.7058317337941543  1.0000
  H   H235      1.0  0.10687821099112921  0.6009349503370687  0.8413078783048543  1.0000
  H   H236      1.0  0.13506148589861952  0.5618020424335061  0.811038720908536  1.0000
  C   C355      1.0  0.13459432208603556  0.3558922756766349  0.12818407476982752  1.0000
  C   C356      1.0  0.10935916216881107  0.36050811406466204  0.1543430797560088  1.0000
  C   C357      1.0  0.16920062605361075  0.40899640997052716  0.7459748521473588  1.0000
  C   C358      1.0  0.17130965923974703  0.3812240408155311  0.7577301592965102  1.0000
  C   C359      1.0  0.14364402128415077  0.3162746542594744  0.18144639300266263  1.0000
  C   C360      1.0  0.15107783446433737  0.33306067729142125  0.1401886325953372  1.0000
  H   H237      1.0  0.09623520787765248  0.3778121074394186  0.14480441609244754  1.0000
  H   H238      1.0  0.17275871354539343  0.4240598152360956  0.7751372642669343  1.0000
  H   H239      1.0  0.15715438037782778  0.299432466427625  0.19222614394594295  1.0000
  H   H240      1.0  0.17009187592488512  0.3290789786748907  0.11900685118206411  1.0000
  C   C361      1.0  0.911320073782129  0.33528031399326  0.02947581093636198  1.0000
  C   C362      1.0  0.8957055363298979  0.33600856137220725  0.0748048293406085  1.0000
  C   C363      1.0  0.8674220425410413  0.34403576063157865  0.0740159328723351  1.0000
  C   C364      1.0  0.8549971996891117  0.3525186037870608  0.028301972723321356  1.0000
  C   C365      1.0  0.8707528520349396  0.3525493516747881  0.9831473605425333  1.0000
  C   C366      1.0  0.8988079855326276  0.34350146900341644  0.9835917115590216  1.0000
  H   H241      1.0  0.9051718650389449  0.33010760884725554  0.11056233747452748  1.0000
  H   H242      1.0  0.8552653486682694  0.3440476698712719  0.10895134465485024  1.0000
  H   H243      1.0  0.8611263914746455  0.35903540016767116  0.9477160596119155  1.0000
  H   H244      1.0  0.9107357904922452  0.34302697516449454  0.94847102227223  1.0000
  C   C367      1.0  0.9073303219849226  0.3200865453795872  0.2795681209948875  1.0000
  C   C368      1.0  0.9057183637259333  0.2922395309852263  0.29077714723919357  1.0000
  C   C369      1.0  0.8834011928561666  0.2768782089516164  0.2717901301986383  1.0000
  C   C370      1.0  0.8628595520204552  0.2892416509837549  0.2410037136195915  1.0000
  C   C371      1.0  0.8649802426247746  0.31687894693146224  0.22847251036602523  1.0000
  C   C372      1.0  0.887166583272576  0.33230214655189294  0.24784594899149615  1.0000
  H   H245      1.0  0.9216036097728437  0.28249896498462523  0.3140241767790868  1.0000
  H   H246      1.0  0.8820575651477394  0.25537726430566066  0.2809238261873286  1.0000
  H   H247      1.0  0.8494641953127245  0.326459918564207  0.20415359514865883  1.0000
  H   H248      1.0  0.8884459888766576  0.3538159973426731  0.23874395704410478  1.0000
  C   C373      1.0  0.9899201919125388  0.21224738167944307  0.31416541914218166  1.0000
  C   C374      1.0  0.9823019407064081  0.23218980138536088  0.2782724448598055  1.0000
  C   C375      1.0  0.9812622347767527  0.22561994269207722  0.2263589208409682  1.0000
  C   C376      1.0  0.9872938964157278  0.1990539612644842  0.21052062931370252  1.0000
  C   C377      1.0  0.993273652606684  0.17879677507036415  0.24679496091114395  1.0000
  C   C378      1.0  0.9945923632847257  0.18538946409546259  0.2986007097678278  1.0000
  H   H249      1.0  0.9782595688506459  0.252865892636192  0.29019562204913707  1.0000
  H   H250      1.0  0.9773177362678979  0.24135475801004275  0.19831023381429524  1.0000
  H   H251      1.0  0.9976468578604509  0.1581534888632018  0.23482001566795874  1.0000
  H   H252      1.0  0.021784423992174062  0.17714212390765188  0.8554090726965885  1.0000
  C   C379      1.0  0.05548921136548257  0.3686602507708733  0.3491419846319346  1.0000
  C   C380      1.0  0.07705430139566638  0.37443063998030274  0.31447328800812957  1.0000
  C   C381      1.0  0.0726839232437817  0.3935893294610079  0.2751953373722438  1.0000
  C   C382      1.0  0.04699589581866137  0.40748151843306135  0.2710232598555833  1.0000
  C   C383      1.0  0.02578242837217326  0.4023187114952681  0.30677339826439587  1.0000
  C   C384      1.0  0.029885859812670335  0.3827225798243927  0.3452731603556709  1.0000
  H   H253      1.0  0.0009063925437369225  0.3887277007342525  0.8387947951871014  1.0000
  H   H254      1.0  0.08892634377027964  0.39676865812055495  0.24730518835943593  1.0000
  H   H255      1.0  0.005954279327922141  0.41319565445268824  0.3044174779159339  1.0000
  H   H256      1.0  0.01327527429073716  0.3787852756967838  0.3723101182533066  1.0000
  N   N1        1.0  0.5213987076691189  0.8827116687607471  0.9960857487675435  1.0000
  C   C385      1.0  0.5040560693634069  0.8990576503043696  0.9603361096974002  1.0000
  C   C386      1.0  0.5432537227746574  0.8677104386378687  0.9673424520261638  1.0000
  C   C387      1.0  0.5033373254444892  0.8630576491874825  0.0235506960461509  1.0000
  C   C388      1.0  0.5350483068716064  0.9009274282502839  0.0330623529531231  1.0000
  H   H257      1.0  0.4876422488578394  0.9110735235147597  0.980734610448585  1.0000
  H   H258      1.0  0.49316377076310414  0.8858360245491255  0.9324842847418788  1.0000
  H   H259      1.0  0.517043153736164  0.9136441007955987  0.9379521586400059  1.0000
  H   H260      1.0  0.5565050860755448  0.8549495893008419  0.9931204340017369  1.0000
  H   H261      1.0  0.5338481817782399  0.8537968949465164  0.9390915263283471  1.0000
  H   H262      1.0  0.5574113769336645  0.8818406553513701  0.9462359389844702  1.0000
  H   H263      1.0  0.5157177309864789  0.8505054887647446  0.05115634017498194  1.0000
  H   H264      1.0  0.49301041932581186  0.8487809817200147  0.9967129181412799  1.0000
  H   H265      1.0  0.4863013524106624  0.8735801792843166  0.045193337800319755  1.0000
  H   H266      1.0  0.5192807804274038  0.9124753754286064  0.05590418715782475  1.0000
  H   H267      1.0  0.5486763989118599  0.9161048102727736  0.013417578680012143  1.0000
  H   H268      1.0  0.5486957147022404  0.8891851950960546  0.06001412986575705  1.0000
  N   N2        1.0  0.8628335833062061  0.719645978199645  0.03305137088078247  1.0000
  C   C389      1.0  0.8762957951204078  0.706876282732505  0.9882513577819446  1.0000
  C   C390      1.0  0.8336473768801876  0.7275907258217319  0.02013010782015745  1.0000
  C   C391      1.0  0.8787446383174982  0.7441337110351125  0.04756516433365787  1.0000
  C   C392      1.0  0.8627061391133415  0.7000564842581265  0.07614677372976675  1.0000
  H   H269      1.0  0.8983435260900772  0.7004465583422688  0.9963738514610645  1.0000
  H   H270      1.0  0.8770449468559506  0.7212796172407209  0.9553660962505204  1.0000
  H   H271      1.0  0.8647349269672351  0.6885364578822156  0.975487455786687  1.0000
  H   H272      1.0  0.8231949205909133  0.7383807407142339  0.05230149386796046  1.0000
  H   H273      1.0  0.8329868882817976  0.7416481222200254  0.986627147237145  1.0000
  H   H274      1.0  0.8207031378284874  0.7095596801881153  0.010681998906968193  1.0000
  H   H275      1.0  0.8698583809525997  0.7535041513613501  0.08263156197564658  1.0000
  H   H276      1.0  0.8780419141571196  0.7599147265545982  0.016878832083161655  1.0000
  H   H277      1.0  0.9012060496324659  0.739132230662853  0.055252218908439454  1.0000
  H   H278      1.0  0.8511880592955514  0.681165981193203  0.06636869842844662  1.0000
  H   H279      1.0  0.8523466545002633  0.7089552952055532  0.11043320572677895  1.0000
  H   H280      1.0  0.8844499003753762  0.6940448905588047  0.08740436498668203  1.0000
  N   N3        1.0  0.03036113131525231  0.6661500802229977  0.16138095283380482  1.0000
  C   C393      1.0  0.008018578113096142  0.6573153308855105  0.12625592163689436  1.0000
  C   C394      1.0  0.026276135499756936  0.6953141067850124  0.17352540754611323  1.0000
  C   C395      1.0  0.05811048943409913  0.6621554970575824  0.13694504640188776  1.0000
  C   C396      1.0  0.028997888986765696  0.6497708938847059  0.20881424508488158  1.0000
  H   H281      1.0  0.9868091754645991  0.6600150098873953  0.14361893927845837  1.0000
  H   H282      1.0  0.010608505424964942  0.6354522876968419  0.11601114209912122  1.0000
  H   H283      1.0  0.008338525593616808  0.6693214233285786  0.09009630670424773  1.0000
  H   H284      1.0  0.027342828598195368  0.7082465149460911  0.1384583461229245  1.0000
  H   H285      1.0  0.005464281898634571  0.6990748184912247  0.19183317317807203  1.0000
  H   H286      1.0  0.04260683338954374  0.7026129841645334  0.2004690361874315  1.0000
  H   H287      1.0  0.0619510721532075  0.6403151817479732  0.12754169428531048  1.0000
  H   H288      1.0  0.07538783377436986  0.668557394814861  0.1626215315358677  1.0000
  H   H289      1.0  0.059812252742815764  0.6741427521400967  0.10081224102391895  1.0000
  H   H290      1.0  0.045205879725895404  0.6562227384199396  0.23671380971161904  1.0000
  H   H291      1.0  0.032684831629336  0.6277183331389352  0.201228183862461  1.0000
  H   H292      1.0  0.008133544994689101  0.6517582003306714  0.227622509768872  1.0000
  N   N4        1.0  0.09658081646628178  0.9349254789517892  0.6543694516134629  1.0000
  C   C397      1.0  0.08220281912383422  0.9158379364903904  0.6199496365917565  1.0000
  C   C398      1.0  0.08008780486625211  0.9605151084305207  0.6579130218259789  1.0000
  C   C399      1.0  0.12488327881408415  0.9409076451160822  0.6340015453744077  1.0000
  C   C400      1.0  0.09911545952084701  0.9224518319620294  0.7056351822673321  1.0000
  H   H293      1.0  0.07997955935936724  0.9246363983109988  0.580873502380011  1.0000
  H   H294      1.0  0.060710013569043264  0.9110258963925377  0.6339860797926865  1.0000
  H   H295      1.0  0.09414596206566517  0.8963354178303145  0.616364777020385  1.0000
  H   H296      1.0  0.07693488913614231  0.9700597700972124  0.6196817922798199  1.0000
  H   H297      1.0  0.05896672031567385  0.9568885801492616  0.6748864941387456  1.0000
  H   H298      1.0  0.09075691296759976  0.9756570504299941  0.6825333053794029  1.0000
  H   H299      1.0  0.13631374663675652  0.9553197625806745  0.6589672520057488  1.0000
  H   H300      1.0  0.12365902843251526  0.9502796156908719  0.5952171204670895  1.0000
  H   H301      1.0  0.13801022365536364  0.9220497185013063  0.6310209789946516  1.0000
  H   H302      1.0  0.11183348913443414  0.9033142122606078  0.7047041961039644  1.0000
  H   H303      1.0  0.07813183483652876  0.9175515506367076  0.7220462721547974  1.0000
  H   H304      1.0  0.10929644867512002  0.9366185014775512  0.7328553030422065  1.0000
  N   N5        1.0  0.20415491849182005  0.23452261418691864  0.05491080942140392  1.0000
  C   C401      1.0  0.18757838789076856  0.24298755091681093  0.09997612101761112  1.0000
  C   C402      1.0  0.2342084599794017  0.2402231242515572  0.0637537159923458  1.0000
  C   C403      1.0  0.1944469468066743  0.24990593115028295  0.009471344483649835  1.0000
  C   C404      1.0  0.20043675281131457  0.20499293117467057  0.04650047315295125  1.0000
  H   H305      1.0  0.19491458486668073  0.2322559624055938  0.13514282221142548  1.0000
  H   H306      1.0  0.16485673940386897  0.23842527976911881  0.0953185326257928  1.0000
  H   H307      1.0  0.18961298653622824  0.265225694395891  0.10717272704970982  1.0000
  H   H308      1.0  0.24734817670294942  0.23474981969594744  0.030112453673454054  1.0000
  H   H309      1.0  0.23765318333561183  0.2622493190974124  0.07126850657125106  1.0000
  H   H310      1.0  0.24242124241193444  0.22879077219865904  0.09748413456447391  1.0000
  H   H311      1.0  0.1718973188739577  0.24603685391533628  0.0013805728234517198  1.0000
  H   H312      1.0  0.20669111375497903  0.24417010051319296  0.9748130883031236  1.0000
  H   H313      1.0  0.19708343236797463  0.27226902702387534  0.014575430667311595  1.0000
  H   H314      1.0  0.21212170623712773  0.19799741820192918  0.01208966315238702  1.0000
  H   H315      1.0  0.1778756751303862  0.19980210528785244  0.041148161784364756  1.0000
  H   H316      1.0  0.20818839546681728  0.19277868290772057  0.07962385914536553  1.0000
  N   N6        1.0  0.4047467820418217  0.38713012757007526  0.3034152940025685  1.0000
  C   C405      1.0  0.3882915580091949  0.3617709211005653  0.3003501600023669  1.0000
  C   C406      1.0  0.3929265157320921  0.40488571482574676  0.3435847292840743  1.0000
  C   C407      1.0  0.4034090467083649  0.40154938638687315  0.25382198819551494  1.0000
  C   C408      1.0  0.43433530183208024  0.3803229060303869  0.31554980306637337  1.0000
  H   H317      1.0  0.38829812913266043  0.3504075679369631  0.33708876361013285  1.0000
  H   H318      1.0  0.39695843475713544  0.34780228111851447  0.27083024779815207  1.0000
  H   H319      1.0  0.365893048370337  0.36595166529579726  0.2905964389253756  1.0000
  H   H320      1.0  0.39432280008019854  0.3950552026916677  0.3817498428058405  1.0000
  H   H321      1.0  0.4044536693693377  0.4244734140282644  0.3459969055858818  1.0000
  H   H322      1.0  0.3702965896137641  0.40953900093365647  0.33670534128202767  1.0000
  H   H323      1.0  0.38150874995052436  0.407845917017574  0.24439805216805327  1.0000
  H   H324      1.0  0.41100504861703346  0.3882707848914078  0.22239657534006385  1.0000
  H   H325      1.0  0.4167676517967321  0.42006508772979295  0.253616083401091  1.0000
  H   H326      1.0  0.44399923381639345  0.36719359725912043  0.28559628901762696  1.0000
  H   H327      1.0  0.4361298091203082  0.36928177504650656  0.3526682994210806  1.0000
  H   H328      1.0  0.4473868131316878  0.39897309760017363  0.31841193569969595  1.0000
  N   N7        1.0  0.663976114475485  0.31097860449954823  0.5418102032568172  1.0000
  C   C409      1.0  0.6776856089810491  0.3260542512337941  0.4997562400385754  1.0000
  C   C410      1.0  0.6753646847956528  0.32007788098275886  0.5911866597574313  1.0000
  C   C411      1.0  0.669579222507409  0.28151538278589044  0.5358028606711012  1.0000
  C   C412      1.0  0.6333289767506346  0.3161849106859908  0.5406505733507158  1.0000
  H   H329      1.0  0.6692483524681216  0.32005316363543207  0.46196055815500897  1.0000
  H   H330      1.0  0.7007879335069434  0.3221222220872759  0.4991036563680851  1.0000
  H   H331      1.0  0.6744278598382847  0.34841730647623986  0.5036038965033579  1.0000
  H   H332      1.0  0.665825841088515  0.3087539691765422  0.6237369765320138  1.0000
  H   H333      1.0  0.6985163664663178  0.3168365895498759  0.5931625708388093  1.0000
  H   H334      1.0  0.6712002511608604  0.3421708873955877  0.5974146154846397  1.0000
  H   H335      1.0  0.6620775043333107  0.2739892399172045  0.49834041789571093  1.0000
  H   H336      1.0  0.6587926570496359  0.26958617640211235  0.565970870540401  1.0000
  H   H337      1.0  0.6924715301604087  0.2767016340859178  0.5386358219514082  1.0000
  H   H338      1.0  0.6223938230504882  0.3049810959103815  0.5718937286195493  1.0000
  H   H339      1.0  0.6239052194977922  0.30973147115149635  0.5038833160627909  1.0000
  H   H340      1.0  0.6283905561020863  0.33827502176215946  0.5452412287457319  1.0000
  N   N8        1.0  0.6622413904588439  0.13445133664249545  0.6337269239772906  1.0000
  C   C413      1.0  0.6336044603113328  0.14601641991263525  0.6288633916617778  1.0000
  C   C414      1.0  0.6764209594950946  0.1469673565925033  0.6777657915859928  1.0000
  C   C415      1.0  0.6784322583472813  0.1401650000966953  0.5867122018949373  1.0000
  C   C416      1.0  0.6604202376774642  0.10462702639164449  0.6415083345667315  1.0000
  H   H341      1.0  0.6207718167718  0.14172256366900635  0.6634830012463278  1.0000
  H   H342      1.0  0.6224344323858956  0.13748998758202752  0.5953628935338949  1.0000
  H   H343      1.0  0.6338828665630356  0.16847914745031392  0.6240830374426625  1.0000
  H   H344      1.0  0.6981220236324142  0.13875647363748073  0.6826510068186092  1.0000
  H   H345      1.0  0.6782234120191004  0.16948780444566677  0.6727501859671001  1.0000
  H   H346      1.0  0.6646704734269283  0.14319767275123665  0.7138729534817011  1.0000
  H   H347      1.0  0.7001023742310025  0.1315448826716803  0.5890164027071018  1.0000
  H   H348      1.0  0.6806094121394184  0.16245955483918753  0.579917020018768  1.0000
  H   H349      1.0  0.6681397461337569  0.13134196390148492  0.5525576810157352  1.0000
  H   H350      1.0  0.681564391449564  0.09511302578293608  0.646158096689343  1.0000
  H   H351      1.0  0.6501478046760691  0.09459723123912586  0.6084987460730893  1.0000
  H   H352      1.0  0.6477789457910855  0.09939660455593519  0.6759380075630567  1.0000
  N   N9        1.0  0.842310154984529  0.8357685248625532  0.1319557922961312  1.0000
  C   C417      1.0  0.8347725159491115  0.8536965804025672  0.08847843852786252  1.0000
  C   C418      1.0  0.8602143454483772  0.8507019734418958  0.16812864296107266  1.0000
  C   C419      1.0  0.8578379629948373  0.8117106590558985  0.11287122017806284  1.0000
  C   C420      1.0  0.8164375983372074  0.8267905703329128  0.15826347658752704  1.0000
  H   H353      1.0  0.8214575485145478  0.8427952462434166  0.060408727883200175  1.0000
  H   H354      1.0  0.8538052882847862  0.8606685529996241  0.0675014808892509  1.0000
  H   H355      1.0  0.8229306963788068  0.8720747093896956  0.10123957240337678  1.0000
  H   H356      1.0  0.8659776571870835  0.8377008194194381  0.2015901275115306  1.0000
  H   H357      1.0  0.8802233935977447  0.857294710702913  0.14995714074270183  1.0000
  H   H358      1.0  0.8493632395174654  0.8691636238274557  0.1831195732756723  1.0000
  H   H359      1.0  0.8649136117958977  0.7983254560998039  0.14478357863879388  1.0000
  H   H360      1.0  0.8767240950141639  0.8176631108872014  0.090451745642804  1.0000
  H   H361      1.0  0.8443549681016581  0.7991703281322668  0.08772386756679995  1.0000
  H   H362      1.0  0.8041012374910226  0.8443516845292136  0.17326140241435128  1.0000
  H   H363      1.0  0.8213681328345741  0.8130195185583411  0.19099885806996042  1.0000
  H   H364      1.0  0.802575426846067  0.8151679985308934  0.1322214867581042  1.0000
  N   N10       1.0  0.8863061228526102  0.21358315915003423  0.7196828373225288  1.0000
  C   C421      1.0  0.9007498008937469  0.23997766553745045  0.7134343988519964  1.0000
  C   C422      1.0  0.8724211356060556  0.20629651267929483  0.6713648127349422  1.0000
  C   C423      1.0  0.8649182278673928  0.2159072548738543  0.7604348762876434  1.0000
  C   C424      1.0  0.9070450165309274  0.19216403283133468  0.7333902717028824  1.0000
  H   H365      1.0  0.9119852990978745  0.245894603507176  0.748840280636902  1.0000
  H   H366      1.0  0.8855744384841604  0.2567096863982492  0.7044092126358057  1.0000
  H   H367      1.0  0.9164345712075468  0.23926829287621915  0.6819018195809851  1.0000
  H   H368      1.0  0.8611860815106794  0.1865588312374631  0.6745474936430804  1.0000
  H   H369      1.0  0.8566460310270234  0.22201748569514523  0.6597956734553494  1.0000
  H   H370      1.0  0.8878341129532747  0.2043938536301877  0.6395235722677618  1.0000
  H   H371      1.0  0.8484617927992297  0.23132342905851244  0.7503660850810127  1.0000
  H   H372      1.0  0.874481865398477  0.2222448425417547  0.7971523771165647  1.0000
  H   H373      1.0  0.854007642463434  0.19621734114775063  0.7670520369395335  1.0000
  H   H374      1.0  0.9181352042956162  0.19702159725329246  0.7695184187988412  1.0000
  H   H375      1.0  0.9233257420645143  0.18969471997798298  0.7030975018556512  1.0000
  H   H376      1.0  0.896896583109141  0.1719768884776285  0.7385979829970666  1.0000
  N   N11       1.0  0.9830541413837035  0.36601108059997467  0.17906196465679636  1.0000
  C   C425      1.0  0.9702208919195706  0.3897650610655763  0.20486526953643147  1.0000
  C   C426      1.0  0.9605948609607545  0.34828373208447716  0.15959172351617235  1.0000
  C   C427      1.0  0.000648959821265338  0.3505020035571926  0.21570692225494614  1.0000
  C   C428      1.0  0.0006854382044425567  0.37551341402875  0.1360788699746318  1.0000
  H   H377      1.0  0.957273515853953  0.38337174480758307  0.2382628622395393  1.0000
  H   H378      1.0  0.9563766603026321  0.40163567068861433  0.17860187170948527  1.0000
  H   H379      1.0  0.9865210111596961  0.40390573925611367  0.21906522170780618  1.0000
  H   H380      1.0  0.9469750613515897  0.3593725062584297  0.1317167132345094  1.0000
  H   H381      1.0  0.9694633485037366  0.33023981060579105  0.1395014273487012  1.0000
  H   H382      1.0  0.9468684207903596  0.3408303806429113  0.19112577514632778  1.0000
  H   H383      1.0  0.9882672470854726  0.34403397919777906  0.24972471605371682  1.0000
  H   H384      1.0  0.01841395776576138  0.36296381959616025  0.22969526683087094  1.0000
  H   H385      1.0  0.0098794983717716  0.3318996467093622  0.19810840146724495  1.0000
  H   H386      1.0  0.010676120700625402  0.3580979053410391  0.11571954793271466  1.0000
  H   H387      1.0  0.017816372622409204  0.38904727563115793  0.14952073619893436  1.0000
  H   H388      1.0  0.9880586324021376  0.3872849886226734  0.10767754382734385  1.0000
  N   N12       1.0  0.9842119660258781  0.10095505145982031  0.40693713619896743  1.0000
  C   C429      1.0  0.013567823053442176  0.11014823047567335  0.40226783431089336  1.0000
  C   C430      1.0  0.9650263506693075  0.12423441039313143  0.39695028232267204  1.0000
  C   C431      1.0  0.9793994658253004  0.09026761396144756  0.45908539309229796  1.0000
  C   C432      1.0  0.9790454265307686  0.07919638988625488  0.36939305867943073  1.0000
  H   H389      1.0  0.02844625545617929  0.09277747793560165  0.4073730208323589  1.0000
  H   H390      1.0  0.018758426175262466  0.125582152053205  0.43165680408385515  1.0000
  H   H391      1.0  0.017714439037557875  0.11936638489524376  0.36411725055804267  1.0000
  H   H392      1.0  0.9426406806375672  0.1182325505636761  0.40121710598841914  1.0000
  H   H393      1.0  0.9689590696108723  0.14132875509078868  0.4237083668614314  1.0000
  H   H394      1.0  0.9677890497808849  0.13237075095395578  0.3574899977148672  1.0000
  H   H395      1.0  0.9574685401605041  0.08306486401953772  0.4642208099407216  1.0000
  H   H396      1.0  0.9835056312016349  0.10605687973258537  0.48843491128985905  1.0000
  H   H397      1.0  0.9937198317130467  0.07279228239201063  0.4679048961101739  1.0000
  H   H398      1.0  0.9835868313359769  0.08626153814332826  0.3297448255226393  1.0000
  H   H399      1.0  0.9568797541524416  0.07220311459584283  0.37065997454228555  1.0000
  H   H400      1.0  0.992687497038808  0.061023978274641344  0.37668249070591825  1.0000
  N   N13       1.0  0.4627592256422524  0.401457802407193  0.9996056853273912  1.0000
  C   C433      1.0  0.4676514425017885  0.41631898025321795  0.9512198841414096  1.0000
  C   C434      1.0  0.4341954585455991  0.3897698661647067  0.9998050398399888  1.0000
  C   C435      1.0  0.4655385830785074  0.42046380824573193  0.04278881913030741  1.0000
  C   C436      1.0  0.48375729628283126  0.37925866886711956  0.004760488389625284  1.0000
  H   H401      1.0  0.4890799990708465  0.4253435670418999  0.9501469265543763  1.0000
  H   H402      1.0  0.4522306209868327  0.4332959207036467  0.9460307065948685  1.0000
  H   H403      1.0  0.4657890986595933  0.40256855047953694  0.9178263168306462  1.0000
  H   H404      1.0  0.4297615705421835  0.37873017539199677  0.036191235042907444  1.0000
  H   H405      1.0  0.4177288870117595  0.40583419551544164  0.9953602152520599  1.0000
  H   H406      1.0  0.4313946176845644  0.3748288991292754  0.9684573778465987  1.0000
  H   H407      1.0  0.46113225561900484  0.41008955309682016  0.07980940373691081  1.0000
  H   H408      1.0  0.4506263803573515  0.43796221322263756  0.03946192872481813  1.0000
  H   H409      1.0  0.48718564889273985  0.4288779748412364  0.045096251735570636  1.0000
  H   H410      1.0  0.48068001991685494  0.36772441103582293  0.040890181128564684  1.0000
  H   H411      1.0  0.505614183304776  0.38725242902709683  0.0050981399935698946  1.0000
  H   H412      1.0  0.4822886711432892  0.3643926478508459  0.9730567166485085  1.0000
  N   N14       1.0  0.13794821479705638  0.8153517987026556  0.8500879465626278  1.0000
  C   C437      1.0  0.11937570349928833  0.7921224178911397  0.8393107992005634  1.0000
  C   C438      1.0  0.16740455745732252  0.8056934158386517  0.8528907384317786  1.0000
  C   C439      1.0  0.1297991246671071  0.8276791686407081  0.899299912359947  1.0000
  C   C440      1.0  0.1351909188248118  0.8358773867771245  0.8088273302005861  1.0000
  H   H413      1.0  0.09697289366257188  0.7986754111303155  0.8374880620040994  1.0000
  H   H414      1.0  0.12110439936580383  0.7761243789350212  0.8695355170583989  1.0000
  H   H415      1.0  0.12495536449317451  0.7823973707569557  0.8023485408476454  1.0000
  H   H416      1.0  0.18190207917048612  0.8227255997793307  0.861539905363529  1.0000
  H   H417      1.0  0.17009566474296597  0.789605910103758  0.8827624200845045  1.0000
  H   H418      1.0  0.1743715896913596  0.7966355301341598  0.8161505238827027  1.0000
  H   H419      1.0  0.1432298338839276  0.8454457220288344  0.9085421621220003  1.0000
  H   H420      1.0  0.1316676673734843  0.8127214082035197  0.9312726436498265  1.0000
  H   H421      1.0  0.1076135871755336  0.8350257144336003  0.8987160041685187  1.0000
  H   H422      1.0  0.1487422504001973  0.853795654000473  0.81591614253337  1.0000
  H   H423      1.0  0.11319488930223331  0.8435067992067069  0.805424728276479  1.0000
  H   H424      1.0  0.14150183582648018  0.8273183880193552  0.7712298069435577  1.0000
  N   N15       1.0  0.2828034894008994  0.8701144922367426  0.41825743193973125  1.0000
  C   C441      1.0  0.2908431905214547  0.8929930282884293  0.384424495308904  1.0000
  C   C442      1.0  0.2895466127445306  0.8768469000794481  0.4716899064392893  1.0000
  C   C443      1.0  0.29854846954772685  0.845372314554367  0.40318690953566166  1.0000
  C   C444      1.0  0.2523144931890787  0.8651265639174058  0.41368542504941164  1.0000
  H   H425      1.0  0.27874751676609927  0.9118852306557429  0.39349512328862374  1.0000
  H   H426      1.0  0.2865242658586245  0.888245002836005  0.343753597345044  1.0000
  H   H427      1.0  0.3136377206360734  0.8975874059934829  0.38747414358178445  1.0000
  H   H428      1.0  0.2838134921646404  0.8598635099093929  0.4981215410500241  1.0000
  H   H429      1.0  0.3124132226973767  0.880587524868228  0.47659916672697744  1.0000
  H   H430      1.0  0.2779066371695327  0.8953740348601041  0.48442223096147347  1.0000
  H   H431      1.0  0.29286287538950045  0.8276893322456209  0.42764661587471187  1.0000
  H   H432      1.0  0.3216691345956364  0.8482282552755832  0.40652796503206745  1.0000
  H   H433      1.0  0.2940865446395052  0.8397878304271319  0.36296335404383717  1.0000
  H   H434      1.0  0.24538653875081753  0.8486461519895241  0.4401868524418877  1.0000
  H   H435      1.0  0.24660688171848294  0.8591068936246243  0.3742083563347055  1.0000
  H   H436      1.0  0.23976734186157528  0.8837686761940906  0.4226276895372274  1.0000
  N   N16       1.0  0.5821112675363931  0.9195235476523178  0.6890783884198688  1.0000
  C   C445      1.0  0.5631396871960566  0.8964007380916252  0.6796680489792977  1.0000
  C   C446      1.0  0.5992086599088328  0.9137684568963049  0.7349714632859146  1.0000
  C   C447      1.0  0.5651645407113506  0.944575001754923  0.6965847984445765  1.0000
  C   C448      1.0  0.600953571767316  0.9233453485679952  0.6447748676732935  1.0000
  H   H437      1.0  0.5502678401549588  0.8999298866274105  0.6448546139291403  1.0000
  H   H438      1.0  0.5483088639558207  0.893195127341633  0.712056403701264  1.0000
  H   H439      1.0  0.5750821806249018  0.8770683882400196  0.6739674529133313  1.0000
  H   H440      1.0  0.5858459895641779  0.9100729505395605  0.769050570935344  1.0000
  H   H441      1.0  0.6126353273142469  0.8952944700391715  0.7297944197783125  1.0000
  H   H442      1.0  0.6133397721556193  0.9310311645024447  0.7440930344136171  1.0000
  H   H443      1.0  0.5506380805605854  0.942538975342375  0.7297584391942712  1.0000
  H   H444      1.0  0.5520216149910819  0.9492503566951002  0.6624895145362477  1.0000
  H   H445      1.0  0.5787505437259284  0.9625381755083616  0.7029669689306538  1.0000
  H   H446      1.0  0.6159592294264497  0.9402710663542846  0.6509527208290462  1.0000
  H   H447      1.0  0.5888325792736588  0.9283816182364755  0.6097387109783956  1.0000
  H   H448      1.0  0.6134821162413177  0.9045603514888405  0.636806172837759  1.0000
  N   N17       1.0  0.5363937084512288  0.6662905948938272  0.5345558787983045  1.0000
  C   C449      1.0  0.5165169008407807  0.6701272085085608  0.49177737359613327  1.0000
  C   C450      1.0  0.5206973313790714  0.6656001347367674  0.5832745177439945  1.0000
  C   C451      1.0  0.556339004576986  0.6892107333649645  0.535155636759453  1.0000
  C   C452      1.0  0.5520366136159859  0.6403407239965846  0.5282022847228116  1.0000
  H   H449      1.0  0.5041402687180483  0.6893842023459243  0.4958469278658435  1.0000
  H   H450      1.0  0.5013894674082432  0.6530146450827998  0.48945682885781056  1.0000
  H   H451      1.0  0.5276746093437452  0.6713558681421501  0.4544491099878142  1.0000
  H   H452      1.0  0.5350743416004132  0.6625742975902127  0.6163345293669384  1.0000
  H   H453      1.0  0.5089606592516559  0.6850215062356417  0.5898614715261407  1.0000
  H   H454      1.0  0.5052445879463698  0.6487099908044612  0.5842076738658567  1.0000
  H   H455      1.0  0.5712128254264266  0.687412022185904  0.5677390015174832  1.0000
  H   H456      1.0  0.5451202885157427  0.7090561025282961  0.5389833035517028  1.0000
  H   H457      1.0  0.5687672852238904  0.6902627279429512  0.49916024981528356  1.0000
  H   H458      1.0  0.5671887907187653  0.6368020574978589  0.5599322453266644  1.0000
  H   H459      1.0  0.5640783088954906  0.6400182631951657  0.4918230667648098  1.0000
  H   H460      1.0  0.5376750288213706  0.6225389773560869  0.5275496925558636  1.0000
  N   N18       1.0  0.12534380121618316  0.40984552058971657  0.9220469475559537  1.0000
  C   C453      1.0  0.10935071277333952  0.3929503729964295  0.8860184777182916  1.0000
  C   C454      1.0  0.14082738002761297  0.43106703603395335  0.8935542210449019  1.0000
  C   C455      1.0  0.14547337989599973  0.3924183098265101  0.9504850441072801  1.0000
  C   C456      1.0  0.1056884624024772  0.4228926573110418  0.9583017710238503  1.0000
  H   H461      1.0  0.09354204609582784  0.4052689533643268  0.8645936899961005  1.0000
  H   H462      1.0  0.09783841138426252  0.3764343993441892  0.906259283107153  1.0000
  H   H463      1.0  0.12338544919372274  0.3830777123650887  0.8574746339016636  1.0000
  H   H464      1.0  0.15280164044725897  0.4444156071722686  0.9197727340142816  1.0000
  H   H465      1.0  0.15618724494357172  0.4217984949670578  0.8664935866415788  1.0000
  H   H466      1.0  0.1263520643369178  0.44431340803346125  0.8709663441286312  1.0000
  H   H467      1.0  0.16069555590526385  0.3822208243289431  0.9243912828631464  1.0000
  H   H468      1.0  0.1345201856502931  0.37616390868625665  0.9725001083378592  1.0000
  H   H469      1.0  0.1577726719235497  0.40446437255494794  0.978368989701421  1.0000
  H   H470      1.0  0.11700745409094471  0.43587345146836015  0.9860182828010823  1.0000
  H   H471      1.0  0.09376765645491525  0.4073971028529821  0.9805300996322267  1.0000
  H   H472      1.0  0.0901230982742347  0.43624751421689345  0.9384777371224696  1.0000
  N   N19       1.0  0.7159089409845222  0.8596385115479352  0.8688702537026819  1.0000
  C   C457      1.0  0.6992392576841976  0.882198122945947  0.89105200270367  1.0000
  C   C458      1.0  0.7290346088527551  0.8689764064852258  0.8207322279706311  1.0000
  C   C459      1.0  0.6972890397935374  0.8363581625514958  0.8584998492536031  1.0000
  C   C460      1.0  0.738002236707774  0.8510295964483734  0.9052333982661976  1.0000
  H   H473      1.0  0.6889921258802574  0.8759267957048779  0.9274718580260699  1.0000
  H   H474      1.0  0.6823333742751286  0.8891160832562969  0.8645658568990522  1.0000
  H   H475      1.0  0.7124962477197304  0.9002032896079569  0.8992545024092227  1.0000
  H   H476      1.0  0.7420225334089807  0.8526013757199  0.8031322383020906  1.0000
  H   H477      1.0  0.7129094584222878  0.8750070289087483  0.7919899247516796  1.0000
  H   H478      1.0  0.7429636069165959  0.886736407079782  0.8269387604162621  1.0000
  H   H479      1.0  0.7093892600314058  0.8184917001781904  0.8439583996330764  1.0000
  H   H480      1.0  0.6811609416871015  0.8416550176941404  0.8293362358987968  1.0000
  H   H481      1.0  0.6861306720962388  0.8295160531437391  0.893646948706596  1.0000
  H   H482      1.0  0.728718574150744  0.8430496688348388  0.9413578747240969  1.0000
  H   H483      1.0  0.7521103669284785  0.8681762205923363  0.9149668489546439  1.0000
  H   H484      1.0  0.7513878184605238  0.8344637588720184  0.8891372495410672  1.0000
  N   N20       1.0  0.26736454656206504  0.8408611055100251  0.9485979212908713  1.0000
  C   C461      1.0  0.29833508988789065  0.8402594660218355  0.9443715288113914  1.0000
  C   C462      1.0  0.2574763658691649  0.8694846998453761  0.9510634715399698  1.0000
  C   C463      1.0  0.25871180481258094  0.8262275338695524  0.9954948674147469  1.0000
  C   C464      1.0  0.2550085588775967  0.8275379852420376  0.9035941806619437  1.0000
  H   H485      1.0  0.3057231220979564  0.8512900494943109  0.9096393097542587  1.0000
  H   H486      1.0  0.306606225641015  0.8190103426930849  0.9424360908912177  1.0000
  H   H487      1.0  0.30823960320005633  0.8500237097914152  0.9779118237927229  1.0000
  H   H488      1.0  0.26654832967672953  0.8801193921575736  0.9846181022956065  1.0000
  H   H489      1.0  0.26357918277361986  0.8811587479342546  0.9162509407490634  1.0000
  H   H490      1.0  0.23415401058794538  0.8707990313875095  0.9542696639524576  1.0000
  H   H491      1.0  0.23545878416522723  0.826394103805643  0.00020480948983570002  1.0000
  H   H492      1.0  0.26782902567753974  0.8357460161236211  0.030150424175604984  1.0000
  H   H493      1.0  0.2658692822609204  0.8045699122204373  0.9950665348215122  1.0000
  H   H494      1.0  0.23165905985277693  0.8278276948207473  0.9052888041549285  1.0000
  H   H495      1.0  0.2619215623378022  0.8058600483027554  0.900506352289638  1.0000
  H   H496      1.0  0.2613753617286947  0.8379303601673501  0.8675216138157339  1.0000
  N   N21       1.0  0.6366908155238715  0.09126177394535231  0.9875510720072501  1.0000
  C   C465      1.0  0.6418939611072112  0.08374990456872111  0.041395180357479244  1.0000
  C   C466      1.0  0.6635006029715627  0.09873225595013403  0.9627618834819172  1.0000
  C   C467      1.0  0.6170314668282303  0.11474443589659922  0.9852511061125089  1.0000
  C   C468      1.0  0.624398201335959  0.06778345662917427  0.96083328163165  1.0000
  H   H497      1.0  0.6563394169652108  0.0658952638437012  0.04471492527693588  1.0000
  H   H498      1.0  0.6220161634180883  0.07847438598467141  0.06140755247509899  1.0000
  H   H499      1.0  0.6516326526751401  0.10082956407832418  0.06252591288135712  1.0000
  H   H500      1.0  0.6602861425469835  0.1045784527991802  0.9220843733701735  1.0000
  H   H501      1.0  0.6733921265252669  0.11638767398223318  0.9820422733777745  1.0000
  H   H502      1.0  0.678877622422314  0.08153738684400454  0.9639763542060327  1.0000
  H   H503      1.0  0.6258854624102038  0.13283292110561706  0.0049021243929396885  1.0000
  H   H504      1.0  0.5967024243861622  0.10998258514017198  0.00424368627743732  1.0000
  H   H505      1.0  0.6123305770447534  0.12076971837594169  0.9451365940894889  1.0000
  H   H506      1.0  0.6214750390131316  0.07218886003293204  0.9195232283135395  1.0000
  H   H507      1.0  0.6035786106877136  0.062276972198595626  0.9771247988205916  1.0000
  H   H508      1.0  0.6381571216402611  0.04940311365639771  0.9638528197568829  1.0000
  N   N22       1.0  0.5211693900452768  0.19160550845363095  0.9768225731476384  1.0000
  C   C469      1.0  0.5423694046401782  0.19716757855857073  0.016363370096978302  1.0000
  C   C470      1.0  0.5261695363290417  0.20952023517069135  0.9322185779517537  1.0000
  C   C471      1.0  0.4927441487965561  0.19691091059732804  0.9975799512181716  1.0000
  C   C472      1.0  0.523516345197684  0.16277103545033944  0.9612462721324195  1.0000
  H   H509      1.0  0.5392566618708154  0.18386178250726998  0.05042724546856614  1.0000
  H   H510      1.0  0.5412300252097669  0.21870966828980248  0.029348945191238096  1.0000
  H   H511      1.0  0.5640582356483731  0.19326423527382366  0.002107542727493472  1.0000
  H   H512      1.0  0.5111051198826553  0.20529974153157537  0.9008611306299463  1.0000
  H   H513      1.0  0.524034361668979  0.231418377509948  0.9424358078598739  1.0000
  H   H514      1.0  0.5476475211705847  0.2062993781104415  0.9162446832840637  1.0000
  H   H515      1.0  0.4762397895665626  0.1934361831237595  0.9684475538512737  1.0000
  H   H516      1.0  0.49043890453414846  0.21829167818998724  0.01124314167748186  1.0000
  H   H517      1.0  0.4881335927434697  0.18332857892514254  0.03072193937405543  1.0000
  H   H518      1.0  0.5188991307755015  0.14868859267957218  0.9936181171490831  1.0000
  H   H519      1.0  0.5450906899232434  0.15784664162290254  0.9474575379988779  1.0000
  H   H520      1.0  0.5087573282938695  0.1580391134299708  0.9297204705135365  1.0000
  N   N23       1.0  0.08667834957569981  0.4914054180941231  0.3260872969746454  1.0000
  C   C473      1.0  0.0762265901009243  0.506747211600172  0.2811907328838983  1.0000
  C   C474      1.0  0.09813753339072362  0.46482603789062543  0.3094745074064857  1.0000
  C   C475      1.0  0.06324325840752754  0.48695603853474023  0.3621976403005693  1.0000
  C   C476      1.0  0.10913903838294216  0.5069915919613371  0.35124415125829267  1.0000
  H   H521      1.0  0.0678810906661713  0.5271829943464837  0.2920179857615394  1.0000
  H   H522      1.0  0.05915896740784853  0.49556694189500455  0.2614525836718552  1.0000
  H   H523      1.0  0.09324485660537137  0.5100573023175075  0.25286635780796424  1.0000
  H   H524      1.0  0.10578363088770312  0.4524819115272066  0.3424137218577435  1.0000
  H   H525      1.0  0.08194709176773515  0.45276758677282214  0.2894407875235343  1.0000
  H   H526      1.0  0.11605853841862035  0.46753839488187543  0.2825365646380838  1.0000
  H   H527      1.0  0.04587631364402988  0.47539378878358474  0.34422710556138214  1.0000
  H   H528      1.0  0.05445443618883128  0.5066586540575481  0.3762062576567202  1.0000
  H   H529      1.0  0.07025304971580817  0.47524806056492525  0.3964667192810727  1.0000
  H   H530      1.0  0.1156644699539205  0.4972925694630213  0.38791814076462866  1.0000
  H   H531      1.0  0.10217365386980122  0.5280997203445992  0.3601351015144351  1.0000
  H   H532      1.0  0.12807722489775483  0.508601575401454  0.32648282329108447  1.0000
  N   N24       1.0  0.6309405095218216  0.30823276028249025  0.11268721921447722  1.0000
  C   C477      1.0  0.6011139997639804  0.3080095648888204  0.09711950613719345  1.0000
  C   C478      1.0  0.6447145879260465  0.2823148743474607  0.09794402865181828  1.0000
  C   C479      1.0  0.6326610376924865  0.3113826531567255  0.16861429956287588  1.0000
  C   C480      1.0  0.6452503546971895  0.33126154543054903  0.08723596912166398  1.0000
  H   H533      1.0  0.5900171486943854  0.32695746620825683  0.10926574648178544  1.0000
  H   H534      1.0  0.5897639934698302  0.2905159727433745  0.11446087968481855  1.0000
  H   H535      1.0  0.5989051719991199  0.3066243253687539  0.05500170232855739  1.0000
  H   H536      1.0  0.6672781675478829  0.2819320013512491  0.10928082367664449  1.0000
  H   H537      1.0  0.6344715569541131  0.2645263883515678  0.11676758377909469  1.0000
  H   H538      1.0  0.6437664675434847  0.2791000208836323  0.05604379034288898  1.0000
  H   H539      1.0  0.6220056053911309  0.29427555859310367  0.18885638986595854  1.0000
  H   H540      1.0  0.6225117218797822  0.3307138613785279  0.18120678861144857  1.0000
  H   H541      1.0  0.6549095279003476  0.3116700768511087  0.1817486166679403  1.0000
  H   H542      1.0  0.667748607225449  0.3323392186552464  0.09867868674751024  1.0000
  H   H543      1.0  0.6350694298361452  0.3511082677181954  0.09691147199711136  1.0000
  H   H544      1.0  0.6445777314667269  0.32939427283528133  0.04500810018895307  1.0000
  N   N25       1.0  0.6516477435690048  0.4670511893708639  0.7416091394399345  1.0000
  C   C481      1.0  0.6582777539267002  0.48983907582610514  0.7760348143101491  1.0000
  C   C482      1.0  0.6590978486839166  0.4408668287110486  0.7665537851119262  1.0000
  C   C483      1.0  0.6678671959871001  0.4700807544149841  0.6938398850772355  1.0000
  C   C484      1.0  0.6213066542880049  0.46739541524076417  0.7297928899093492  1.0000
  H   H545      1.0  0.6469028918067125  0.4878997448782253  0.8129403849740868  1.0000
  H   H546      1.0  0.6520908627732283  0.5098413216668821  0.7589726461240857  1.0000
  H   H547      1.0  0.6811016177351779  0.4904564358077069  0.7849354601537926  1.0000
  H   H548      1.0  0.6469144723374575  0.4379083363772045  0.8025488544374159  1.0000
  H   H549      1.0  0.654642490694205  0.42328689622573246  0.7411673334557748  1.0000
  H   H550      1.0  0.6818225890545963  0.43985991691900345  0.7763060743997501  1.0000
  H   H551      1.0  0.6633082595565658  0.4532363902753891  0.6671185004954003  1.0000
  H   H552      1.0  0.6909020177583916  0.4695432478945518  0.7010036783963269  1.0000
  H   H553      1.0  0.6625888319169321  0.48953822455005125  0.6738324097868925  1.0000
  H   H554      1.0  0.61567509449816  0.4507915507646576  0.703068992699186  1.0000
  H   H555      1.0  0.614716184607765  0.48701847583221325  0.7117899898718262  1.0000
  H   H556      1.0  0.6082910931619426  0.46462744134337547  0.7647382853290534  1.0000
  N   N26       1.0  0.6556117488574187  0.47405258152438623  0.2385775688322617  1.0000
  C   C485      1.0  0.634576396379998  0.4674330243810376  0.19937231298819125  1.0000
  C   C486      1.0  0.6827193763677091  0.4608165599950616  0.2256238031903468  1.0000
  C   C487      1.0  0.645875167071147  0.46398546079210146  0.28878673555944107  1.0000
  C   C488      1.0  0.6592247950060197  0.5039319161418601  0.24035934600824443  1.0000
  H   H557      1.0  0.6140645422297545  0.4778153407616419  0.2067432305000199  1.0000
  H   H558      1.0  0.6306239013450297  0.4451357938940681  0.19818935806685964  1.0000
  H   H559      1.0  0.6418110561572542  0.4738005354683506  0.1606731245164119  1.0000
  H   H560      1.0  0.6906336464508808  0.46776957113701173  0.18770255036308336  1.0000
  H   H561      1.0  0.6991599246833893  0.46533203423070724  0.254362390230867  1.0000
  H   H562      1.0  0.6806973149912454  0.4382383241575356  0.2237002537048327  1.0000
  H   H563      1.0  0.6611548976100555  0.4687682053969145  0.31947887186911245  1.0000
  H   H564      1.0  0.643097965921  0.44147278915020666  0.28896892654213324  1.0000
  H   H565      1.0  0.6253253707530525  0.47329488962796007  0.2997612911375666  1.0000
  H   H566      1.0  0.6390120059589912  0.5145708656150921  0.24916956204305551  1.0000
  H   H567      1.0  0.6668402315035453  0.5120285534559477  0.20307188740690574  1.0000
  H   H568      1.0  0.6746764087486796  0.5097615884179434  0.27004630719471684  1.0000
  N   N27       1.0  0.5456938612034766  0.1695393496767288  0.38725173404542884  1.0000
  C   C489      1.0  0.5738050594514119  0.1711836000595913  0.363380550403383  1.0000
  C   C490      1.0  0.5467759453095955  0.18095690835112105  0.43927241751473867  1.0000
  C   C491      1.0  0.5369418119644793  0.1407265469129694  0.3900729907369238  1.0000
  C   C492      1.0  0.525284258260088  0.1852273562778723  0.35609615047676607  1.0000
  H   H569      1.0  0.5897943724626815  0.15930488344209587  0.3853671467440697  1.0000
  H   H570      1.0  0.5812310182557158  0.19258418726398158  0.36049510046064787  1.0000
  H   H571      1.0  0.5737269547739731  0.16275095569156245  0.3240634652767463  1.0000
  H   H572      1.0  0.5624900657471568  0.169998023975067  0.4634196663885477  1.0000
  H   H573      1.0  0.5526272155313042  0.20286420445356676  0.43863325404728976  1.0000
  H   H574      1.0  0.5261426013675059  0.17928925894970013  0.4592099139704594  1.0000
  H   H575      1.0  0.5159479223009074  0.138552780480431  0.40838467534989004  1.0000
  H   H576      1.0  0.5520765132633852  0.12823609886915371  0.41269014579531205  1.0000
  H   H577      1.0  0.5357653649818553  0.13147541838229354  0.35148507255519246  1.0000
  H   H578      1.0  0.5038114001800437  0.184466579392724  0.37295911789379566  1.0000
  H   H579      1.0  0.5240175028573282  0.17705790714788908  0.3165968609055824  1.0000
  H   H580      1.0  0.5313274381618377  0.20705459974324472  0.35279294220831214  1.0000
  N   N28       1.0  0.33531106587563486  0.2693175252697788  0.41528122527322703  1.0000
  C   C493      1.0  0.3510213638712407  0.29151278419907223  0.3900241107895263  1.0000
  C   C494      1.0  0.310089959178732  0.26287999846928517  0.38497312111610393  1.0000
  C   C495      1.0  0.3266305969408403  0.2780195150328448  0.4668511060302077  1.0000
  C   C496      1.0  0.35360991218875504  0.24490441768435547  0.41938601031255635  1.0000
  H   H581      1.0  0.3700885967237699  0.2969390500695736  0.41214180779597753  1.0000
  H   H582      1.0  0.33790464413466664  0.31025874558073097  0.3858150806025533  1.0000
  H   H583      1.0  0.358034042745198  0.28560662229749  0.35104676081968866  1.0000
  H   H584      1.0  0.315836809933733  0.25661061912034494  0.3455127654244  1.0000
  H   H585      1.0  0.29787650005547545  0.24599827479449815  0.4025809418816792  1.0000
  H   H586      1.0  0.2956979437471237  0.2808552933077458  0.38187218337183976  1.0000
  H   H587      1.0  0.3141947878488834  0.2619990470000204  0.48664469769060836  1.0000
  H   H588      1.0  0.31344637026904754  0.2968615211403225  0.46523652265772275  1.0000
  H   H589      1.0  0.34521593966117786  0.2823053432728229  0.49117329248523584  1.0000
  H   H590      1.0  0.3425684887337991  0.22771551295029357  0.43847243230264016  1.0000
  H   H591      1.0  0.3728379552149225  0.24923040431772384  0.442144017042708  1.0000
  H   H592      1.0  0.36065183005489027  0.2378557257178174  0.38110936475581564  1.0000
  N   N29       1.0  0.12094352701103994  0.09549239298068093  0.3984620098625114  1.0000
  C   C497      1.0  0.09429914802733896  0.11108226498846153  0.40094956671268783  1.0000
  C   C498      1.0  0.12008482983557567  0.07285854259384114  0.4359976314095927  1.0000
  C   C499      1.0  0.14459980780076553  0.11372372263389821  0.4103825950401829  1.0000
  C   C500      1.0  0.12463284020300458  0.08431057136726003  0.34659091978982864  1.0000
  H   H593      1.0  0.09070894370186777  0.11973311717803944  0.43962972295285513  1.0000
  H   H594      1.0  0.07617360527937733  0.09782037736696585  0.39233704242680223  1.0000
  H   H595      1.0  0.0939281211459162  0.1281294045114326  0.37274192361476804  1.0000
  H   H596      1.0  0.1400164525232459  0.06084611113013872  0.43610008592706284  1.0000
  H   H597      1.0  0.11649212881648352  0.0805032440893243  0.4754473557987075  1.0000
  H   H598      1.0  0.10273046062964775  0.058480390343125646  0.4275784859131452  1.0000
  H   H599      1.0  0.16510399112113072  0.10269236030055012  0.4087674592714145  1.0000
  H   H600      1.0  0.1424232935521268  0.12253072891369257  0.44925295836804535  1.0000
  H   H601      1.0  0.14582145669141844  0.13112174693703665  0.38291323634055047  1.0000
  H   H602      1.0  0.1445270145628934  0.07238455113809275  0.3432240755804205  1.0000
  H   H603      1.0  0.12509453657592084  0.10077193060664937  0.31717897985099036  1.0000
  H   H604      1.0  0.1070288317923942  0.07061339384305994  0.3362134092853066  1.0000
  N   N30       1.0  0.3669815706297817  0.27977269888253364  0.8238581090703959  1.0000
  C   C501      1.0  0.366836167205563  0.27517606599035255  0.8796698775883304  1.0000
  C   C502      1.0  0.35717513787353095  0.30784199848192656  0.8125723912515169  1.0000
  C   C503      1.0  0.348004906483212  0.2601176305623924  0.7992877968662745  1.0000
  C   C504      1.0  0.39580813043490837  0.275976696259595  0.8037592224808698  1.0000
  H   H605      1.0  0.3745470742714107  0.2543562335907326  0.8897333857597932  1.0000
  H   H606      1.0  0.3452595658561887  0.27738844342703417  0.8957718906224242  1.0000
  H   H607      1.0  0.3803950447714285  0.2900872444093551  0.8997630336101871  1.0000
  H   H608      1.0  0.3583667641192567  0.31247107002027275  0.7710270034860582  1.0000
  H   H609      1.0  0.33487361933344284  0.31090116749898683  0.824488471294856  1.0000
  H   H610      1.0  0.37008826647338383  0.3232496185741533  0.8325634000210661  1.0000
  H   H611      1.0  0.34676613156725805  0.2636596816691047  0.7573155799974101  1.0000
  H   H612      1.0  0.3261612069265165  0.2619774274945921  0.8143627408305688  1.0000
  H   H613      1.0  0.35510500657372734  0.2387091018540974  0.8056789625431655  1.0000
  H   H614      1.0  0.40411218814400723  0.2551306098463003  0.8120573569816285  1.0000
  H   H615      1.0  0.41065533462319087  0.2908009603500742  0.8206496400259005  1.0000
  H   H616      1.0  0.3964758523225046  0.2787419467136874  0.7615782518876599  1.0000
  N   N31       1.0  0.0609268912140124  0.11568516374503245  0.9123128955655452  1.0000
  C   C505      1.0  0.033560081481190274  0.12748350741504502  0.9278671095564989  1.0000
  C   C506      1.0  0.05700339521950104  0.08708129881526679  0.8966564780179849  1.0000
  C   C507      1.0  0.08073424788273242  0.11650913717368533  0.9556253261641429  1.0000
  C   C508      1.0  0.07245476000774076  0.13156312904771308  0.8690689897310999  1.0000
  H   H617      1.0  0.03567631767655177  0.1490319660676172  0.9402152030523193  1.0000
  H   H618      1.0  0.024295931534028536  0.11592062473477836  0.9604310235590929  1.0000
  H   H619      1.0  0.018128759839000974  0.12699747113139545  0.8960658055132746  1.0000
  H   H620      1.0  0.0773746232658894  0.07728370557519236  0.8864797941514667  1.0000
  H   H621      1.0  0.04745970889512363  0.0746937810653459  0.9277768907531564  1.0000
  H   H622      1.0  0.04317845821935551  0.08558282766586671  0.8626153348432104  1.0000
  H   H623      1.0  0.101617210220184  0.10783562816254008  0.9450208642648911  1.0000
  H   H624      1.0  0.07287542818251391  0.10435756789146358  0.9886329284914543  1.0000
  H   H625      1.0  0.08398619549151021  0.13770905546109646  0.969066287807675  1.0000
  H   H626      1.0  0.09325633775347142  0.12330734673833053  0.8567442486014034  1.0000
  H   H627      1.0  0.07528152556311785  0.15334728998549893  0.8791221919891334  1.0000
  H   H628      1.0  0.058411423956307384  0.13071519846378615  0.8351981272177935  1.0000
  N   N32       1.0  0.08629379903838297  0.2689448101554738  0.8526376341085683  1.0000
  C   C509      1.0  0.09132043847799798  0.2391680175552294  0.8537642641288283  1.0000
  C   C510      1.0  0.11282212994076635  0.2832785480845551  0.8414569078984261  1.0000
  C   C511      1.0  0.07537241930014571  0.2778086042158219  0.9026942450828165  1.0000
  C   C512      1.0  0.06552761476844937  0.2755279853208043  0.8125634065342272  1.0000
  H   H629      1.0  0.1080640112851401  0.23345785431385116  0.8815258421920893  1.0000
  H   H630      1.0  0.09812172709659084  0.23160359911830258  0.8157950559230063  1.0000
  H   H631      1.0  0.07191558570006507  0.2278947629916256  0.8644549677515666  1.0000
  H   H632      1.0  0.10963469656204516  0.30580253037282706  0.8401793291770371  1.0000
  H   H633      1.0  0.12904068046625916  0.27867603289759774  0.8708498070676282  1.0000
  H   H634      1.0  0.12179469677412258  0.2769366695020458  0.8041244889206135  1.0000
  H   H635      1.0  0.07077296551177792  0.3001227316138205  0.902903272507388  1.0000
  H   H636      1.0  0.09069099305796069  0.27338814192326105  0.9336973087549952  1.0000
  H   H637      1.0  0.05556004926109104  0.267069982230906  0.9126258843064649  1.0000
  H   H638      1.0  0.060645859166051475  0.29778109675838926  0.8114600763449099  1.0000
  H   H639      1.0  0.04552406078013749  0.26444491031455114  0.8193105354619549  1.0000
  H   H640      1.0  0.0734456487480033  0.26960274148189733  0.774209879055859  1.0000
  N   N33       1.0  0.060683979773510144  0.500752413091523  0.8264472272619303  1.0000
  C   C513      1.0  0.03853364263434633  0.5094343367228654  0.8626189115743186  1.0000
  C   C514      1.0  0.08830197251491945  0.5101941257607202  0.8446108915279334  1.0000
  C   C515      1.0  0.05488344128162703  0.5126614266876122  0.7755923633586953  1.0000
  C   C516      1.0  0.06097603808287144  0.4707093458813326  0.8229150839251668  1.0000
  H   H641      1.0  0.017433865030121787  0.5025075716811299  0.8501895341317844  1.0000
  H   H642      1.0  0.03759915675964076  0.5320618049854218  0.865849963502184  1.0000
  H   H643      1.0  0.04242471089743005  0.5009992963211098  0.901599551100264  1.0000
  H   H644      1.0  0.08859793604366506  0.532777048366605  0.8483902832946222  1.0000
  H   H645      1.0  0.09356576411264328  0.5014040872632082  0.8827008422873485  1.0000
  H   H646      1.0  0.10548069242770475  0.5045520668094116  0.8176370700853495  1.0000
  H   H647      1.0  0.05350587830995068  0.5353139941870064  0.7771415479788522  1.0000
  H   H648      1.0  0.034793428261564285  0.5050530311468664  0.7595036842358346  1.0000
  H   H649      1.0  0.07184104509334466  0.5074203067827817  0.7479714159118175  1.0000
  H   H650      1.0  0.07713824945070868  0.4634745067128946  0.7952606482043856  1.0000
  H   H651      1.0  0.04033671641375447  0.46304035390132786  0.8095828937424583  1.0000
  H   H652      1.0  0.06535792952568942  0.4610417189463204  0.8605747275475252  1.0000
  N   N34       1.0  0.16507680094754137  0.9211736690737458  0.13032842724664961  1.0000
  C   C517      1.0  0.1866418552341723  0.931278051627347  0.16582978144405147  1.0000
  C   C518      1.0  0.13687984450179647  0.9250248777217661  0.15310737556320753  1.0000
  C   C519      1.0  0.16995640603419007  0.891853524363975  0.12054348907276903  1.0000
  C   C520      1.0  0.16681043745514704  0.9365907258550464  0.0817841781319737  1.0000
  H   H653      1.0  0.20825143709181063  0.9280326470001162  0.15054363322753184  1.0000
  H   H654      1.0  0.18554916779173541  0.920613225421042  0.20326907064131697  1.0000
  H   H655      1.0  0.18385779577277558  0.9534440301855183  0.17330649255721053  1.0000
  H   H656      1.0  0.13228454531767278  0.9469615767286755  0.16029882629648262  1.0000
  H   H657      1.0  0.12014118431249214  0.9174697325745285  0.127328788168108  1.0000
  H   H658      1.0  0.1348767614198049  0.9138853390642826  0.19006142991857633  1.0000
  H   H659      1.0  0.15374211376835234  0.8834844301756342  0.09454785844428937  1.0000
  H   H660      1.0  0.169323118649547  0.8796391247243983  0.1565028568501401  1.0000
  H   H661      1.0  0.1908128608282835  0.8881826654792043  0.10248370527788975  1.0000
  H   H662      1.0  0.18784806558131822  0.9343524063876516  0.06359401142321874  1.0000
  H   H663      1.0  0.1626396132016198  0.9587426459834657  0.0875511905459816  1.0000
  H   H664      1.0  0.15094750280114122  0.9294854118135935  0.053957563449724466  1.0000
  N   N35       1.0  0.24704098169055005  0.3817890541923693  0.6247782309618726  1.0000
  C   C521      1.0  0.23614516892452  0.3778445724577342  0.677137149783015  1.0000
  C   C522      1.0  0.22337495038940325  0.38757521309864423  0.5898025089534246  1.0000
  C   C523      1.0  0.2619114796252705  0.35677539047982715  0.6082236205387825  1.0000
  C   C524      1.0  0.26671238067292574  0.4049655625922256  0.6238893706589682  1.0000
  H   H665      1.0  0.2534529874999874  0.37475151862372175  0.7050185661534983  1.0000
  H   H666      1.0  0.22241421775912107  0.35964084137509233  0.6797779223973055  1.0000
  H   H667      1.0  0.22359534093972466  0.39579758753200517  0.690001233905104  1.0000
  H   H668      1.0  0.2307566453039338  0.39008811559444656  0.5497458442275889  1.0000
  H   H669      1.0  0.2077132106375721  0.3708426414725742  0.5905701006248808  1.0000
  H   H670      1.0  0.2119582216362572  0.40662697176128837  0.6006192908470548  1.0000
  H   H671      1.0  0.27181595947352777  0.35956599000574024  0.5701236865815781  1.0000
  H   H672      1.0  0.24747848030653474  0.3390665267165327  0.6062698139369209  1.0000
  H   H673      1.0  0.2790211978767345  0.35106514059060623  0.6350380217327677  1.0000
  H   H674      1.0  0.2753324793787241  0.40859258516732044  0.58493927654054  1.0000
  H   H675      1.0  0.2850260292379266  0.4011785473719535  0.6493719329467773  1.0000
  H   H676      1.0  0.25627679874719506  0.4241407649926031  0.6366713106494056  1.0000
  N   N36       1.0  0.5358338539471857  0.32189548852212363  0.6571460305093094  1.0000
  C   C525      1.0  0.5354436830624132  0.3519402560580373  0.6523360833698086  1.0000
  C   C526      1.0  0.5454786752678965  0.31394324297419807  0.708737416900726  1.0000
  C   C527      1.0  0.5553163872613359  0.3103780102029282  0.6187765932800202  1.0000
  C   C528      1.0  0.5072029085188728  0.3113211545263111  0.6488067752056861  1.0000
  H   H677      1.0  0.5205774837317726  0.36136962683989104  0.6800027846248958  1.0000
  H   H678      1.0  0.5289769273772628  0.35852765518422663  0.6133359381282849  1.0000
  H   H679      1.0  0.5566389472594151  0.3606132760845355  0.6591904485689875  1.0000
  H   H680      1.0  0.5453993785643733  0.2913864006728052  0.7138027871735534  1.0000
  H   H681      1.0  0.5674027526210882  0.3207201153082691  0.7158024200897759  1.0000
  H   H682      1.0  0.5316945766732089  0.32268552458975297  0.7389018771923316  1.0000
  H   H683      1.0  0.547647487056841  0.3140411983466427  0.5793216561890943  1.0000
  H   H684      1.0  0.5580082826807709  0.2880332168922766  0.6236892862276993  1.0000
  H   H685      1.0  0.5765882674295335  0.3194581032108658  0.6217914162896898  1.0000
  H   H686      1.0  0.5068717813918089  0.28869866545524786  0.6505783825297132  1.0000
  H   H687      1.0  0.4987413465543617  0.3174530621683326  0.6109127196681705  1.0000
  H   H688      1.0  0.49217126365632197  0.3187395237710872  0.6783021562740127  1.0000
  N   N37       1.0  0.661494966569525  0.7888599780516621  0.3589856546909762  1.0000
  C   C529      1.0  0.6551098792130156  0.7929248407379598  0.30432900106339966  1.0000
  C   C530      1.0  0.6403353181608651  0.7706448484435872  0.38216913753051407  1.0000
  C   C531      1.0  0.6608359933718484  0.8154790120869219  0.3851191131070639  1.0000
  C   C532      1.0  0.6897386641147665  0.7763841840474265  0.3642717251116516  1.0000
  H   H689      1.0  0.6710748719102608  0.8060714482743956  0.2853701787615761  1.0000
  H   H690      1.0  0.6341761103493073  0.8027291010745103  0.2986840851234853  1.0000
  H   H691      1.0  0.6550517825085176  0.7732018131610364  0.2836052403072111  1.0000
  H   H692      1.0  0.6444828623826012  0.7673209878209294  0.4235314749301886  1.0000
  H   H693      1.0  0.618735441595684  0.779297674270286  0.3785747125060044  1.0000
  H   H694      1.0  0.6404898991922529  0.7502272658199467  0.3637876441037964  1.0000
  H   H695      1.0  0.677360636286461  0.8293549215680771  0.3700975454472779  1.0000
  H   H696      1.0  0.6648042672469467  0.8130758774464605  0.4266944325414703  1.0000
  H   H697      1.0  0.6401321171671096  0.8259266169104208  0.38078922895798284  1.0000
  H   H698      1.0  0.69115131280872  0.7564214050202387  0.3444646310228512  1.0000
  H   H699      1.0  0.6952099326558286  0.772878309430473  0.40507694052436527  1.0000
  H   H700      1.0  0.7063033839889158  0.7897693534411602  0.3479058703851685  1.0000
  N   N38       1.0  0.551059359613902  0.7418038459415266  0.8931270484800725  1.0000
  C   C533      1.0  0.5383381437490935  0.7655975194535576  0.8667708559667404  1.0000
  C   C534      1.0  0.5791400733987433  0.7361962099958581  0.8712203485962466  1.0000
  C   C535      1.0  0.532998427004445  0.7177201322263395  0.8863261641483229  1.0000
  C   C536      1.0  0.5538039653659143  0.7476439971279277  0.9481396181478386  1.0000
  H   H701      1.0  0.5167661538630831  0.7699435750133022  0.881086759613687  1.0000
  H   H702      1.0  0.5366305821442167  0.7621556654734284  0.8250185555758398  1.0000
  H   H703      1.0  0.5508909222608724  0.7844020226185238  0.8723184054592364  1.0000
  H   H704      1.0  0.5933893670183075  0.753894560706005  0.8756833079387254  1.0000
  H   H705      1.0  0.5893291879938788  0.7184960729936657  0.8904348408680326  1.0000
  H   H706      1.0  0.5778657463822557  0.7312749292220315  0.8298871564769312  1.0000
  H   H707      1.0  0.5418453887670438  0.6994348450802633  0.9061530343085218  1.0000
  H   H708      1.0  0.530807574055185  0.7124625069057724  0.8453323590484637  1.0000
  H   H709      1.0  0.5114167388460622  0.7213298850813056  0.9016041262348317  1.0000
  H   H710      1.0  0.5633669083061293  0.7300631551984852  0.9691821965677081  1.0000
  H   H711      1.0  0.5329765712281055  0.7519900109553601  0.9658825251486833  1.0000
  H   H712      1.0  0.5674546449935107  0.7655830945253598  0.9548490681212372  1.0000
  N   N39       1.0  0.49972437770241324  0.47521520207050516  0.5415603790463877  1.0000
  C   C537      1.0  0.506121026914427  0.44747483522895054  0.560888509998468  1.0000
  C   C538      1.0  0.49180553754261014  0.4929166936262081  0.5847694763066689  1.0000
  C   C539      1.0  0.47622989996224907  0.4739027079847838  0.5048898186840346  1.0000
  C   C540      1.0  0.5247466552450327  0.4865310379718202  0.5157279227334607  1.0000
  H   H713      1.0  0.5227998765781849  0.4476994038705211  0.5904426718628356  1.0000
  H   H714      1.0  0.5137082907437377  0.4339936099106701  0.5299204358301343  1.0000
  H   H715      1.0  0.4872431645682034  0.43774288097144215  0.5780062995968375  1.0000
  H   H716      1.0  0.4731194039521898  0.4849161137937637  0.6054151901747014  1.0000
  H   H717      1.0  0.5092705158341192  0.4943473575027147  0.6129258844830382  1.0000
  H   H718      1.0  0.48679386358591364  0.5140306012281567  0.5717038078013587  1.0000
  H   H719      1.0  0.4706721838145129  0.49443281023276237  0.48949979415204986  1.0000
  H   H720      1.0  0.457037751664283  0.46513121343825714  0.5227846233023482  1.0000
  H   H721      1.0  0.4816330469713507  0.4606266422565846  0.47192016342144283  1.0000
  H   H722      1.0  0.5312093671640059  0.47389844255366326  0.48251632757695506  1.0000
  H   H723      1.0  0.5429938217104195  0.4874980845702691  0.5421285357727174  1.0000
  H   H724      1.0  0.5207618623991985  0.5075951429744926  0.5012654298547912  1.0000
  N   N40       1.0  0.8457351704270644  0.2925743424071632  0.4223763748805451  1.0000
  C   C541      1.0  0.8148449459536338  0.29290290877904945  0.416332970656286  1.0000
  C   C542      1.0  0.8528613040778457  0.29777419070808453  0.4762562894255146  1.0000
  C   C543      1.0  0.8581526936559917  0.3139678584837651  0.38955657225573737  1.0000
  C   C544      1.0  0.8570201303606008  0.26560708762904606  0.4074144796671425  1.0000
  H   H725      1.0  0.8086544819169257  0.28905288036898985  0.37608010890942356  1.0000
  H   H726      1.0  0.8055649740977621  0.31292971779747203  0.42756242008932205  1.0000
  H   H727      1.0  0.8047420292415361  0.2770633569687894  0.44063837206173345  1.0000
  H   H728      1.0  0.8760240193984977  0.29790600932380235  0.4822693987020052  1.0000
  H   H729      1.0  0.8441486412188475  0.3176936912945878  0.489318579856647  1.0000
  H   H730      1.0  0.8440736010241525  0.28171769845829425  0.5017261482069763  1.0000
  H   H731      1.0  0.8503625950064814  0.33461746322670444  0.4002463364204774  1.0000
  H   H732      1.0  0.8527496391589524  0.31086709257979683  0.348700433810239  1.0000
  H   H733      1.0  0.8815085838879535  0.314075802208259  0.39236281045678456  1.0000
  H   H734      1.0  0.8483640868842695  0.24903117378173406  0.43200930283038946  1.0000
  H   H735      1.0  0.8803216044289198  0.2647451045812531  0.41105113369484053  1.0000
  H   H736      1.0  0.8516765135249899  0.2608297223181287  0.36712288336135906  1.0000
  N   N41       1.0  0.8808157604415118  0.812152094418578  0.47245974361610826  1.0000
  C   C545      1.0  0.8696298107176729  0.8178873301114188  0.4208906476076427  1.0000
  C   C546      1.0  0.8572033208062487  0.8085604593193565  0.5086174049603087  1.0000
  C   C547      1.0  0.8984244625072441  0.835176162082313  0.48883304877449435  1.0000
  C   C548      1.0  0.8980190016155255  0.7869254416477186  0.4714599731942438  1.0000
  H   H737      1.0  0.8868263461621338  0.8204792279988832  0.3924455502153111  1.0000
  H   H738      1.0  0.8565970235959596  0.8368129313691478  0.4201801109360124  1.0000
  H   H739      1.0  0.856122160573888  0.801006660309513  0.4074630679655751  1.0000
  H   H740      1.0  0.8433320788481041  0.8269216798114225  0.5097364546774559  1.0000
  H   H741      1.0  0.8438573333838102  0.7909899659014831  0.49769460302904667  1.0000
  H   H742      1.0  0.8647992938414105  0.8044966861104791  0.5481122639448683  1.0000
  H   H743      1.0  0.9074308059539138  0.831472249385089  0.5274430466999196  1.0000
  H   H744      1.0  0.8860783925948704  0.8545247359068302  0.4903349827737962  1.0000
  H   H745      1.0  0.9163288653587763  0.8385076486957218  0.4620591704316767  1.0000
  H   H746      1.0  0.9065628082339182  0.7818452599089243  0.5098644837355124  1.0000
  H   H747      1.0  0.9161186188680817  0.7888659562600565  0.44475880587438443  1.0000
  H   H748      1.0  0.8853901510642556  0.7691390562713569  0.4589868398686974  1.0000
  N   N42       1.0  0.9130119174343934  0.2530808721188417  0.12059933321731897  1.0000
  C   C549      1.0  0.9348450408909345  0.24177255887118299  0.08633589321632318  1.0000
  C   C550      1.0  0.9245729388344709  0.27652885724806603  0.14846408259294663  1.0000
  C   C551      1.0  0.9040730976180908  0.23187899961549227  0.1574032897982336  1.0000
  C   C552      1.0  0.8885452842855378  0.26226773895392785  0.09017865960371263  1.0000
  H   H749      1.0  0.9271361756568967  0.22365690550531309  0.0654228578414604  1.0000
  H   H750      1.0  0.9538326150371288  0.2351646080324909  0.10800851173143755  1.0000
  H   H751      1.0  0.9417340665923315  0.2571361348675005  0.0574694703194083  1.0000
  H   H752      1.0  0.9080134478712583  0.28722099557913683  0.17081656311197646  1.0000
  H   H753      1.0  0.9412138388543427  0.27010983772286246  0.17565132766579516  1.0000
  H   H754      1.0  0.9339560713511821  0.2916004119672039  0.12174567188503826  1.0000
  H   H755      1.0  0.8875938746828975  0.23980063904572796  0.18379350189655907  1.0000
  H   H756      1.0  0.9220404788696611  0.22437053905287377  0.18092083558903638  1.0000
  H   H757      1.0  0.8951175331747881  0.21393992927577446  0.13763521061911588  1.0000
  H   H758      1.0  0.8790141697029811  0.24509693719280415  0.06900760252644011  1.0000
  H   H759      1.0  0.8945786542387829  0.27817326622447547  0.06178406572608819  1.0000
  H   H760      1.0  0.8718039074776327  0.2711735545985601  0.11499503781127585  1.0000
  N   N43       1.0  0.02613408352328328  0.2374146630588927  0.6081142190056794  1.0000
  C   C553      1.0  6.520663537945562e-05  0.22308472104029234  0.5941506817052982  1.0000
  C   C554      1.0  0.047796624214844874  0.23274837576893356  0.568514677178205  1.0000
  C   C555      1.0  0.03651283766162039  0.22696730234455031  0.6577147268531034  1.0000
  C   C556      1.0  0.02015706161390174  0.2669404258784451  0.612009685615464  1.0000
  H   H761      1.0  0.991431905035179  0.2307458840623205  0.5572437785600949  1.0000
  H   H762      1.0  0.9834528433667424  0.225763417142539  0.6236841269433644  1.0000
  H   H763      1.0  0.0037383180062171566  0.20075572140229636  0.5903701913531662  1.0000
  H   H764      1.0  0.06775270631395836  0.243317279917398  0.5777929662104692  1.0000
  H   H765      1.0  0.0531951167672453  0.2107363049318832  0.5651338307564806  1.0000
  H   H766      1.0  0.0406287321643195  0.24001466067284913  0.5303722562379652  1.0000
  H   H767      1.0  0.05699389613228312  0.2362042613370317  0.6681001572363495  1.0000
  H   H768      1.0  0.039989548678109214  0.2045232443451491  0.6568067424419974  1.0000
  H   H769      1.0  0.021296510031649563  0.2310972594722257  0.6889792861407638  1.0000
  H   H770      1.0  0.03924061715565586  0.27839534168236507  0.6231279608280924  1.0000
  H   H771      1.0  0.003414382956872686  0.27115104654232514  0.6407158453254936  1.0000
  H   H772      1.0  0.012634274876213825  0.27548169699870584  0.5749643451970341  1.0000
  N   N44       1.0  0.5920949847847247  0.5886608776396627  0.0002794773614060997  1.0000
  C   C557      1.0  0.5734315010281387  0.5973026347039658  0.9581780619566503  1.0000
  C   C558      1.0  0.5920338992334314  0.5585905273355475  0.00446353010716205  1.0000
  C   C559      1.0  0.581982709524883  0.6006521112436324  0.04857911296082995  1.0000
  C   C560      1.0  0.6209867981042849  0.5980423458123099  0.989759644108491  1.0000
  H   H773      1.0  0.5720251225083588  0.6198268757525439  0.9546398687331458  1.0000
  H   H774      1.0  0.5516602604530506  0.5896457480928549  0.9637014912513499  1.0000
  H   H775      1.0  0.5811381117473948  0.5894445157116867  0.9209214936002398  1.0000
  H   H776      1.0  0.606520434496966  0.5512756127407293  0.03486360074772232  1.0000
  H   H777      1.0  0.5707241532860766  0.5507083789765665  0.013933890897978474  1.0000
  H   H778      1.0  0.5987533571970878  0.5488539334000962  0.9681237066701688  1.0000
  H   H779      1.0  0.596277445664368  0.595384559235134  0.08068058209048612  1.0000
  H   H780      1.0  0.560694953021109  0.5930776507435069  0.05890612864439726  1.0000
  H   H781      1.0  0.5808327607367755  0.6233057259789644  0.04625306940636453  1.0000
  H   H782      1.0  0.6291574441320107  0.5895630323269359  0.9532683285741742  1.0000
  H   H783      1.0  0.6356723204128262  0.5916194493137079  0.020669357211066774  1.0000
  H   H784      1.0  0.6218615400119416  0.6206555824891488  0.9867655456020927  1.0000
  N   N45       1.0  0.6546170981540728  0.6010978134108163  0.4977759291617671  1.0000
  C   C561      1.0  0.6251874401088856  0.6107825050779954  0.5002180677746124  1.0000
  C   C562      1.0  0.6646545486349398  0.594712041325348  0.5498520514737105  1.0000
  C   C563      1.0  0.6723368634358227  0.6226336245750647  0.47501859116411127  1.0000
  C   C564      1.0  0.6561658499240227  0.5763144368394952  0.46606779512501506  1.0000
  H   H785      1.0  0.6172536675758893  0.6168072711839427  0.4618968604017815  1.0000
  H   H786      1.0  0.6228479322753804  0.6285317886864483  0.5260652211693465  1.0000
  H   H787      1.0  0.6109950621628351  0.5945715561898061  0.5148990852180287  1.0000
  H   H788      1.0  0.6869434125306869  0.5877279975128618  0.5497139301617632  1.0000
  H   H789      1.0  0.6629587575560042  0.6128152578246369  0.5751662060986554  1.0000
  H   H790      1.0  0.6519050785723326  0.5783916151860886  0.5680063509496318  1.0000
  H   H791      1.0  0.6946251266113557  0.6158615250209885  0.4715760353904202  1.0000
  H   H792      1.0  0.6720074567226324  0.6414253752736553  0.49864911094623976  1.0000
  H   H793      1.0  0.6649377571292845  0.6285220650450261  0.4361487769886788  1.0000
  H   H794      1.0  0.6780057605820651  0.5681921934773303  0.4634836110156109  1.0000
  H   H795      1.0  0.6486496685688304  0.5804822083467035  0.4266008960917525  1.0000
  H   H796      1.0  0.6427218499927043  0.5597782310092346  0.48191802674567197  1.0000
  N   N46       1.0  0.3770930752569872  0.7497067001709543  0.7545876027312676  1.0000
  C   C565      1.0  0.37100236063777914  0.7785963081481472  0.7421489208128187  1.0000
  C   C566      1.0  0.35922418537290024  0.73186954515846  0.7233472910992387  1.0000
  C   C567      1.0  0.371195657842251  0.744685847902422  0.8092007734862707  1.0000
  C   C568      1.0  0.40697548499406655  0.7436545736542007  0.7437111364718089  1.0000
  H   H797      1.0  0.37700887411728434  0.7836034944826886  0.7022368218674121  1.0000
  H   H798      1.0  0.3827719592072131  0.7925907652598897  0.7674037092082497  1.0000
  H   H799      1.0  0.3482321565895489  0.78341601470824  0.7463449399795937  1.0000
  H   H800      1.0  0.3364780522004212  0.7363547537813128  0.7294576696877915  1.0000
  H   H801      1.0  0.36366477066616204  0.7345895065885617  0.6819188252056687  1.0000
  H   H802      1.0  0.3629344572943137  0.7099776193174396  0.7327061672896162  1.0000
  H   H803      1.0  0.3765526740624249  0.7233399945453206  0.8205180736498267  1.0000
  H   H804      1.0  0.3486473182235277  0.7483160932747307  0.8183642300912369  1.0000
  H   H805      1.0  0.38382621351065555  0.7582499563706357  0.833917612120086  1.0000
  H   H806      1.0  0.4125414528718037  0.7221840922142343  0.7537048746270435  1.0000
  H   H807      1.0  0.4210120978129296  0.7569991942279584  0.7660734785092487  1.0000
  H   H808      1.0  0.4120516002023151  0.7468174531783321  0.7025890382431367  1.0000
  N   N47       1.0  0.558004718397542  0.7795261001837318  0.617988062852455  1.0000
  C   C569      1.0  0.5794022331164624  0.7736461518709097  0.578515179601751  1.0000
  C   C570      1.0  0.5719792384127824  0.7870546094367153  0.6660792027206222  1.0000
  C   C571      1.0  0.5408022005520118  0.755034276438812  0.6268628657501848  1.0000
  C   C572      1.0  0.5397494060675985  0.8022659171156912  0.6006804745582051  1.0000
  H   H809      1.0  0.5694943680709563  0.7674659263461796  0.5420243612098528  1.0000
  H   H810      1.0  0.5939452652869872  0.7569325662609124  0.5906396179882882  1.0000
  H   H811      1.0  0.5922972424592223  0.7919197603096162  0.5700997220714753  1.0000
  H   H812      1.0  0.5563223214483634  0.7918085323362481  0.696424289867842  1.0000
  H   H813      1.0  0.58583904916014  0.7702631176806277  0.6802236644408456  1.0000
  H   H814      1.0  0.5852077522534387  0.8054404360204963  0.6608390302965665  1.0000
  H   H815      1.0  0.5249080870917033  0.7584266641145189  0.6573836862728831  1.0000
  H   H816      1.0  0.554071307071679  0.7372640166290444  0.6383678844698193  1.0000
  H   H817      1.0  0.529038156323033  0.7492606349377996  0.592150933710309  1.0000
  H   H818      1.0  0.5230245514258779  0.8068527212588825  0.6291199759265296  1.0000
  H   H819      1.0  0.5293594919258365  0.7975120933157696  0.5638875973819356  1.0000
  H   H820      1.0  0.55181644461231  0.8213325403110902  0.5945954137101995  1.0000
  N   N48       1.0  0.7048199683778029  0.7271179306625882  0.7608467640220242  1.0000
  C   C573      1.0  0.6929874590933813  0.7490205487749136  0.793113580200939  1.0000
  C   C574      1.0  0.7290342308422637  0.7376888495314122  0.7316143532073679  1.0000
  C   C575      1.0  0.6830535404983332  0.7175886727506118  0.7251005647099328  1.0000
  C   C576      1.0  0.7142303025896476  0.7041858591069163  0.7935987705072651  1.0000
  H   H821      1.0  0.6750016473346098  0.7415854546182387  0.8164107251551619  1.0000
  H   H822      1.0  0.6852960769147933  0.7664908924919078  0.7695806732493844  1.0000
  H   H823      1.0  0.7089701086302873  0.7571213135924378  0.819936487760172  1.0000
  H   H824      1.0  0.7386274609093109  0.7217296160793031  0.7069815099788914  1.0000
  H   H825      1.0  0.7226355316671909  0.7548983195241511  0.7062974963862353  1.0000
  H   H826      1.0  0.7457718375306268  0.7454052820525019  0.7572624881863869  1.0000
  H   H827      1.0  0.6755955367597183  0.734335101527083  0.6995260010671386  1.0000
  H   H828      1.0  0.6643907263858613  0.7095383060439926  0.7457943795852061  1.0000
  H   H829      1.0  0.6911166405769112  0.7009552096634561  0.700243522616701  1.0000
  H   H830      1.0  0.7234443385663893  0.6873473243295735  0.7705890088391114  1.0000
  H   H831      1.0  0.6964174801981062  0.6954729602380532  0.8157245942023224  1.0000
  H   H832      1.0  0.730363491482532  0.7108175761916932  0.8214876179423125  1.0000
  N   N49       1.0  0.14045375836484686  0.3597258987776406  0.45133011804679246  1.0000
  C   C577      1.0  0.12188644974273366  0.35199003294364767  0.49423183897826983  1.0000
  C   C578      1.0  0.16901926828581781  0.3648973544908124  0.47086641909500043  1.0000
  C   C579      1.0  0.12927396906224264  0.3846935553023669  0.42656317784170356  1.0000
  C   C580      1.0  0.1416067726188568  0.3373415624283482  0.41384301247174693  1.0000
  H   H833      1.0  0.10011624228520155  0.34802913148106296  0.4807973313638694  1.0000
  H   H834      1.0  0.12060417552365199  0.36847503988109  0.5232501725027849  1.0000
  H   H835      1.0  0.1296177910196985  0.33318207741283273  0.5137574420467185  1.0000
  H   H836      1.0  0.18373404964138818  0.370369880231567  0.43941388312900803  1.0000
  H   H837      1.0  0.16891888318921877  0.3818018549544382  0.4990535835366464  1.0000
  H   H838      1.0  0.17792890266370742  0.34644713326001464  0.49006661363890003  1.0000
  H   H839      1.0  0.1424631724816121  0.39091674583619185  0.39345704524211333  1.0000
  H   H840      1.0  0.1283419413443989  0.4020274724920711  0.45378595486073503  1.0000
  H   H841      1.0  0.10755170461578989  0.3815035973311532  0.41217511686189157  1.0000
  H   H842      1.0  0.15552718877609517  0.34241966206411556  0.3810181324719083  1.0000
  H   H843      1.0  0.12042119844989352  0.33287822251860794  0.3980691516950996  1.0000
  H   H844      1.0  0.14995444714411277  0.31821253233189717  0.4313985142322196  1.0000
  N   N50       1.0  0.7910060328302387  0.3071954755725235  0.9090148065636859  1.0000
  C   C581      1.0  0.8037296318775765  0.3278054500433815  0.8748981447741878  1.0000
  C   C582      1.0  0.7678191032158487  0.31996244694340287  0.9380536523823964  1.0000
  C   C583      1.0  0.8125551075792399  0.29660220757389516  0.9446354015078701  1.0000
  C   C584      1.0  0.7798739724568308  0.2844016934129634  0.8787558582099494  1.0000
  H   H845      1.0  0.821475368818042  0.3190585026927514  0.8526754722187646  1.0000
  H   H846      1.0  0.8120335321783798  0.3453093095551142  0.8970357366555364  1.0000
  H   H847      1.0  0.7881942847170617  0.3359558739286321  0.8469260095722133  1.0000
  H   H848      1.0  0.751378676261972  0.3284733123943759  0.9122901945037799  1.0000
  H   H849      1.0  0.7574690516041913  0.3048733153936016  0.9636236930336298  1.0000
  H   H850      1.0  0.7755303262334479  0.33691407331524403  0.9622542569559588  1.0000
  H   H851      1.0  0.8037428900038254  0.2807094543960755  0.9704086344128361  1.0000
  H   H852      1.0  0.8209629650840701  0.3130618601146302  0.9690133281707513  1.0000
  H   H853      1.0  0.8306358122319789  0.28736322365153366  0.9239107048331706  1.0000
  H   H854      1.0  0.7687782841220576  0.2693230363397732  0.9034417076227762  1.0000
  H   H855      1.0  0.797001712489604  0.27320201761218194  0.8588631890307163  1.0000
  H   H856      1.0  0.7648165495929824  0.29169186611235254  0.8491499089989716  1.0000
  N   N51       1.0  0.0600270554202762  0.8146994029325029  0.34985521532140623  1.0000
  C   C585      1.0  0.04232281961932016  0.796137840757756  0.38054379728232646  1.0000
  C   C586      1.0  0.0782415208415016  0.8303852592262683  0.3842777713094003  1.0000
  C   C587      1.0  0.04189050238963454  0.8336640748028468  0.32048993967909584  1.0000
  C   C588      1.0  0.07763287896272039  0.7987259436295842  0.3142056504867517  1.0000
  H   H857      1.0  0.02786434548181793  0.7843312246324915  0.35611039024905716  1.0000
  H   H858      1.0  0.029192960703871895  0.8076066614966085  0.4084925622984728  1.0000
  H   H859      1.0  0.05529307858635146  0.7809931703957657  0.4020725170727339  1.0000
  H   H860      1.0  0.06547667746953256  0.842172343965287  0.4123031699151525  1.0000
  H   H861      1.0  0.0926033285015537  0.8167295834717099  0.40627461905688445  1.0000
  H   H862      1.0  0.09142621805809575  0.8451742270267103  0.36266204519524764  1.0000
  H   H863      1.0  0.05460645798203067  0.8479088593860836  0.29677694187233306  1.0000
  H   H864      1.0  0.02858313315556016  0.8462555497236346  0.34620288023651713  1.0000
  H   H865      1.0  0.027515912609849646  0.8224954417896736  0.2947148786444885  1.0000
  H   H866      1.0  0.0909617673349445  0.7835119109430936  0.334842265985159  1.0000
  H   H867      1.0  0.09177055062409985  0.8121353139678902  0.2914683898863352  1.0000
  H   H868      1.0  0.06447998182468617  0.7870992917976294  0.28698386032770307  1.0000
  N   N52       1.0  0.004123417214890734  0.7576153614545853  0.8250053220702026  1.0000
  C   C589      1.0  0.008731788220418757  0.7582987062045291  0.8807225727772455  1.0000
  C   C590      1.0  0.9926444471671823  0.7841836225133944  0.80760725360945  1.0000
  C   C591      1.0  0.9839674100211918  0.7358553562959201  0.8128537430324622  1.0000
  C   C592      1.0  0.03110320140442724  0.7520781615713296  0.7988830599382661  1.0000
  H   H869      1.0  0.01728806106620495  0.7385291151503441  0.8952735427288873  1.0000
  H   H870      1.0  0.9887819806559528  0.7624480973013832  0.9016151218448676  1.0000
  H   H871      1.0  0.023820931652595023  0.7744946129658979  0.8914458406765139  1.0000
  H   H872      1.0  0.9890442930256582  0.784595413083194  0.7657030300601468  1.0000
  H   H873      1.0  0.9720536790073627  0.7887505204838594  0.8260354486888845  1.0000
  H   H874      1.0  0.006959522517089978  0.8012689149846477  0.8170288548858154  1.0000
  H   H875      1.0  0.9797872028747648  0.7347597818945072  0.771194341496761  1.0000
  H   H876      1.0  0.9634040694218501  0.7393886822782747  0.8320647042901083  1.0000
  H   H877      1.0  0.991832007337636  0.7154761940309373  0.8255675862253963  1.0000
  H   H878      1.0  0.02842621800734646  0.7515892811289618  0.7567368127193819  1.0000
  H   H879      1.0  0.04010485713475909  0.7320054321708711  0.8108384279928884  1.0000
  H   H880      1.0  0.04689566193426331  0.7679537481694322  0.8077230375811426  1.0000
  N   N53       1.0  0.43336586314984404  0.7875354929342928  0.24453072948832222  1.0000
  C   C593      1.0  0.4023089285898513  0.787099647866702  0.24441575303326385  1.0000
  C   C594      1.0  0.4435380546159256  0.7985509776595296  0.19523534625251918  1.0000
  C   C595      1.0  0.44438384883159454  0.7595141134764514  0.2520474156047429  1.0000
  C   C596      1.0  0.4431804144590412  0.8049954307130966  0.28653886584278493  1.0000
  H   H881      1.0  0.3938067415520446  0.7794458932806825  0.2814030601643789  1.0000
  H   H882      1.0  0.3940641019154805  0.773832344954476  0.21369443899673457  1.0000
  H   H883      1.0  0.3933471553867704  0.8078712411820994  0.23804933228284764  1.0000
  H   H884      1.0  0.4359365383969636  0.8198321162309268  0.1886587590898594  1.0000
  H   H885      1.0  0.46689156292191686  0.7988034360078897  0.19348761302436235  1.0000
  H   H886      1.0  0.43602585037885483  0.7862367672087284  0.162467598051802  1.0000
  H   H887      1.0  0.46779098436059796  0.7590675743030506  0.2528020376307272  1.0000
  H   H888      1.0  0.4375368890768012  0.7457533751856124  0.22093126432723764  1.0000
  H   H889      1.0  0.43696975618190237  0.7505868880718257  0.2888270676683267  1.0000
  H   H890      1.0  0.4349445390230579  0.8262401350023624  0.28276615810206396  1.0000
  H   H891      1.0  0.4665096634028938  0.8060613962965653  0.28772439768197966  1.0000
  H   H892      1.0  0.43604295744253957  0.797173444105765  0.3243697471407422  1.0000
  N   N54       1.0  0.12750571355256  0.6516857298095297  0.6602936779463727  1.0000
  C   C597      1.0  0.12083590272962785  0.6523238285625218  0.6052655466915727  1.0000
  C   C598      1.0  0.15071164886897684  0.67071632332598  0.6705668334395758  1.0000
  C   C599      1.0  0.13602323794323998  0.6237219965396792  0.6753452395683052  1.0000
  C   C600      1.0  0.10241632570239921  0.659983143653936  0.6898821430761036  1.0000
  H   H893      1.0  0.10318050886361473  0.6384596334838928  0.5959155039044547  1.0000
  H   H894      1.0  0.1391765638888144  0.6458118993002766  0.5817170308959838  1.0000
  H   H895      1.0  0.11464698492530041  0.6731387894739954  0.5920939567130523  1.0000
  H   H896      1.0  0.15569719931362774  0.6715458816304294  0.7120193582027905  1.0000
  H   H897      1.0  0.17021859506730017  0.6646815745843943  0.6499181461253266  1.0000
  H   H898      1.0  0.14529544521024867  0.6918260226826103  0.6578644840491338  1.0000
  H   H899      1.0  0.11943361467133559  0.608765020520409  0.6658426194317597  1.0000
  H   H900      1.0  0.13993113020102962  0.622091857239072  0.7171405163750465  1.0000
  H   H901      1.0  0.15546682828867606  0.6170771380909557  0.6551394411049047  1.0000
  H   H902      1.0  0.10672674659579805  0.659879048675293  0.7316483272584311  1.0000
  H   H903      1.0  0.08456740355605948  0.6458655707488088  0.68355221076707  1.0000
  H   H904      1.0  0.09522692589166806  0.680867590698255  0.6791529776456289  1.0000
  N   N55       1.0  0.6739134142021722  0.6887248210101081  0.20252655537479813  1.0000
  C   C601      1.0  0.6787787569220536  0.6661029598214803  0.2390838084515154  1.0000
  C   C602      1.0  0.7012048846864578  0.6982702355483953  0.18247526365716094  1.0000
  C   C603      1.0  0.659462250062314  0.7114748910060893  0.22871343718773818  1.0000
  C   C604      1.0  0.6562959194705078  0.6791253011963791  0.159942786443243  1.0000
  H   H905      1.0  0.6586600817083103  0.6581850260009963  0.2546549321948519  1.0000
  H   H906      1.0  0.6915210279586623  0.6728114240404539  0.2722310557288833  1.0000
  H   H907      1.0  0.6898619866228082  0.6486531312200248  0.22077222358956153  1.0000
  H   H908      1.0  0.6983642068348329  0.7155245374988749  0.15522084173364736  1.0000
  H   H909      1.0  0.7149569190414812  0.705796857907752  0.21360681733523856  1.0000
  H   H910      1.0  0.7127536909859039  0.6817654224554268  0.16220776788848568  1.0000
  H   H911      1.0  0.6545899654048365  0.728490896314126  0.20177943841728596  1.0000
  H   H912      1.0  0.6726228900133607  0.7198232643915559  0.25989900315506714  1.0000
  H   H913      1.0  0.6393256278891085  0.7048891289493883  0.246162019889605  1.0000
  H   H914      1.0  0.6520698586714564  0.6956905192046142  0.1316212202516167  1.0000
  H   H915      1.0  0.6355458822103753  0.6717380695480913  0.17371979847788377  1.0000
  H   H916      1.0  0.6665090557418079  0.6619294805531939  0.13933170653746996  1.0000
  N   N56       1.0  0.07690103566082218  0.22773885033274244  0.29154815288776365  1.0000
  C   C605      1.0  0.053940145442844756  0.24768701526169945  0.28286982259590376  1.0000
  C   C606      1.0  0.09422093060557435  0.22555705425251774  0.24483703554779437  1.0000
  C   C607      1.0  0.06496120435092356  0.20087030075584095  0.3043097201967646  1.0000
  C   C608      1.0  0.09444670044166137  0.23685557701134669  0.33438191958901514  1.0000
  H   H917      1.0  0.06227098603846204  0.268330263980677  0.273868500190685  1.0000
  H   H918      1.0  0.04034954953604286  0.24967549868062303  0.31722010924697414  1.0000
  H   H919      1.0  0.04038772083551567  0.24152220347747425  0.2504836486635442  1.0000
  H   H920      1.0  0.10302300104025575  0.24568969843455624  0.2336116814347953  1.0000
  H   H921      1.0  0.11222011450577885  0.21121672674783462  0.25030133356531364  1.0000
  H   H922      1.0  0.08171783447637226  0.21798644726644995  0.21209394153078698  1.0000
  H   H923      1.0  0.08168468657567551  0.1850179277347796  0.3083991232641604  1.0000
  H   H924      1.0  0.05032007549815942  0.19415832228936805  0.2742016149884862  1.0000
  H   H925      1.0  0.0527546586863894  0.2015390432528617  0.34055223812426816  1.0000
  H   H926      1.0  0.1125186667858129  0.22269571792979073  0.34101581868404446  1.0000
  H   H927      1.0  0.08211567577299683  0.23814035052201674  0.3704070448145665  1.0000
  H   H928      1.0  0.10293961350904546  0.25748260305896  0.3267787398359959  1.0000
  N   N57       1.0  0.23980943962427273  0.7567506176441499  0.39067923675919175  1.0000
  C   C609      1.0  0.23483046488313114  0.74485301758932  0.4418387413763333  1.0000
  C   C610      1.0  0.25619313082130923  0.7820072054000137  0.3957122508720463  1.0000
  C   C611      1.0  0.21257780832009046  0.7630982823898419  0.3661071083910475  1.0000
  C   C612      1.0  0.2557179589765423  0.7371255177819722  0.3590242688663652  1.0000
  H   H929      1.0  0.22264703409546874  0.7256097829207862  0.4394637934760812  1.0000
  H   H930      1.0  0.22288737033108597  0.7592083850082761  0.46671285246972033  1.0000
  H   H931      1.0  0.2549787404261049  0.7401806904840574  0.4617322608813426  1.0000
  H   H932      1.0  0.244903523021493  0.7972139653010247  0.4196179144728361  1.0000
  H   H933      1.0  0.2769572932185081  0.7778848098310747  0.41387393093134484  1.0000
  H   H934      1.0  0.2603266889010096  0.7915062675412069  0.35786286223713987  1.0000
  H   H935      1.0  0.20014259310827276  0.7781073607944214  0.3886083918551985  1.0000
  H   H936      1.0  0.1995575968542682  0.7444593065923065  0.3621846758414682  1.0000
  H   H937      1.0  0.21555361199501463  0.7717668320074862  0.3270940064201258  1.0000
  H   H938      1.0  0.2607900027347117  0.746013815459051  0.32091005207542117  1.0000
  H   H939      1.0  0.24351104532866832  0.7181490525100528  0.3526712886271464  1.0000
  H   H940      1.0  0.276036164309908  0.731287402482108  0.37714197759306795  1.0000
  N   N58       1.0  0.5322289632254246  0.041436166313938205  0.7115337190644953  1.0000
  C   C613      1.0  0.5326120385396022  0.06424468003870687  0.7480832340690773  1.0000
  C   C614      1.0  0.5612296052059276  0.03145966853528637  0.7030184780617819  1.0000
  C   C615      1.0  0.5201132897745054  0.05090948993573896  0.6626337826808825  1.0000
  C   C616      1.0  0.5150246385025862  0.019030757302086476  0.7324579103223138  1.0000
  H   H941      1.0  0.5110774347117677  0.07223176894294281  0.7557417029581078  1.0000
  H   H942      1.0  0.545434217161336  0.08152538286103028  0.7334527791426246  1.0000
  H   H943      1.0  0.541824490604407  0.05772557917373833  0.7852331640452552  1.0000
  H   H944      1.0  0.5620153668092477  0.015339403061354284  0.67335984899726  1.0000
  H   H945      1.0  0.5752255833322042  0.048167359973903645  0.6901712291850999  1.0000
  H   H946      1.0  0.5706042315213384  0.023091383484383998  0.7386486470447181  1.0000
  H   H947      1.0  0.5331286621491147  0.06711090003557496  0.6446910627181148  1.0000
  H   H948      1.0  0.4985012761051803  0.05926366393594451  0.6677676315696893  1.0000
  H   H949      1.0  0.5186993256577963  0.03390632634343471  0.6349039259767995  1.0000
  H   H950      1.0  0.5147287209637793  0.0012001170652009563  0.7063516056418834  1.0000
  H   H951      1.0  0.49282550233951034  0.02553072563520553  0.7385184919727945  1.0000
  H   H952      1.0  0.5232794284718087  0.011756682484383552  0.7698272405980761  1.0000
  N   N59       1.0  0.9727164818859434  0.36627540907496375  0.655438295807217  1.0000
  C   C617      1.0  0.9444745751362658  0.3544324682681714  0.6493176305500971  1.0000
  C   C618      1.0  0.9836844610029973  0.35934082300012427  0.7066449155764387  1.0000
  C   C619      1.0  0.9709130503253214  0.3962256478562617  0.6496017083786898  1.0000
  C   C620      1.0  0.9918562154543017  0.35509907113650097  0.6161886531574763  1.0000
  H   H953      1.0  0.9357713827466483  0.3586035586794826  0.610660854081925  1.0000
  H   H954      1.0  0.92942444141589  0.3627068973364111  0.6780071162362064  1.0000
  H   H955      1.0  0.9450102830826314  0.3318786226585267  0.6545339765890638  1.0000
  H   H956      1.0  0.005358794535991418  0.3671178875446305  0.7119642112140478  1.0000
  H   H957      1.0  0.970214697618338  0.3681839051636743  0.7372851032843537  1.0000
  H   H958      1.0  0.9842178814878415  0.33690472793207094  0.7131753146513637  1.0000
  H   H959      1.0  0.9919768623044067  0.40572022042438255  0.652814305874961  1.0000
  H   H960      1.0  0.957318813423957  0.4055159059516701  0.6795386430172351  1.0000
  H   H961      1.0  0.962192721136695  0.40221575643041374  0.6117781010621908  1.0000
  H   H962      1.0  0.01316562341242511  0.3641771005117753  0.6188542650231061  1.0000
  H   H963      1.0  0.9837653759237668  0.35923114661962524  0.5770241463074551  1.0000
  H   H964      1.0  0.9941433110020941  0.33260917439581  0.62025571163768  1.0000
  N   N60       1.0  0.24199758720970557  0.3524373084134602  0.13340136374746447  1.0000
  C   C621      1.0  0.26098377173546294  0.36530547174908096  0.09576964733627502  1.0000
  C   C622      1.0  0.23148972609962337  0.3265329838088814  0.11266496662950809  1.0000
  C   C623      1.0  0.21797382314104738  0.37089634981203184  0.14381004129661745  1.0000
  C   C624      1.0  0.25748291094092723  0.3469213050912216  0.1812425289620987  1.0000
  H   H965      1.0  0.2502106114055888  0.36882868927773926  0.058593077954013584  1.0000
  H   H966      1.0  0.27965974453434694  0.352168040472226  0.08800329238559668  1.0000
  H   H967      1.0  0.2687718288673043  0.38527042928733884  0.10948783509189863  1.0000
  H   H968      1.0  0.22019027626116583  0.3297551467909281  0.07594297204787015  1.0000
  H   H969      1.0  0.248942678410225  0.311864471790612  0.10536155013633786  1.0000
  H   H970      1.0  0.216852089287235  0.31644457860550573  0.13983033638636844  1.0000
  H   H971      1.0  0.2030769554826926  0.3617568650318397  0.17181651243055063  1.0000
  H   H972      1.0  0.20583743038005523  0.37541117758000103  0.10844561154476362  1.0000
  H   H973      1.0  0.2249750321571685  0.3907135664213091  0.15953895766506965  1.0000
  H   H974      1.0  0.2761986886329952  0.33364171545429416  0.17438196445647036  1.0000
  H   H975      1.0  0.24403006934287227  0.33624763357161136  0.20978233139540126  1.0000
  H   H976      1.0  0.2650664276864837  0.3660496241836359  0.19889905258840712  1.0000
  N   N61       1.0  0.16793505598113204  0.6387141042476724  0.14939354998235954  1.0000
  C   C625      1.0  0.16821816531706718  0.6396397352090619  0.20569863504431107  1.0000
  C   C626      1.0  0.1903113592860438  0.6564518352574241  0.1289560420968634  1.0000
  C   C627      1.0  0.1403750847272579  0.6484690506358971  0.13044421309315468  1.0000
  C   C628      1.0  0.172794835842473  0.610357674132351  0.13249038753037157  1.0000
  H   H977      1.0  0.15125506162374058  0.6269022855910461  0.22233688887704428  1.0000
  H   H978      1.0  0.16514491214675336  0.660804209621795  0.21976746314726214  1.0000
  H   H979      1.0  0.18852154125538376  0.6320703219510537  0.22153393590876672  1.0000
  H   H980      1.0  0.19057812628227078  0.6563124291438517  0.08645326351617166  1.0000
  H   H981      1.0  0.18723227222281996  0.6779864200368078  0.141249231167204  1.0000
  H   H982      1.0  0.21140818007873954  0.6496752597793001  0.1424326130931277  1.0000
  H   H983      1.0  0.12316390930105947  0.6346851690097572  0.14283025196984211  1.0000
  H   H984      1.0  0.13988952479806832  0.6491599101089127  0.08800737797198477  1.0000
  H   H985      1.0  0.1353765917116076  0.6693085368696875  0.14447940505952395  1.0000
  H   H986      1.0  0.1734302052629465  0.6090116400569834  0.09014601995250482  1.0000
  H   H987      1.0  0.1557049194412986  0.5966400401212071  0.14578910078502094  1.0000
  H   H988      1.0  0.19296320644359255  0.6019489533573826  0.14733520115625032  1.0000
  N   N62       1.0  0.027335290872007256  0.9411605380214058  0.16153350505612152  1.0000
  C   C629      1.0  0.00899303631262871  0.9240312735001107  0.1938592383386264  1.0000
  C   C630      1.0  0.01291240958930917  0.9672748088413611  0.14987554471188091  1.0000
  C   C631      1.0  0.03361939574444994  0.9267331942917806  0.11344358367913454  1.0000
  C   C632      1.0  0.05377466571806688  0.9466524836871604  0.18900854678576295  1.0000
  H   H989      1.0  0.019355694275134283  0.9042768823499759  0.20377909807206662  1.0000
  H   H990      1.0  0.9888141009928778  0.919498638636716  0.17447863573609124  1.0000
  H   H991      1.0  0.003685104157024721  0.9343730697294873  0.2303234798842504  1.0000
  H   H992      1.0  0.9928866533533541  0.9640302235031998  0.1290959425386078  1.0000
  H   H993      1.0  0.007829987662480553  0.9786575443604707  0.1853525549996926  1.0000
  H   H994      1.0  0.026240310517053222  0.9807622645018033  0.12570821976055724  1.0000
  H   H995      1.0  0.04629353758635402  0.9395790454340543  0.08710120023395196  1.0000
  H   H996      1.0  0.014075251984698056  0.9214045217972863  0.0926696430429772  1.0000
  H   H997      1.0  0.04567631130014438  0.9075389392411871  0.12045229628963683  1.0000
  H   H998      1.0  0.06834188712893541  0.9590415154576744  0.16520253575583088  1.0000
  H   H999      1.0  0.06496259482048528  0.9274216037870179  0.19971152101361  1.0000
  H   H1000     1.0  0.04968713789164125  0.9581225953425467  0.2248967938400963  1.0000
  N   N63       1.0  0.5855441370002976  0.9910300733784786  0.296215767327023  1.0000
  C   C633      1.0  0.6037599209512446  0.0076034673882421355  0.32914639053924766  1.0000
  C   C634      1.0  0.6027826863968638  0.9700576570552012  0.2703618910193545  1.0000
  C   C635      1.0  0.571784757426838  0.00886073855682823  0.25784488405293515  1.0000
  C   C636      1.0  0.5638654130749414  0.9775985686626618  0.3278197970796158  1.0000
  H   H1001     1.0  0.591415707054903  0.023725774006190248  0.3488891941627782  1.0000
  H   H1002     1.0  0.620463232759629  0.01804271994933404  0.3068039171539607  1.0000
  H   H1003     1.0  0.6141857746479145  0.994844639899293  0.3590790481516441  1.0000
  H   H1004     1.0  0.5897224359499016  0.9570870582797893  0.24525370680293865  1.0000
  H   H1005     1.0  0.6194039563176659  0.9794869637431605  0.24624562976122202  1.0000
  H   H1006     1.0  0.61337702796716  0.9563568660299845  0.298631822813853  1.0000
  H   H1007     1.0  0.5582949474793208  0.9970075334114133  0.2315748061510694  1.0000
  H   H1008     1.0  0.5874680862331363  0.020031716053195318  0.23427132457953914  1.0000
  H   H1009     1.0  0.5580627395679284  0.024423822919397157  0.2764442810267332  1.0000
  H   H1010     1.0  0.5503701385752147  0.9928681732207469  0.34762502761912106  1.0000
  H   H1011     1.0  0.5734892058680259  0.9642779724074483  0.3577431264149412  1.0000
  H   H1012     1.0  0.5497958825223846  0.964748358179114  0.3044208648188993  1.0000
  N   N64       1.0  0.4048526204989041  0.8792546138696221  0.6897088420686481  1.0000
  C   C637      1.0  0.3830139196183164  0.8980822531628423  0.7093080963983882  1.0000
  C   C638      1.0  0.41564398143766046  0.8897870444931151  0.6405324286901141  1.0000
  C   C639      1.0  0.3926939796130082  0.8519253189690242  0.6821889064689358  1.0000
  C   C640      1.0  0.4280953119078864  0.8772729212665951  0.7268887696677648  1.0000
  H   H1013     1.0  0.3914776311665791  0.9189560032860886  0.7146763123301553  1.0000
  H   H1014     1.0  0.37483641367130793  0.891129757491462  0.7469622239153773  1.0000
  H   H1015     1.0  0.36481916642302975  0.8996182568175686  0.682851600087402  1.0000
  H   H1016     1.0  0.43146930190509697  0.8756564238314407  0.6238360564289462  1.0000
  H   H1017     1.0  0.39856171089321196  0.8922992950729662  0.611965292080384  1.0000
  H   H1018     1.0  0.4260925842577106  0.9098636739567009  0.6450686724499821  1.0000
  H   H1019     1.0  0.40882423625418557  0.8371692459297535  0.668082413312544  1.0000
  H   H1020     1.0  0.37532719380220064  0.8524753820397029  0.6538291366482165  1.0000
  H   H1021     1.0  0.3840246100674585  0.8436079913373828  0.7185082267617093  1.0000
  H   H1022     1.0  0.43784191116439647  0.8974796882755534  0.733462996438557  1.0000
  H   H1023     1.0  0.4449809174589927  0.8631815732828407  0.7135003039628547  1.0000
  H   H1024     1.0  0.420669513898466  0.8694776051346947  0.764483916863194  1.0000
