data_image0
_chemical_formula_structural       FeS2FeS2FeSFeS3FeS2FeS2FeSFeS3FeS2FeS2FeSFeS3FeS2FeS2FeSFeS3FeS2FeS2FeSFeS3FeS2FeS2FeSFeS3FeS2FeS2FeSFeS3FeS2FeS2FeSFeS3C6H4C6H4C6H4C6H4C6H4C6H4C6H4C6H4C6H4C6H4C6H4C6H4C6H4C6H4C6H4C6H4FeS2FeS2FeSFeS3FeS2FeS2FeSFeS3FeS2FeS2FeSFeS3FeS2FeS2FeSFeS3FeS2FeS2FeSFeS3FeS2FeS2FeSFeS3FeS2FeS2FeSFeS3FeS2FeS2FeSFeS3C6H4C6H4C6H4C6H4C6H4C6H4C6H4C6H4C6H4C6H4C6H4C6H4C6H4C6H4C6H4C6H4FeS2FeS2FeSFeS3FeS2FeS2FeSFeS3FeS2FeS2FeSFeS3FeS2FeS2FeSFeS3FeS2FeS2FeSFeS3FeS2FeS2FeSFeS3FeS2FeS2FeSFeS3FeS2FeS2FeSFeS3C6H4C6H4C6H4C6H4C6H4C6H4C6H4C6H4C6H4C6H4C6H4C6H4C6H4C6H4C6H4C6H4FeS2FeS2FeSFeS3FeS2FeS2FeSFeS3FeS2FeS2FeSFeS3FeS2FeS2FeSFeS3FeS2FeS2FeSFeS3FeS2FeS2FeSFeS3FeS2FeS2FeSFeS3FeS2FeS2FeSFeS3C6H4C6H4C6H4C6H4C6H4C6H4C6H4C6H4C6H4C6H4C6H4C6H4C6H4C6H4C6H4C6H4NC4H12NC4H12NC4H12NC4H12NC4H12NC4H12NC4H12NC4H12NC4H12NC4H12NC4H12NC4H12NC4H12NC4H12NC4H12NC4H12NC4H12NC4H12NC4H12NC4H12NC4H12NC4H12NC4H12NC4H12NC4H12NC4H12NC4H12NC4H12NC4H12NC4H12NC4H12NC4H12NC4H12NC4H12NC4H12NC4H12NC4H12NC4H12NC4H12NC4H12NC4H12NC4H12NC4H12NC4H12NC4H12NC4H12NC4H12NC4H12NC4H12NC4H12NC4H12NC4H12NC4H12NC4H12NC4H12NC4H12NC4H12NC4H12NC4H12NC4H12NC4H12NC4H12NC4H12NC4H12
_chemical_formula_sum              "Fe128 S256 C640 H1024 N64"
_cell_length_a       38.35090399681083
_cell_length_b       38.62041800580594
_cell_length_c       36.65309081270258
_cell_angle_alpha    89.88704811068357
_cell_angle_beta     89.8802143052193
_cell_angle_gamma    89.77471242900145

_space_group_name_H-M_alt    "P 1"
_space_group_IT_number       1

loop_
  _space_group_symop_operation_xyz
  'x, y, z'

loop_
  _atom_site_type_symbol
  _atom_site_label
  _atom_site_symmetry_multiplicity
  _atom_site_fract_x
  _atom_site_fract_y
  _atom_site_fract_z
  _atom_site_occupancy
  Fe  Fe1       1.0  0.29963132100708795  0.5092866830108629  0.24163292609357598  1.0000
  S   S1        1.0  0.2627607954993581  0.4753655140855611  0.2730192122043447  1.0000
  S   S2        1.0  0.34851921880911835  0.5315436461770412  0.26571340282006006  1.0000
  Fe  Fe2       1.0  0.2570173173594637  0.505998356323999  0.17243992734081065  1.0000
  S   S3        1.0  0.21652047508739855  0.47143148718011363  0.1971094041880727  1.0000
  S   S4        1.0  0.2539031852228215  0.5263076348427423  0.11523947666649519  1.0000
  Fe  Fe3       1.0  0.2207330637046836  0.5062155716676686  0.24557822284096173  1.0000
  S   S5        1.0  0.17284985091093183  0.5272678553470684  0.27296056232068777  1.0000
  Fe  Fe4       1.0  0.2620219136725084  0.4433854686509371  0.22196281685702973  1.0000
  S   S6        1.0  0.261064393141107  0.38516322500564576  0.2252588683471571  1.0000
  S   S7        1.0  0.2576017149450338  0.5434211302532321  0.21897630736761936  1.0000
  S   S8        1.0  0.3024428495682022  0.47490046436608424  0.19252548350644597  1.0000
  Fe  Fe5       1.0  0.5574784587914534  0.42767448449087075  0.367302959189671  1.0000
  S   S9        1.0  0.5188235847680417  0.45853759914579995  0.3348945616002087  1.0000
  S   S10       1.0  0.6047664210307804  0.402562510842711  0.3425552223299888  1.0000
  Fe  Fe6       1.0  0.5169682767541333  0.4354467510591146  0.43767755877063064  1.0000
  S   S11       1.0  0.4746345168796589  0.4672508853631808  0.41202857297359397  1.0000
  S   S12       1.0  0.5176498156197074  0.42047052442292326  0.49655779607896733  1.0000
  Fe  Fe7       1.0  0.47870679046132025  0.4291256930055704  0.3664566837303558  1.0000
  S   S13       1.0  0.43128901456372865  0.40832573094547453  0.33925665599301197  1.0000
  Fe  Fe8       1.0  0.5185257219044381  0.4938928791490011  0.3832083387432603  1.0000
  S   S14       1.0  0.5176580213182961  0.5514053130786198  0.37553445933328383  1.0000
  S   S15       1.0  0.5172243015300514  0.39454543380906265  0.3944291234923004  1.0000
  S   S16       1.0  0.5608884845843303  0.4655937808720889  0.413376578219498  1.0000
  Fe  Fe9       1.0  0.1779997906305724  0.2732460591655129  0.4705394266422452  1.0000
  S   S17       1.0  0.21824303353450725  0.23893373816026933  0.4443969316313648  1.0000
  S   S18       1.0  0.18049461363404404  0.2921576437561596  0.5282939024933982  1.0000
  Fe  Fe10      1.0  0.1305679447110782  0.27219932934575464  0.4051214778334939  1.0000
  S   S19       1.0  0.16604594281901386  0.2373806892760698  0.37322167350821  1.0000
  S   S20       1.0  0.08165713719198142  0.2915252388733883  0.37889619297824356  1.0000
  Fe  Fe11      1.0  0.1719067013961462  0.20830523320223646  0.4257770676633498  1.0000
  S   S21       1.0  0.1742146041441569  0.15020531417574928  0.426885244185182  1.0000
  Fe  Fe12      1.0  0.208419634286086  0.27103995840746775  0.39450384185308723  1.0000
  S   S22       1.0  0.24719181105558471  0.29058271731293905  0.3539821702936502  1.0000
  S   S23       1.0  0.13233131908386894  0.24012240591158346  0.4559687983732379  1.0000
  S   S24       1.0  0.17255575924041838  0.30855320974279676  0.42223089146411563  1.0000
  Fe  Fe13      1.0  0.42751004866800896  0.1987423901399752  0.1877929629609735  1.0000
  S   S25       1.0  0.4626012565977507  0.23447299048312567  0.2186087375934508  1.0000
  S   S26       1.0  0.44008002360265014  0.17826644492697447  0.13213022324952314  1.0000
  Fe  Fe14      1.0  0.37365088071007296  0.1956903687819602  0.2482531210227375  1.0000
  S   S27       1.0  0.4035752354197436  0.23157403326863799  0.2845156419169405  1.0000
  S   S28       1.0  0.3235638686137037  0.1716637065015323  0.2674744667565024  1.0000
  Fe  Fe15      1.0  0.4127057182291366  0.2618069800303014  0.23309456489959393  1.0000
  S   S29       1.0  0.41201750939382087  0.31988073785181576  0.2331083741854493  1.0000
  Fe  Fe16      1.0  0.45044054124971744  0.20095833692086112  0.2669686678030321  1.0000
  S   S30       1.0  0.48919213922887483  0.17900715058175945  0.30672046746184767  1.0000
  S   S31       1.0  0.3784017136937749  0.22871161655313885  0.1981528731266785  1.0000
  S   S32       1.0  0.41987315985849477  0.162486347255858  0.23481179613634512  1.0000
  Fe  Fe17      1.0  0.4994525025669491  0.30646989753907533  0.8911026244757217  1.0000
  S   S33       1.0  0.4787926284105691  0.26150754216683336  0.8592608295588301  1.0000
  S   S34       1.0  0.5344470055752925  0.34752520131491077  0.8671582590738574  1.0000
  Fe  Fe18      1.0  0.46523748934355086  0.28289701595912636  0.9615987128937742  1.0000
  S   S35       1.0  0.4413661447935753  0.23588374138966245  0.936175732584637  1.0000
  S   S36       1.0  0.45570297310719654  0.3010535883991164  0.01880611840592583  1.0000
  Fe  Fe19      1.0  0.493220658604845  0.23000882420334198  0.9084651498333134  1.0000
  S   S37       1.0  0.5196936307979093  0.17839532445121212  0.902654241742281  1.0000
  Fe  Fe20      1.0  0.4290007624423707  0.27118008007913175  0.8894729402310952  1.0000
  S   S38       1.0  0.37706795568003365  0.2677223499311023  0.8616993787902703  1.0000
  S   S39       1.0  0.518488759903193  0.274103741138989  0.9379324746364344  1.0000
  S   S40       1.0  0.4482495075339408  0.3191391907060429  0.9173928205151468  1.0000
  Fe  Fe21      1.0  0.47984641084757845  0.530597606319276  0.6552685575246376  1.0000
  S   S41       1.0  0.5178241745056492  0.4902202543413302  0.674747551639434  1.0000
  S   S42       1.0  0.4649019439158185  0.542284437487407  0.5974255737225918  1.0000
  Fe  Fe22      1.0  0.467888105171648  0.5587810230407221  0.7312843848009241  1.0000
  S   S43       1.0  0.5052411906732328  0.5216580466095557  0.7575718421676667  1.0000
  S   S44       1.0  0.4359709547892983  0.5956113413632864  0.7647989527575327  1.0000
  Fe  Fe23      1.0  0.5389768194039555  0.5332071613273797  0.7091177342275231  1.0000
  S   S45       1.0  0.5968234394883482  0.5371129365624175  0.7145426935227899  1.0000
  Fe  Fe24      1.0  0.4804586510334563  0.4823725110793469  0.721169335473444  1.0000
  S   S46       1.0  0.4593174036763017  0.43158759363387544  0.7412580700178051  1.0000
  S   S47       1.0  0.5040104994469252  0.5742175014953691  0.6859850457781083  1.0000
  S   S48       1.0  0.4403285764361535  0.5188753782292153  0.6983442030882872  1.0000
  Fe  Fe25      1.0  0.27867333950241385  0.4258036581188916  0.8765441599329645  1.0000
  S   S49       1.0  0.25347269377366727  0.3805819702688828  0.9039633662182002  1.0000
  S   S50       1.0  0.3312748057916574  0.4224765811668  0.8506499453477449  1.0000
  Fe  Fe26      1.0  0.2187018942520449  0.47392777464707025  0.8931988297447274  1.0000
  S   S51       1.0  0.18768195497234771  0.4329245588095626  0.9219401487397331  1.0000
  S   S52       1.0  0.1971229073277265  0.52700878223422  0.8825603971279433  1.0000
  Fe  Fe27      1.0  0.23902006774328555  0.41862002380794666  0.9473242354221058  1.0000
  S   S53       1.0  0.24712960824691177  0.4010215129554197  0.004919185810267956  1.0000
  Fe  Fe28      1.0  0.205186063352347  0.39895077384766425  0.8758079853764292  1.0000
  S   S54       1.0  0.17020326637048153  0.36143195855375193  0.847344201497891  1.0000
  S   S55       1.0  0.2687844773616594  0.4626057189613312  0.9225022853483744  1.0000
  S   S56       1.0  0.23161479400555846  0.44122208754144737  0.8446634533970443  1.0000
  Fe  Fe29      1.0  0.23108603224742696  0.2191001584365303  0.7342989178330387  1.0000
  S   S57       1.0  0.24774349390373987  0.1750060880638223  0.6985560946479121  1.0000
  S   S58       1.0  0.2594154548611063  0.26929411842623957  0.7390914281212518  1.0000
  Fe  Fe30      1.0  0.16863435774640434  0.18165064717486612  0.7636810403933948  1.0000
  S   S59       1.0  0.17941751799004332  0.13367246983274186  0.7310582660292668  1.0000
  S   S60       1.0  0.12148476664763615  0.1871091334244111  0.7991795207533624  1.0000
  Fe  Fe31      1.0  0.23501576156161436  0.14220640476497862  0.7473996789580165  1.0000
  S   S61       1.0  0.2711741706610055  0.09913797462973555  0.7642096385514838  1.0000
  Fe  Fe32      1.0  0.1907787588390714  0.17056303186214836  0.6855030825043399  1.0000
  S   S62       1.0  0.16973491449251937  0.1601565559327807  0.6294760342605212  1.0000
  S   S63       1.0  0.2230945873412508  0.18694177921453528  0.7843314454002465  1.0000
  S   S64       1.0  0.17536640278361318  0.21787277899545957  0.7166614746012292  1.0000
  C   C1        1.0  0.22750160276801787  0.5498083091514404  0.855999385455403  1.0000
  C   C2        1.0  0.21814358772085882  0.5812238376682693  0.8396013306001987  1.0000
  C   C3        1.0  0.24200251972814624  0.5986991691606611  0.8172215901723835  1.0000
  C   C4        1.0  0.27536801333806693  0.5851143095554268  0.8115146717951631  1.0000
  C   C5        1.0  0.28508335799145024  0.5543291646962996  0.8288074548198437  1.0000
  C   C6        1.0  0.26108745545859724  0.5364298441598286  0.8506313504958343  1.0000
  H   H1        1.0  0.19230877131631663  0.5917947703050913  0.84345998563446  1.0000
  H   H2        1.0  0.234397046062105  0.6224860528906037  0.8041240095968549  1.0000
  H   H3        1.0  0.3110252565235619  0.5442453597062995  0.8251502788327015  1.0000
  H   H4        1.0  0.26866865641621973  0.512313730753157  0.8632843315930715  1.0000
  C   C7        1.0  0.19525640853979415  0.3363480201005668  0.8170981559767768  1.0000
  C   C8        1.0  0.1834002795742045  0.30369073739605357  0.8067437452301995  1.0000
  C   C9        1.0  0.2034475787252638  0.2830523672034748  0.7833425320239273  1.0000
  C   C10       1.0  0.23511198195831992  0.2952008202951341  0.7693607655753459  1.0000
  C   C11       1.0  0.24696210637711347  0.32802148071673964  0.7794798193514678  1.0000
  C   C12       1.0  0.22711552729067383  0.3484978107232979  0.803516000206002  1.0000
  H   H5        1.0  0.1591090722279896  0.29390885655338006  0.8173786949922929  1.0000
  H   H6        1.0  0.19430195071997844  0.25760719833867907  0.7765155631563782  1.0000
  H   H7        1.0  0.2716082484709192  0.33748274900777636  0.7691422889205952  1.0000
  H   H8        1.0  0.236518653937895  0.37367831525039774  0.8113759994497388  1.0000
  C   C13       1.0  0.6142066463307252  0.5787742655124254  0.7102914752175371  1.0000
  C   C14       1.0  0.1457949570258953  0.5979100385533612  0.7774899113672646  1.0000
  C   C15       1.0  0.16026867839290487  0.6306513041201569  0.7714021015248093  1.0000
  C   C16       1.0  0.11293875129608921  0.1457838388553238  0.8163212695792338  1.0000
  C   C17       1.0  0.5818296933788425  0.12204740125531083  0.8163729574102145  1.0000
  C   C18       1.0  0.593187826593903  0.6084477378846473  0.712270958508807  1.0000
  H   H9        1.0  0.16243560834123144  0.5752112520126814  0.7775359788880116  1.0000
  H   H10       1.0  0.18784049077047457  0.6330282854303569  0.7668149743458669  1.0000
  H   H11       1.0  0.5605034235478442  0.1404852093389384  0.817438555982755  1.0000
  H   H12       1.0  0.5654196520177274  0.6060571790275215  0.716154542438405  1.0000
  C   C19       1.0  0.36426824910635736  0.30983001105766944  0.8504594869730381  1.0000
  C   C20       1.0  0.38932359034543307  0.33588025508061187  0.8485966729764746  1.0000
  C   C21       1.0  0.3791955061667512  0.37062456762444324  0.8463725920576435  1.0000
  C   C22       1.0  0.34381459122756924  0.37921353078909664  0.8458411535602023  1.0000
  C   C23       1.0  0.3187690424689261  0.3530153791967999  0.8445480198451968  1.0000
  C   C24       1.0  0.3289613112838689  0.31819488426645814  0.8469215050843774  1.0000
  H   H13       1.0  0.41652926139416285  0.3292325731364816  0.8498422748890806  1.0000
  H   H14       1.0  0.3987564820377838  0.3907334869336052  0.8467586965996586  1.0000
  H   H15       1.0  0.29151511726057144  0.3595611945584101  0.8425337266779197  1.0000
  H   H16       1.0  0.30942674676274734  0.2980633627073251  0.847701619992041  1.0000
  C   C25       1.0  0.4928985379614888  0.15078488243860616  0.8770960438705919  1.0000
  C   C26       1.0  0.46172414234247455  0.16306644217769584  0.8619186107478642  1.0000
  C   C27       1.0  0.44160077471490927  0.14139466590786734  0.8396975962772776  1.0000
  C   C28       1.0  0.4526742629807986  0.10761552128833325  0.8323406260160733  1.0000
  C   C29       1.0  0.4830755663820813  0.0949757123663022  0.8485824959624948  1.0000
  C   C30       1.0  0.5030501664899721  0.1164405999280312  0.8710694799031564  1.0000
  H   H17       1.0  0.453284543418717  0.1893371152502667  0.8669123293795987  1.0000
  H   H18       1.0  0.4180870330630986  0.15103985401653844  0.8273389601422653  1.0000
  H   H19       1.0  0.49137748725715985  0.06868748895510746  0.843714270949859  1.0000
  H   H20       1.0  0.526546825509491  0.10643420871520597  0.8833306744002105  1.0000
  C   C31       1.0  0.5136104823396629  0.37170587976761277  0.8327690074062821  1.0000
  C   C32       1.0  0.5286161445101012  0.4023229871245719  0.8194715653602755  1.0000
  C   C33       1.0  0.5120624639999563  0.4212924154429951  0.7915301174254443  1.0000
  C   C34       1.0  0.4807120151696225  0.4093540341312216  0.7766885102297469  1.0000
  C   C35       1.0  0.4659479084295763  0.378716328784645  0.7900056110207855  1.0000
  C   C36       1.0  0.4823651160671801  0.3599786361211411  0.8179197072818872  1.0000
  H   H21       1.0  0.55282659874974  0.41140254532071857  0.8309885309147302  1.0000
  H   H22       1.0  0.5234530508506673  0.4449930369575087  0.7813909348600556  1.0000
  H   H23       1.0  0.4417125677406129  0.36935900908188624  0.7786424607012158  1.0000
  H   H24       1.0  0.4711129546674742  0.336100647530556  0.8275815326276711  1.0000
  C   C37       1.0  0.44473668111549397  0.21243461751519763  0.10078080635273375  1.0000
  C   C38       1.0  0.43917090007134707  0.24672495085955834  0.11170710445493433  1.0000
  C   C39       1.0  0.44269812596854236  0.27384380759777166  0.0864260287891614  1.0000
  C   C40       1.0  0.4518614446000044  0.26678329712122745  0.050181438377966625  1.0000
  C   C41       1.0  0.45771429938693986  0.23252701503718953  0.039323647771340564  1.0000
  C   C42       1.0  0.4540456367047658  0.20538352308846072  0.06457299070412235  1.0000
  H   H25       1.0  0.43203938779570167  0.2524119259415032  0.1396071914042829  1.0000
  H   H26       1.0  0.4382094641503013  0.30028435382441027  0.09498732497541289  1.0000
  H   H27       1.0  0.46526391591796235  0.22687712480508845  0.01156988536990422  1.0000
  H   H28       1.0  0.4585186593454975  0.17892551842895849  0.05607615699984278  1.0000
  C   C43       1.0  0.17635687880073753  0.25560792892493617  0.5563979354828875  1.0000
  C   C44       1.0  0.16860375496791655  0.2594221592067535  0.5934838332524612  1.0000
  C   C45       1.0  0.16627479054201594  0.23013065276283737  0.6160457436425645  1.0000
  C   C46       1.0  0.17189069549702937  0.19703817334553886  0.6016117256280626  1.0000
  C   C47       1.0  0.1793292351628819  0.19328733637871715  0.564492644460807  1.0000
  C   C48       1.0  0.1814529481723328  0.2224913272307736  0.5419227709871732  1.0000
  H   H29       1.0  0.16404655395835543  0.28493854751692504  0.6046855045740263  1.0000
  H   H30       1.0  0.15954508262021772  0.2332320375182874  0.6443840417478628  1.0000
  H   H31       1.0  0.18425484878165074  0.16787501726588688  0.5532019166349036  1.0000
  H   H32       1.0  0.18759069670754194  0.21922922367590608  0.5133909081066467  1.0000
  C   C49       1.0  0.2650715524126668  0.25629406211628775  0.3287576811281005  1.0000
  C   C50       1.0  0.2805015509516808  0.26322009689461406  0.2949837804626048  1.0000
  C   C51       1.0  0.29823259940835767  0.2370801673670946  0.27610652194084695  1.0000
  C   C52       1.0  0.29951194760666955  0.20355456681994338  0.29031839741664156  1.0000
  C   C53       1.0  0.28237901774825525  0.19599806852734264  0.3231710984570881  1.0000
  C   C54       1.0  0.26529069354808343  0.22247476735372643  0.342567537447603  1.0000
  H   H33       1.0  0.2787220189988273  0.2887705299090619  0.2832927890355827  1.0000
  H   H34       1.0  0.3106592393828022  0.2426911012390834  0.2502824494620911  1.0000
  H   H35       1.0  0.28349552470197464  0.1700192593674214  0.33425640034387927  1.0000
  H   H36       1.0  0.25324834514191963  0.21687307278096107  0.36862079531641795  1.0000
  C   C55       1.0  0.581042452324281  0.24894541377130408  0.33350950148158176  1.0000
  C   C56       1.0  0.5542808875003262  0.26119061161155066  0.3110314882575695  1.0000
  C   C57       1.0  0.525901481339885  0.23985686163105915  0.3024840008076807  1.0000
  C   C58       1.0  0.5245132123555626  0.2061068541349149  0.31634502108289037  1.0000
  C   C59       1.0  0.5516415310934705  0.19367909957682244  0.3383333414235661  1.0000
  C   C60       1.0  0.5799370330995042  0.21503925127485457  0.34677289123695276  1.0000
  H   H37       1.0  0.5556823033237998  0.2871417583564282  0.30036179670561675  1.0000
  H   H38       1.0  0.5050490407476899  0.24948354807701278  0.2854363710029905  1.0000
  H   H39       1.0  0.550805870625695  0.16754823413106115  0.34892043018204394  1.0000
  H   H40       1.0  0.6008516195856881  0.20521126805477566  0.3634914742469975  1.0000
  C   C61       1.0  0.5030350026866158  0.4545784872297763  0.524206726327335  1.0000
  C   C62       1.0  0.49675063528612834  0.44853883130421823  0.5612575098329482  1.0000
  C   C63       1.0  0.48463606041061064  0.475397450875795  0.5836382700908255  1.0000
  C   C64       1.0  0.4790131397770097  0.5084427976306332  0.5691094552448366  1.0000
  C   C65       1.0  0.48522425034776084  0.5145538458704556  0.5319862445689151  1.0000
  C   C66       1.0  0.4974270630803228  0.4876605411821457  0.5095639518147838  1.0000
  H   H41       1.0  0.5008626166562009  0.4229644787114188  0.5726035968972161  1.0000
  H   H42       1.0  0.47895353266413243  0.47026110872840915  0.6119847917895183  1.0000
  H   H43       1.0  0.4807541601984836  0.5400592434169207  0.520659245011856  1.0000
  H   H44       1.0  0.5025040855601919  0.4925443374089759  0.4810397169890384  1.0000
  C   C67       1.0  0.559541933756959  0.5655683889935295  0.3642397312566923  1.0000
  C   C68       1.0  0.5849330273632434  0.11085430152783586  0.4075744985716834  1.0000
  C   C69       1.0  0.6178121591083706  0.12581227889069305  0.4021766340867207  1.0000
  C   C70       1.0  0.13383040101277402  0.12911361429926796  0.4272809809260575  1.0000
  C   C71       1.0  0.12684715866479837  0.5910309655335982  0.41907152293134364  1.0000
  C   C72       1.0  0.5870187035469133  0.5419069086113338  0.3604175696681124  1.0000
  H   H45       1.0  0.5616987136027705  0.1268000022251994  0.40617890467553713  1.0000
  H   H46       1.0  0.6197560198872397  0.1529725681548158  0.3958899378479681  1.0000
  H   H47       1.0  0.1494070120321168  0.5741076004684931  0.41998466738131396  1.0000
  H   H48       1.0  0.5821015099988095  0.5145624213510533  0.3621768687200777  1.0000
  C   C73       1.0  0.25173632670435253  0.4914924724664387  0.08464005661585632  1.0000
  C   C74       1.0  0.24576705980879873  0.4977140571714665  0.04752932486654516  1.0000
  C   C75       1.0  0.24391959135597857  0.4699512535460951  0.022967033258278313  1.0000
  C   C76       1.0  0.24847139640752966  0.4359580260747268  0.035426926903888045  1.0000
  C   C77       1.0  0.2544407997068617  0.42975032794767876  0.07252535085094233  1.0000
  C   C78       1.0  0.2559256620388285  0.4574687851680245  0.09713811527865426  1.0000
  H   H49       1.0  0.2423066395098679  0.5239713159611248  0.037837486211371285  1.0000
  H   H50       1.0  0.23876825351995262  0.47491582290437523  0.9944965273502692  1.0000
  H   H51       1.0  0.25783073899243997  0.40350590400044434  0.08231715945145447  1.0000
  H   H52       1.0  0.26042036821808934  0.45242776992889316  0.1257580376490283  1.0000
  C   C79       1.0  0.303095125521912  0.3670206673401532  0.2248418086449471  1.0000
  C   C80       1.0  0.3324439459029378  0.38818930276099445  0.22704461841336204  1.0000
  C   C81       1.0  0.3658910366666102  0.37357548981942107  0.22878678765832972  1.0000
  C   C82       1.0  0.37011532005343883  0.33762997184230503  0.22832220938529887  1.0000
  C   C83       1.0  0.34082696514886246  0.3163521051461474  0.22561988591389487  1.0000
  C   C84       1.0  0.30732382072668024  0.3310283296736643  0.22370013920388584  1.0000
  H   H53       1.0  0.3294236081152635  0.41585284961305957  0.2276790155065408  1.0000
  H   H54       1.0  0.38842906932996396  0.3902212958806273  0.23083819497528948  1.0000
  H   H55       1.0  0.3439288332028478  0.2886372460584781  0.22533164770244107  1.0000
  H   H56       1.0  0.28473626723086287  0.31448509623683696  0.22155154598289145  1.0000
  C   C85       1.0  0.1309954582635818  0.4601985845270234  0.3655588739475864  1.0000
  C   C86       1.0  0.1170238855919446  0.49308367756563093  0.3590216637353522  1.0000
  C   C87       1.0  0.13023983389269522  0.5136798251756447  0.3307949573016843  1.0000
  C   C88       1.0  0.1578169196826716  0.5016166302154738  0.3091978755390402  1.0000
  C   C89       1.0  0.17273531547434204  0.4692348943462936  0.31655517103985387  1.0000
  C   C90       1.0  0.15942541345412645  0.44857460700017304  0.34488353444164366  1.0000
  H   H57       1.0  0.09601430634299747  0.5027413411186796  0.3757208209844468  1.0000
  H   H58       1.0  0.11881123447551202  0.5388070960222865  0.32565350768967016  1.0000
  H   H59       1.0  0.1941320510377499  0.45994725979521955  0.3000917058888327  1.0000
  H   H60       1.0  0.17083189363389928  0.4235239564469279  0.3504884651952096  1.0000
  C   C91       1.0  0.3721346852142103  0.49743326235261703  0.28554349440485677  1.0000
  C   C92       1.0  0.40376022720356264  0.5037340113485812  0.3031555299859274  1.0000
  C   C93       1.0  0.42203081674613874  0.4765024188789155  0.31993287918374325  1.0000
  C   C94       1.0  0.408976360331877  0.4427427656727944  0.318356511666592  1.0000
  C   C95       1.0  0.3777927315425884  0.43642246379461686  0.3000277662820978  1.0000
  C   C96       1.0  0.35926744604392724  0.4637330826473764  0.2839627623737277  1.0000
  H   H61       1.0  0.4140523870947346  0.5295577337319914  0.30377186316411425  1.0000
  H   H62       1.0  0.44608474472333937  0.4817531090399475  0.33405646878810136  1.0000
  H   H63       1.0  0.36791813309127364  0.4104858627315864  0.298089953071326  1.0000
  H   H64       1.0  0.3350415890833524  0.45868968640846786  0.27024724442429093  1.0000
  Fe  Fe33      1.0  0.33258676606523957  0.010282428597868654  0.27109368057432554  1.0000
  S   S65       1.0  0.30220725605208004  0.9769234125469723  0.30985633349733627  1.0000
  S   S66       1.0  0.38496876866587976  0.03152841893350877  0.2862790010510514  1.0000
  Fe  Fe34      1.0  0.2759241094535376  0.010581551293275648  0.21382650248202847  1.0000
  S   S67       1.0  0.2399827813709638  0.9774670453752793  0.24716898947942265  1.0000
  S   S68       1.0  0.2641414233801246  0.03304066552963425  0.15860800880811216  1.0000
  Fe  Fe35      1.0  0.25690421777572603  0.01034932384525944  0.2940739698669517  1.0000
  S   S69       1.0  0.21900929577356787  0.033039852411208326  0.3337887946474771  1.0000
  Fe  Fe36      1.0  0.2882524148104054  0.9467134695021396  0.2598468212877025  1.0000
  S   S70       1.0  0.28457994378013235  0.8887469154315055  0.26364496080988076  1.0000
  S   S71       1.0  0.2882713117445295  0.04653405511749931  0.25982251328192985  1.0000
  S   S72       1.0  0.32302590213919474  0.9770008767847137  0.22212858232199814  1.0000
  Fe  Fe37      1.0  0.5778942958341635  0.9340014078694537  0.4080189461922207  1.0000
  S   S73       1.0  0.5381334607407608  0.9679650252746683  0.38127401276038736  1.0000
  S   S74       1.0  0.6189145817488596  0.9098924958739609  0.3725908175638384  1.0000
  Fe  Fe38      1.0  0.5424147024423039  0.9379447912121006  0.4817166104447961  1.0000
  S   S75       1.0  0.49903295785168256  0.9719417702794948  0.4611409466869579  1.0000
  S   S76       1.0  0.5453279873225708  0.9195192091711676  0.5397084648921713  1.0000
  Fe  Fe39      1.0  0.4994830017479942  0.9366046436249043  0.41274647575013923  1.0000
  S   S77       1.0  0.453955984273761  0.914989032732084  0.38235644731824453  1.0000
  Fe  Fe40      1.0  0.5420206967212059  0.9999709534352424  0.43184147800437683  1.0000
  S   S78       1.0  0.5414582070797563  0.057962260991966774  0.42640473903396364  1.0000
  S   S79       1.0  0.5389525089106071  0.8999438970496869  0.43567786253102814  1.0000
  S   S80       1.0  0.5856162945672866  0.9687071734617547  0.4563591233880798  1.0000
  Fe  Fe41      1.0  0.18071712048808  0.7609811909680408  0.47401613396506026  1.0000
  S   S81       1.0  0.22156752909904748  0.7248182507651707  0.45213134492332835  1.0000
  S   S82       1.0  0.17225014867172075  0.7726109681020266  0.5332925000355584  1.0000
  Fe  Fe42      1.0  0.1478403268478998  0.7716752464641842  0.39992233967428054  1.0000
  S   S83       1.0  0.1854852149473037  0.736275404402015  0.37188489467701924  1.0000
  S   S84       1.0  0.10749908001321043  0.797015680360466  0.3650295327472277  1.0000
  Fe  Fe43      1.0  0.17742598375803176  0.7019630393616861  0.42047772985294835  1.0000
  S   S85       1.0  0.1736047880793413  0.6440905543913139  0.41772062702664053  1.0000
  Fe  Fe44      1.0  0.22536238673483638  0.7627961357250843  0.40605013483453695  1.0000
  S   S86       1.0  0.27416530959760144  0.7820702596940452  0.3795943437404768  1.0000
  S   S87       1.0  0.1361402118665695  0.7352522265229057  0.4458041745176977  1.0000
  S   S88       1.0  0.18829102114207255  0.8012435652649018  0.43061506362812596  1.0000
  Fe  Fe45      1.0  0.4147262772630158  0.7081577243292961  0.17403052255539825  1.0000
  S   S89       1.0  0.4621652330218136  0.7355564807883817  0.1950399256693281  1.0000
  S   S90       1.0  0.39965646532857735  0.6998077579880824  0.11554795576448197  1.0000
  Fe  Fe46      1.0  0.3870658444212204  0.692689606247918  0.24947212794139992  1.0000
  S   S91       1.0  0.4317871772055811  0.7181480926551874  0.2777263935774452  1.0000
  S   S92       1.0  0.3437577005275042  0.6671143210864808  0.28049123219305966  1.0000
  Fe  Fe47      1.0  0.4253970566710706  0.7596735069263229  0.23541526943077346  1.0000
  S   S93       1.0  0.4316103049638446  0.8158653599335174  0.2500769817074424  1.0000
  Fe  Fe48      1.0  0.46468536969331115  0.6919584530221076  0.23536693006252546  1.0000
  S   S94       1.0  0.513806595879633  0.6642534603014625  0.25091611624112486  1.0000
  S   S95       1.0  0.3774222658862118  0.7363512520418  0.21050681898839188  1.0000
  S   S96       1.0  0.4205907573345892  0.6623827528139499  0.2109747262329313  1.0000
  Fe  Fe49      1.0  0.5170083334931442  0.7986591732272498  0.9179892724276403  1.0000
  S   S97       1.0  0.48499162417454533  0.7754770735935644  0.8733540318976948  1.0000
  S   S98       1.0  0.5283458890070337  0.8554380360336945  0.9151234298309195  1.0000
  Fe  Fe50      1.0  0.5175113951314545  0.7321489853827978  0.9620784741238904  1.0000
  S   S99       1.0  0.4852403733884326  0.7032740506793549  0.9213621818333901  1.0000
  S   S100      1.0  0.533133297772221  0.708336159493061  0.015251003971604948  1.0000
  Fe  Fe51      1.0  0.5197115145657331  0.7294477430731933  0.8803037706476335  1.0000
  S   S101      1.0  0.5417479606619409  0.7026728434602767  0.831416765992721  1.0000
  Fe  Fe52      1.0  0.45407045041948485  0.7523472082734625  0.9187618729910496  1.0000
  S   S102      1.0  0.39603210337481615  0.756336625049143  0.9171381911916958  1.0000
  S   S103      1.0  0.5549551273366257  0.7544816819157666  0.9212085324987516  1.0000
  S   S104      1.0  0.4831394315786088  0.7789991148827717  0.9631904808075209  1.0000
  Fe  Fe53      1.0  0.5063445464114332  0.02293600506904747  0.7089036879027244  1.0000
  S   S105      1.0  0.534185339155057  0.9793569636323157  0.7369423146655479  1.0000
  S   S106      1.0  0.5204766076908484  0.040818961187916836  0.6523202057098647  1.0000
  Fe  Fe54      1.0  0.466108715393194  0.042819854049345185  0.7774085331036562  1.0000
  S   S107      1.0  0.4908274321410269  0.000990997038734509  0.811252094642136  1.0000
  S   S108      1.0  0.4290179421710886  0.08153174805959384  0.8021466297681715  1.0000
  Fe  Fe55      1.0  0.540258552540703  0.016101499649518347  0.7832700819061349  1.0000
  S   S109      1.0  0.5925211519434173  0.01860329262178917  0.8103941555095403  1.0000
  Fe  Fe56      1.0  0.48217418435000703  0.9680080548352751  0.7619069636903245  1.0000
  S   S110      1.0  0.4664830885218342  0.9125240044163727  0.7677007062297883  1.0000
  S   S111      1.0  0.516451679536809  0.06102112353530598  0.7534048516916878  1.0000
  S   S112      1.0  0.4531668798856167  0.008522421765932986  0.7299078026985506  1.0000
  Fe  Fe57      1.0  0.29701794104178575  0.9232762470865703  0.9313347137738557  1.0000
  S   S113      1.0  0.2619282435744411  0.8827088055987002  0.9549024192864211  1.0000
  S   S114      1.0  0.35438551820698505  0.914715063509394  0.9212484155011047  1.0000
  Fe  Fe58      1.0  0.23831673023928945  0.9755763378113635  0.9244824207617462  1.0000
  S   S115      1.0  0.19831578206736444  0.9390616870050769  0.9470177230019641  1.0000
  S   S116      1.0  0.21892501746339166  0.02868831925523785  0.9099237248613675  1.0000
  Fe  Fe59      1.0  0.23955117971863038  0.9259356318844174  0.9880900097424512  1.0000
  S   S117      1.0  0.2284417636684358  0.9140162358597747  0.04681395807042166  1.0000
  Fe  Fe60      1.0  0.22469722585877314  0.8997073835173912  0.9115101805601704  1.0000
  S   S118      1.0  0.1966986176370954  0.8622797922740458  0.8752172172475948  1.0000
  S   S119      1.0  0.27784147127261355  0.9655541203654298  0.9683381262193855  1.0000
  S   S120      1.0  0.26121876586905823  0.9374321439565809  0.885287945599448  1.0000
  Fe  Fe61      1.0  0.2826503301580559  0.7312154516296862  0.7608341839294197  1.0000
  S   S121      1.0  0.3131013302833352  0.6917463431384713  0.7295135751604301  1.0000
  S   S122      1.0  0.3095314509260201  0.7727527222462433  0.7921623476954133  1.0000
  Fe  Fe62      1.0  0.21391094512479153  0.695953407173672  0.7475102705241881  1.0000
  S   S123      1.0  0.2381636174630582  0.6526815538978588  0.714997735988175  1.0000
  S   S124      1.0  0.15711112971495111  0.7008686155420114  0.7617430057356475  1.0000
  Fe  Fe63      1.0  0.2793876307430156  0.6532637933673883  0.7582591019173122  1.0000
  S   S125      1.0  0.30502018463421043  0.6063586484098876  0.7827418162409785  1.0000
  Fe  Fe64      1.0  0.269467506274988  0.6950091789951656  0.689185691461932  1.0000
  S   S126      1.0  0.2835744888182305  0.6940070198192986  0.6298545832422493  1.0000
  S   S127      1.0  0.25240659460765696  0.6926278629477255  0.793164022088072  1.0000
  S   S128      1.0  0.24190201797594812  0.7385702303918683  0.7178585881441709  1.0000
  C   C97       1.0  0.2341928426334758  0.047533116852513047  0.8693994803007554  1.0000
  C   C98       1.0  0.22186570209152193  0.0803863688098474  0.8596593145906157  1.0000
  C   C99       1.0  0.2333978704178738  0.09620534547344817  0.8274605591517425  1.0000
  C   C100      1.0  0.2572170072589882  0.07929389945692034  0.8047610321312605  1.0000
  C   C101      1.0  0.26992772798374554  0.046522871850732006  0.8146153543829453  1.0000
  C   C102      1.0  0.2582121554285297  0.03052394545672632  0.8468385785292613  1.0000
  H   H65       1.0  0.20334390160845855  0.093718646485911  0.8770057826050279  1.0000
  H   H66       1.0  0.2240760275980318  0.1216685783900815  0.8204265723862935  1.0000
  H   H67       1.0  0.2884210603958594  0.03337611126921858  0.7970693365238236  1.0000
  H   H68       1.0  0.2677699416145387  0.00517219580676298  0.8541536556645851  1.0000
  C   C103      1.0  0.22779204792627444  0.8383890443990393  0.8507307590022383  1.0000
  C   C104      1.0  0.2173635118556793  0.813364393770454  0.8255327568362496  1.0000
  C   C105      1.0  0.24242818678893513  0.793055658999187  0.8075064844521151  1.0000
  C   C106      1.0  0.2779676567593037  0.7983277495344714  0.8140922393077181  1.0000
  C   C107      1.0  0.2883075365365981  0.824052724852321  0.8385177893960701  1.0000
  C   C108      1.0  0.26323773186851374  0.8440311071232978  0.8567188935045915  1.0000
  H   H69       1.0  0.1900040499477924  0.8097198002699493  0.8198720721029222  1.0000
  H   H70       1.0  0.23415871410946096  0.7734910475244899  0.7884255227398165  1.0000
  H   H71       1.0  0.3155765586118259  0.8284507943785434  0.843843513116784  1.0000
  H   H72       1.0  0.2713553325162951  0.8637118029850497  0.8755969539109281  1.0000
  C   C109      1.0  0.6021626675730046  0.06251998290470184  0.8149166208280543  1.0000
  C   C110      1.0  0.13122624827409388  0.08590270432239078  0.8234717458454602  1.0000
  C   C111      1.0  0.13917297611915497  0.12053691340875061  0.8158243537972466  1.0000
  C   C112      1.0  0.13901148421072584  0.6600918629022743  0.7706891004608137  1.0000
  C   C113      1.0  0.6084090407553735  0.6414519835437387  0.7101937222330635  1.0000
  C   C114      1.0  0.5749428258203515  0.08652562671269526  0.8171119682811223  1.0000
  H   H73       1.0  0.15130863571672756  0.06623737197976576  0.8214043858491898  1.0000
  H   H74       1.0  0.16539365413635546  0.12755906391174232  0.8083826881774048  1.0000
  H   H75       1.0  0.5922062390356043  0.6643710666795183  0.712239064217416  1.0000
  H   H76       1.0  0.5484640246709401  0.07764452337699157  0.8193245562430299  1.0000
  C   C115      1.0  0.3847896529595114  0.8003388895771616  0.9179497213823495  1.0000
  C   C116      1.0  0.41057628119569933  0.8259217063062194  0.9185350415684788  1.0000
  C   C117      1.0  0.4012043782991321  0.8610584368907306  0.9196593223951104  1.0000
  C   C118      1.0  0.3660079040492668  0.8706958222003449  0.9199281448734075  1.0000
  C   C119      1.0  0.34046439689390956  0.8450491263139802  0.9186165493424653  1.0000
  C   C120      1.0  0.34972309000736956  0.8099822931868756  0.9177545131063182  1.0000
  H   H77       1.0  0.43780812485283654  0.8189189613569758  0.9179913864958099  1.0000
  H   H78       1.0  0.4212681308813832  0.8807013462867779  0.9202593598586987  1.0000
  H   H79       1.0  0.3134752300565712  0.8520757476950562  0.9176769431074423  1.0000
  H   H80       1.0  0.3295955038725137  0.7904443994779646  0.9167298558889151  1.0000
  C   C121      1.0  0.5115901303541014  0.6740543644169505  0.8124458453197483  1.0000
  C   C122      1.0  0.47652492511039973  0.6746064931974389  0.8231915897983528  1.0000
  C   C123      1.0  0.4530645416871667  0.6506558687162346  0.8083352924113143  1.0000
  C   C124      1.0  0.46481286512939285  0.6259591935751727  0.783227053950362  1.0000
  C   C125      1.0  0.49983832491744756  0.6254827254676419  0.7727102960410245  1.0000
  C   C126      1.0  0.5230194128445551  0.6498704532066927  0.7867475910855376  1.0000
  H   H81       1.0  0.4675298199618955  0.6935506764543361  0.8427515479908576  1.0000
  H   H82       1.0  0.42608274909477367  0.650967272897239  0.8165776782076446  1.0000
  H   H83       1.0  0.5092823035881029  0.6062849425193791  0.7538482692450499  1.0000
  H   H84       1.0  0.5498509185158467  0.6497698911122768  0.7778222432479892  1.0000
  C   C127      1.0  0.5109874763087886  0.8710760227077552  0.8742075023451934  1.0000
  C   C128      1.0  0.5160400602848109  0.8526853157792225  0.8417651792270793  1.0000
  C   C129      1.0  0.502905856523786  0.8657452883449097  0.808846713865989  1.0000
  C   C130      1.0  0.48424853011851815  0.896898389925412  0.8084725096241596  1.0000
  C   C131      1.0  0.4788787682667211  0.9150441702873905  0.8409545188797403  1.0000
  C   C132      1.0  0.49243732993598976  0.9023016661033766  0.8737991263093172  1.0000
  H   H85       1.0  0.5310310303239701  0.8288868925731939  0.8418821670997715  1.0000
  H   H86       1.0  0.5075556396030951  0.8519059255626552  0.7836515611307595  1.0000
  H   H87       1.0  0.4635939920705268  0.9384878181535847  0.8408199770067779  1.0000
  H   H88       1.0  0.4881723329273412  0.9163413242475199  0.8989520514499953  1.0000
  C   C133      1.0  0.4367836737848031  0.6988729109134668  0.08754829770347874  1.0000
  C   C134      1.0  0.47009393525779386  0.696528737995057  0.10281821052517066  1.0000
  C   C135      1.0  0.4997124576214867  0.698579228380071  0.0804161488689846  1.0000
  C   C136      1.0  0.49604965460925937  0.7033867330991456  0.04277712368692299  1.0000
  C   C137      1.0  0.4626831297620543  0.7049493431430517  0.027410456609287648  1.0000
  C   C138      1.0  0.4330904305082581  0.702148120099737  0.04972910590602164  1.0000
  H   H89       1.0  0.47315594409032996  0.6930979737983793  0.13186400809220464  1.0000
  H   H90       1.0  0.5254754737434549  0.697160203418807  0.09232403804924558  1.0000
  H   H91       1.0  0.45968475311870666  0.7081406822667666  0.9983124036432899  1.0000
  H   H92       1.0  0.40739286366644567  0.7030502593763601  0.037741943065797035  1.0000
  C   C139      1.0  0.20405912500917867  0.752851303886837  0.5608242422450157  1.0000
  C   C140      1.0  0.1961499300773456  0.7442456691590272  0.5970208811649718  1.0000
  C   C141      1.0  0.22049368455042584  0.726117253207937  0.6183751624806978  1.0000
  C   C142      1.0  0.25290276114669835  0.7168407774617498  0.6036478052538043  1.0000
  C   C143      1.0  0.2609027843201445  0.7257651374912627  0.567591846682709  1.0000
  C   C144      1.0  0.23664063930856  0.7440130891405594  0.546335565533593  1.0000
  H   H93       1.0  0.17103847900180819  0.751152909401489  0.6084591401539587  1.0000
  H   H94       1.0  0.21399925006439585  0.7190315439286251  0.6460968544633993  1.0000
  H   H95       1.0  0.28607943216248716  0.7189752113361321  0.5562381252259436  1.0000
  H   H96       1.0  0.2434825795327968  0.7517174157490594  0.5189602826285081  1.0000
  C   C145      1.0  0.29344224811646746  0.749418123757192  0.35295731558639915  1.0000
  C   C146      1.0  0.32245296546963836  0.7573530466393436  0.3314531100951027  1.0000
  C   C147      1.0  0.3379456688300922  0.7318487536982468  0.309634123188487  1.0000
  C   C148      1.0  0.32438531557047623  0.6983628546473558  0.3088468629543049  1.0000
  C   C149      1.0  0.29549023016644277  0.6901644765454779  0.3305967895843224  1.0000
  C   C150      1.0  0.28005551604616996  0.7156936414144445  0.35275192895290525  1.0000
  H   H97       1.0  0.3328807742247732  0.7832547489973276  0.33139149285872005  1.0000
  H   H98       1.0  0.36039360399127424  0.738147666446074  0.29327255886777587  1.0000
  H   H99       1.0  0.28512305931664506  0.6641531728977325  0.330366552785183  1.0000
  H   H100      1.0  0.2580457142764978  0.7091516487907147  0.3698269886780838  1.0000
  C   C151      1.0  0.5778849260624841  0.7355606623071634  0.3232831621220142  1.0000
  C   C152      1.0  0.5469023970261004  0.7475310938958161  0.30763069540592264  1.0000
  C   C153      1.0  0.5275972049515479  0.7260029441600439  0.28455453150355103  1.0000
  C   C154      1.0  0.5388293456726329  0.6920894012896992  0.2778420216069245  1.0000
  C   C155      1.0  0.5698958881042991  0.6801680360686061  0.29329066730947795  1.0000
  C   C156      1.0  0.5895870516038497  0.7020591412108155  0.3155760472038508  1.0000
  H   H101      1.0  0.537558649585161  0.7731462835363946  0.3137434828693312  1.0000
  H   H102      1.0  0.5040134992773255  0.7357055452613654  0.2721331522497408  1.0000
  H   H103      1.0  0.578525275548304  0.6539402523196469  0.2884546018727033  1.0000
  H   H104      1.0  0.613729767142437  0.692931458905899  0.3270308624145515  1.0000
  C   C157      1.0  0.5377874338667614  0.9532450910660532  0.5707552105462066  1.0000
  C   C158      1.0  0.5337301938815283  0.945698126335044  0.6078893411988731  1.0000
  C   C159      1.0  0.5276564291059704  0.9724180302655119  0.6330064599692222  1.0000
  C   C160      1.0  0.5261736003373839  0.006812982007973867  0.6211256960108313  1.0000
  C   C161      1.0  0.5302499989894747  0.014384212654116268  0.5839994030052819  1.0000
  C   C162      1.0  0.5359169167304398  0.9876295030109041  0.5587768922390367  1.0000
  H   H105      1.0  0.5348649375740514  0.9191034453275738  0.6171599300813074  1.0000
  H   H106      1.0  0.523963818700207  0.966250719555278  0.6614419008111138  1.0000
  H   H107      1.0  0.5284290584071075  0.040888534325455916  0.5747317581226168  1.0000
  H   H108      1.0  0.5387665836544089  0.9935352133223346  0.5300901134244151  1.0000
  C   C163      1.0  0.5822404589003852  0.07553563569281385  0.41560159319046824  1.0000
  C   C164      1.0  0.5659279612937848  0.600936010814514  0.36074548608089363  1.0000
  C   C165      1.0  0.5999677825007809  0.6126017079039241  0.35512174616927683  1.0000
  C   C166      1.0  0.13123198051206278  0.6269580338663049  0.41744370671161785  1.0000
  C   C167      1.0  0.13287779980283915  0.09291068826407356  0.42578331412356407  1.0000
  C   C168      1.0  0.6123017626344804  0.0550245063432695  0.4167078560691695  1.0000
  H   H109      1.0  0.5447367379605107  0.6194162845789782  0.36282286807360226  1.0000
  H   H110      1.0  0.6046345675195837  0.639759970432275  0.3518163991432706  1.0000
  H   H111      1.0  0.1569131220576494  0.07831546627314223  0.42309528473876956  1.0000
  H   H112      1.0  0.610462614404669  0.02772644987822548  0.42220338795180035  1.0000
  C   C169      1.0  0.2545274618653332  4.586459254696251e-05  0.12736887301312924  1.0000
  C   C170      1.0  0.25063406924119414  0.007870157643693032  0.09024539177974701  1.0000
  C   C171      1.0  0.2429560593544659  0.9815112505833413  0.06517898464111083  1.0000
  C   C172      1.0  0.23875912916704245  0.947395725328053  0.07733529676160167  1.0000
  C   C173      1.0  0.2424841611080348  0.9396871355577979  0.11446829892917303  1.0000
  C   C174      1.0  0.25068671179798485  0.9658935146719486  0.13940072805675705  1.0000
  H   H113      1.0  0.2535720873591649  0.03426833268597651  0.08087957032612539  1.0000
  H   H114      1.0  0.23975068439671743  0.9876549156117423  0.03661391760814792  1.0000
  H   H115      1.0  0.23925369897636384  0.9133390023277503  0.1239344265010972  1.0000
  H   H116      1.0  0.25378946967671273  0.9596230832914374  0.1679510164648206  1.0000
  C   C175      1.0  0.32541714266287053  0.8687513690285148  0.2588087285718645  1.0000
  C   C176      1.0  0.3554534661778463  0.8884882750758618  0.2532663267300971  1.0000
  C   C177      1.0  0.3881674973562783  0.8722750661131186  0.2505093893091404  1.0000
  C   C178      1.0  0.39078068357077034  0.8362227615518993  0.2531545685292618  1.0000
  C   C179      1.0  0.3607472436751552  0.8165918967493452  0.2589100807651756  1.0000
  C   C180      1.0  0.3281188365590308  0.8327618901283579  0.2618244008832816  1.0000
  H   H117      1.0  0.3534984972368026  0.9162219499133599  0.25117648563216727  1.0000
  H   H118      1.0  0.4113233077421872  0.8876582958672169  0.24611079835455357  1.0000
  H   H119      1.0  0.36268655939978245  0.7889419751167016  0.26153381913911794  1.0000
  H   H120      1.0  0.30506994403056814  0.8172953953685269  0.2663870634306786  1.0000
  C   C181      1.0  0.14252783777684142  0.9519305782381693  0.3743721175765721  1.0000
  C   C182      1.0  0.1345192614681582  0.9871386570335268  0.37753198451145925  1.0000
  C   C183      1.0  0.1583077084476167  0.012039784552513977  0.36531111066931077  1.0000
  C   C184      1.0  0.18983433789954043  0.0017020985729883087  0.3493870754461213  1.0000
  C   C185      1.0  0.1977823509941763  0.966480340176175  0.34595694938590893  1.0000
  C   C186      1.0  0.17424621392717282  0.9416126510941057  0.35887855587969786  1.0000
  H   H121      1.0  0.10989376208404399  0.995231216306209  0.38908162455730827  1.0000
  H   H122      1.0  0.15204926640777125  0.03926906900812566  0.3676655596839686  1.0000
  H   H123      1.0  0.22225005631877462  0.9585086339786657  0.33381170073322886  1.0000
  H   H124      1.0  0.18066854048698788  0.914513903097019  0.35710744045660436  1.0000
  C   C187      1.0  0.4059396397495206  0.9996484260416255  0.3120847962944427  1.0000
  C   C188      1.0  0.42500819570856935  0.008581152061443609  0.3431562375997851  1.0000
  C   C189      1.0  0.44045321250451597  0.9825989983949974  0.36458208354642774  1.0000
  C   C190      1.0  0.4367153093195398  0.9478084819588255  0.35481795699778673  1.0000
  C   C191      1.0  0.4187761197570152  0.9390897139842389  0.323040788293056  1.0000
  C   C192      1.0  0.4029821713085423  0.9649562917341638  0.3019564834109344  1.0000
  H   H125      1.0  0.42697092314722895  0.03544760618809639  0.35120740674383205  1.0000
  H   H126      1.0  0.45439732573375335  0.9894580551369471  0.3891450255087192  1.0000
  H   H127      1.0  0.41749070835945984  0.9124572642248322  0.31443032916415964  1.0000
  H   H128      1.0  0.38889374761580525  0.9582301918701761  0.27751218649417764  1.0000
  Fe  Fe65      1.0  0.8182919468562794  0.4967250288539767  0.23982935354370263  1.0000
  S   S129      1.0  0.7790931480235606  0.4637407362907976  0.26860269207383536  1.0000
  S   S130      1.0  0.855583170951697  0.5287465140604315  0.27226992106171555  1.0000
  Fe  Fe66      1.0  0.7914348013278153  0.47817492851668963  0.16484226099939822  1.0000
  S   S131      1.0  0.7495685919822057  0.4435019427501566  0.1870882612053896  1.0000
  S   S132      1.0  0.8036290199214866  0.48776599840157864  0.1058573006969441  1.0000
  Fe  Fe67      1.0  0.7413838648251263  0.4857552395241545  0.22817305963871923  1.0000
  S   S133      1.0  0.6900996167881616  0.5082400376296102  0.24604382021851426  1.0000
  Fe  Fe68      1.0  0.7913945535725206  0.42472330232131666  0.22517524288088206  1.0000
  S   S134      1.0  0.7945833800966551  0.3679843648419763  0.2390207473091034  1.0000
  S   S135      1.0  0.7796882109389004  0.5220890700832719  0.20265444020355766  1.0000
  S   S136      1.0  0.8340640359350792  0.45617463031575256  0.199549407686817  1.0000
  Fe  Fe69      1.0  0.061261735490359515  0.457022956790368  0.4165314341704733  1.0000
  S   S137      1.0  0.025050903021605064  0.48742446699919434  0.38046395859512494  1.0000
  S   S138      1.0  0.11189439862057937  0.43312581088565816  0.39839694572501205  1.0000
  Fe  Fe70      1.0  0.014646129386071793  0.4642400163616873  0.48265637618687124  1.0000
  S   S139      1.0  0.9744961549934491  0.49595664164639464  0.4531545914226715  1.0000
  S   S140      1.0  0.010730751311500253  0.4466039971961026  0.5406710897382977  1.0000
  Fe  Fe71      1.0  0.9824768440904689  0.4576851511190612  0.4080329835314356  1.0000
  S   S141      1.0  0.9397992643832851  0.43056332629880273  0.3780253622798689  1.0000
  Fe  Fe72      1.0  0.020853153221272125  0.5230468118139676  0.4286715726822293  1.0000
  S   S142      1.0  0.02173701753026358  0.5809371883775295  0.4211734278188592  1.0000
  S   S143      1.0  0.018979363285855033  0.42369778710658684  0.4393846096933742  1.0000
  S   S144      1.0  0.06030818338049504  0.4947862616498862  0.46275122375442657  1.0000
  Fe  Fe73      1.0  0.6818888150048955  0.24485521318145642  0.45824336691469103  1.0000
  S   S145      1.0  0.7270627008521232  0.21098145393791892  0.4422355701493844  1.0000
  S   S146      1.0  0.6701371993680257  0.2672159097970579  0.5131636889712436  1.0000
  Fe  Fe74      1.0  0.6535240366490437  0.24897355770735344  0.3814838940778023  1.0000
  S   S147      1.0  0.695398042674406  0.21519066556262886  0.3582245279055633  1.0000
  S   S148      1.0  0.6154074754746981  0.2764842364662899  0.3453502696420687  1.0000
  Fe  Fe75      1.0  0.6872558712596838  0.18297838285298748  0.40846782418113037  1.0000
  S   S149      1.0  0.6893682371677701  0.12485128143983991  0.40538002701432296  1.0000
  Fe  Fe76      1.0  0.7312317234655944  0.245958315264824  0.3935547132162439  1.0000
  S   S150      1.0  0.7797663320256679  0.26865802686214335  0.36968933365595874  1.0000
  S   S151      1.0  0.6415366445461804  0.21408421090302404  0.42885793836441705  1.0000
  S   S152      1.0  0.689975690774225  0.28248984872029553  0.4128109303318197  1.0000
  Fe  Fe77      1.0  0.9433245175271413  0.1807159736966826  0.18447783834873413  1.0000
  S   S153      1.0  0.9864073596899999  0.21587807721186444  0.2022661012368877  1.0000
  S   S154      1.0  0.9391891448388181  0.1615700343533145  0.126995440229465  1.0000
  Fe  Fe78      1.0  0.9104890725564959  0.17774648402130339  0.2589037474902017  1.0000
  S   S155      1.0  0.9496800104192763  0.2131562716788325  0.283901595603146  1.0000
  S   S156      1.0  0.8673388863653312  0.15276850676409087  0.29005361853772416  1.0000
  Fe  Fe79      1.0  0.9441835373229231  0.2440341059578476  0.2325727682792207  1.0000
  S   S157      1.0  0.9455624056662496  0.3020880057608809  0.23287144425076475  1.0000
  Fe  Fe80      1.0  0.9884377633170187  0.1821398867896761  0.2518890221849318  1.0000
  S   S158      1.0  0.03652637498964295  0.16559432300770072  0.28126252506477845  1.0000
  S   S159      1.0  0.9006726352001021  0.21173322773330636  0.21058806533039362  1.0000
  S   S160      1.0  0.9497339391700168  0.1438851995957667  0.23126822586894488  1.0000
  Fe  Fe81      1.0  0.9748639457635602  0.3195535970135869  0.9179263022659921  1.0000
  S   S161      1.0  0.9598154279362735  0.28011575192532767  0.8760968922867086  1.0000
  S   S162      1.0  0.012972464472544187  0.3617514445802597  0.904085456833008  1.0000
  Fe  Fe82      1.0  0.9287408356283616  0.2874697567709761  0.9763547861413648  1.0000
  S   S163      1.0  0.9099639220478903  0.24524865924933648  0.9395674485453916  1.0000
  S   S164      1.0  0.907041253728667  0.29362503903591664  0.03266479658710142  1.0000
  Fe  Fe83      1.0  0.9658383813411582  0.24227760478240795  0.9218165330235893  1.0000
  S   S165      1.0  0.9960200529786121  0.1935065302436897  0.9127491039404665  1.0000
  Fe  Fe84      1.0  0.9058114609344295  0.28749709004174584  0.8978735076123795  1.0000
  S   S166      1.0  0.8587220308159271  0.29265357854934126  0.8621823312542434  1.0000
  S   S167      1.0  0.9852798426994744  0.280970703100237  0.9624167285917888  1.0000
  S   S168      1.0  0.9201890637801029  0.33020342386866236  0.9363636084169843  1.0000
  Fe  Fe85      1.0  0.9878991917136756  0.5561065557206051  0.7041632585257277  1.0000
  S   S169      1.0  0.023107290529669866  0.5131178555263508  0.7232160622568491  1.0000
  S   S170      1.0  0.9812902545810349  0.5726120235897404  0.6458737903125293  1.0000
  Fe  Fe86      1.0  0.9634949293011399  0.5729935376629899  0.7808631691950655  1.0000
  S   S171      1.0  0.9960123589006813  0.5314007020850622  0.8063113418121406  1.0000
  S   S172      1.0  0.9313594179351021  0.6043709380468664  0.819724514529322  1.0000
  Fe  Fe87      1.0  0.03727856321968703  0.5499640245768019  0.7679266635225821  1.0000
  S   S173      1.0  0.09211247115970989  0.553109076120627  0.788457270392089  1.0000
  Fe  Fe88      1.0  0.978348419159913  0.498972497366177  0.759589535292296  1.0000
  S   S174      1.0  0.9580341303312722  0.44512093796897906  0.7670402260409277  1.0000
  S   S175      1.0  0.006130421241708595  0.5944058520937867  0.7456256789407635  1.0000
  S   S176      1.0  0.941846302961668  0.539155481310334  0.7370307784007524  1.0000
  Fe  Fe89      1.0  0.7575485863888878  0.4495213454906999  0.8957707433020405  1.0000
  S   S177      1.0  0.7254651404957011  0.41043838708838304  0.9258807395381946  1.0000
  S   S178      1.0  0.8154823577353869  0.4461420990748177  0.892888464720482  1.0000
  Fe  Fe90      1.0  0.6959865903543838  0.49064548517106893  0.8705707391152334  1.0000
  S   S179      1.0  0.6575578774545646  0.45573753202886785  0.89795860000042  1.0000
  S   S180      1.0  0.6795171185462217  0.5345726273499227  0.8348951221802974  1.0000
  Fe  Fe91      1.0  0.6949581835586885  0.45642086222340944  0.9447379663329737  1.0000
  S   S181      1.0  0.676053788916935  0.45616241972291677  0.002484787670813171  1.0000
  Fe  Fe92      1.0  0.6909828458019349  0.4125913108332759  0.876833094810905  1.0000
  S   S182      1.0  0.663861008948214  0.36457676132194783  0.8578961488152158  1.0000
  S   S183      1.0  0.7304569587244191  0.4957920435825503  0.9193835552610413  1.0000
  S   S184      1.0  0.7260325912012145  0.4475366365240588  0.8446037377821025  1.0000
  Fe  Fe93      1.0  0.7223749728857848  0.2259716659838062  0.7344421312814312  1.0000
  S   S185      1.0  0.7437463452163815  0.18360401284283756  0.6987884369317957  1.0000
  S   S186      1.0  0.7461830658966925  0.2786175426075591  0.7390334648971414  1.0000
  Fe  Fe94      1.0  0.667209081605718  0.18136220176799756  0.767587504635952  1.0000
  S   S187      1.0  0.6826916750821198  0.1349829616280938  0.7350890468604955  1.0000
  S   S188      1.0  0.624553816632983  0.17770774780317106  0.8087086968398347  1.0000
  Fe  Fe95      1.0  0.7369792164827086  0.15060259168648527  0.7485173550255215  1.0000
  S   S189      1.0  0.773530345301096  0.10924925530722973  0.7669514331128091  1.0000
  Fe  Fe96      1.0  0.687408585043049  0.17157216831665587  0.6881581991640238  1.0000
  S   S190      1.0  0.6684816005316903  0.15102286771219345  0.6343580045304315  1.0000
  S   S191      1.0  0.7211486801354947  0.19378699242311215  0.7853246086218614  1.0000
  S   S192      1.0  0.6663713461602873  0.2171298368793464  0.7194295742978432  1.0000
  C   C193      1.0  0.7164427581294465  0.5543382400777156  0.8159212408155162  1.0000
  C   C194      1.0  0.7126492881524733  0.5750050597435565  0.7849442931456787  1.0000
  C   C195      1.0  0.7414737400315269  0.5919998739137406  0.7699795686252772  1.0000
  C   C196      1.0  0.7744797181639089  0.5878720299906136  0.7854485955671263  1.0000
  C   C197      1.0  0.7784404037629549  0.5671146910742451  0.8165085034684078  1.0000
  C   C198      1.0  0.7494564371753722  0.5501244142105992  0.8316138551846872  1.0000
  H   H129      1.0  0.6874707217223358  0.5775349057684076  0.772221977491463  1.0000
  H   H130      1.0  0.7381048878741551  0.6080052776818341  0.7462068335818718  1.0000
  H   H131      1.0  0.8037097681662653  0.5646030338599941  0.8292158271204423  1.0000
  H   H132      1.0  0.7526312600117794  0.5343193958612955  0.8556965460672883  1.0000
  C   C199      1.0  0.6880779537147856  0.3404971851896766  0.8260742744566489  1.0000
  C   C200      1.0  0.6766760648741494  0.3074294474291113  0.8164147274588208  1.0000
  C   C201      1.0  0.694640327712059  0.2883154803357034  0.7898570710374209  1.0000
  C   C202      1.0  0.7241297299965948  0.30223314286250125  0.7728405557844916  1.0000
  C   C203      1.0  0.7359356113764737  0.33508649815378116  0.7829317514962019  1.0000
  C   C204      1.0  0.717967646093721  0.35417001162493494  0.8096139895483233  1.0000
  H   H133      1.0  0.6540925165103226  0.29647149713792537  0.8296776061604811  1.0000
  H   H134      1.0  0.6855594107929125  0.2628645895244445  0.7825078353806088  1.0000
  H   H135      1.0  0.7589607827722419  0.34577280677131705  0.7701098415764949  1.0000
  H   H136      1.0  0.7272662045338014  0.379415839980998  0.8171841013925485  1.0000
  C   C205      1.0  0.10983944904438236  0.5944746278377706  0.7823580722885228  1.0000
  C   C206      1.0  0.650217914608289  0.5821479535427446  0.7061849826439861  1.0000
  C   C207      1.0  0.6653095935282247  0.6149767376042902  0.7042693976205326  1.0000
  C   C208      1.0  0.6161343703037887  0.13353553265117657  0.8133139843660553  1.0000
  C   C209      1.0  0.07910752143938171  0.13688338356717453  0.8266961025211627  1.0000
  C   C210      1.0  0.08860837049275871  0.6240191682986926  0.7828587506977447  1.0000
  H   H137      1.0  0.6666232918496632  0.5593143985186527  0.7048685733007383  1.0000
  H   H138      1.0  0.6930285867839779  0.6170595018593897  0.7017004921987501  1.0000
  H   H139      1.0  0.058703595625101856  0.15631915957700174  0.8275185491536153  1.0000
  H   H140      1.0  0.06101794831254548  0.6217232596606453  0.7878459818985662  1.0000
  C   C211      1.0  0.8465798322891498  0.33630889285820714  0.8632137639140793  1.0000
  C   C212      1.0  0.8720214274015594  0.3613662818423149  0.8693042448419442  1.0000
  C   C213      1.0  0.8624423272254814  0.39539067989650084  0.8775175924191597  1.0000
  C   C214      1.0  0.8272749060464725  0.4047256577108636  0.8782179300651883  1.0000
  C   C215      1.0  0.8017680103359522  0.38033554555677423  0.8692271916662945  1.0000
  C   C216      1.0  0.8114210016031755  0.34596152757794707  0.8618964346425372  1.0000
  H   H141      1.0  0.8991917984875898  0.3542851062333624  0.8684987090153907  1.0000
  H   H142      1.0  0.8823357061443272  0.4141230526360977  0.8841886189954077  1.0000
  H   H143      1.0  0.7745494171173912  0.3875166944425839  0.8690582422589582  1.0000
  H   H144      1.0  0.7916060758122195  0.32670662428119596  0.8567092951435954  1.0000
  C   C217      1.0  0.9757112720405966  0.16741416653045707  0.8800341738554219  1.0000
  C   C218      1.0  0.9464352889250884  0.1792362698765302  0.8607922669726137  1.0000
  C   C219      1.0  0.9315291988594712  0.15843565287266473  0.8335891578463183  1.0000
  C   C220      1.0  0.9460244700297684  0.12599541601547948  0.8255788964215525  1.0000
  C   C221      1.0  0.9744438758748094  0.11384074366214027  0.8456395208575167  1.0000
  C   C222      1.0  0.9893414562335228  0.13453951327108007  0.8727634402366762  1.0000
  H   H145      1.0  0.935506099531084  0.20446360420288023  0.8666355512092782  1.0000
  H   H146      1.0  0.9092208974252133  0.1676397592761316  0.8184065717917084  1.0000
  H   H147      1.0  0.9849627015476035  0.08841540338572053  0.8402104048158779  1.0000
  H   H148      1.0  0.011587325524738734  0.12518022722619915  0.8880240273162844  1.0000
  C   C223      1.0  0.99816706074916  0.38526610304969644  0.8660223790669245  1.0000
  C   C224      1.0  0.01422099402048227  0.4164046538697616  0.8559738907021647  1.0000
  C   C225      1.0  0.0020095289972812402  0.43516663060200145  0.8256246367970494  1.0000
  C   C226      1.0  0.9739907465933064  0.4225904473145602  0.8051689691131986  1.0000
  C   C227      1.0  0.9582298953835064  0.39140053783086304  0.8151418074460269  1.0000
  C   C228      1.0  0.9702391836264809  0.3728869253644343  0.845513720793716  1.0000
  H   H149      1.0  0.035647421789599454  0.4261941353733445  0.871987797407579  1.0000
  H   H150      1.0  0.014198996187285706  0.45922766515877633  0.818037173471913  1.0000
  H   H151      1.0  0.9365283808950041  0.38157275615432645  0.7994700810261147  1.0000
  H   H152      1.0  0.9578086531628949  0.34897179494153424  0.8529367012486175  1.0000
  C   C229      1.0  0.9260958841025554  0.19556807017202685  0.09832636028057452  1.0000
  C   C230      1.0  0.9028549711887356  0.2207868927912218  0.1110582958028481  1.0000
  C   C231      1.0  0.895265435506042  0.24992750353724158  0.08974736887614522  1.0000
  C   C232      1.0  0.9111563429249685  0.2540883447276801  0.05571232579068042  1.0000
  C   C233      1.0  0.9330073774667607  0.2280311889637232  0.0420215855938908  1.0000
  C   C234      1.0  0.9403867438553108  0.19868300436070266  0.06332690525718046  1.0000
  H   H153      1.0  0.8904763615158382  0.2178526178934643  0.13721533236335248  1.0000
  H   H154      1.0  0.8776761411586825  0.26960068664128667  0.10004871021678179  1.0000
  H   H155      1.0  0.9452924704515944  0.23099855375787873  0.015629260209451212  1.0000
  H   H156      1.0  0.9581830717553911  0.17908937441947606  0.053218918608968636  1.0000
  C   C235      1.0  0.6701804202867495  0.2348673649062007  0.5467242346491618  1.0000
  C   C236      1.0  0.6678116629912099  0.24407302826165392  0.5835561889561036  1.0000
  C   C237      1.0  0.6678268568798638  0.21838410822459106  0.610645602566518  1.0000
  C   C238      1.0  0.6696495449116777  0.18345116930579747  0.600873112678941  1.0000
  C   C239      1.0  0.6720617396401126  0.17423883796454304  0.5640514014576794  1.0000
  C   C240      1.0  0.6724473160682805  0.19992234565653244  0.5369370131549112  1.0000
  H   H157      1.0  0.6662886703199385  0.27109000547063705  0.591169557349793  1.0000
  H   H158      1.0  0.6661378127427529  0.22566656226012935  0.6390196946012616  1.0000
  H   H159      1.0  0.6745846493691912  0.1473144740087762  0.556637888655005  1.0000
  H   H160      1.0  0.6747240034410413  0.1927329462594896  0.5085294983764301  1.0000
  C   C241      1.0  0.8038231232548405  0.23648132456105064  0.34730056859678793  1.0000
  C   C242      1.0  0.8334819378033683  0.24549911838181818  0.3271800580050737  1.0000
  C   C243      1.0  0.8528646756963378  0.21982126973516083  0.3092122819513044  1.0000
  C   C244      1.0  0.8425724377750965  0.18516012540028465  0.3113199756718237  1.0000
  C   C245      1.0  0.8126041374302059  0.1762617040068226  0.33087454025479207  1.0000
  C   C246      1.0  0.7933007952447714  0.20186103816504847  0.3490551890195927  1.0000
  H   H161      1.0  0.8413959798994455  0.27232472369419286  0.3254312172530127  1.0000
  H   H162      1.0  0.8756815724311469  0.22692581591656147  0.2937401032164881  1.0000
  H   H163      1.0  0.8042651636724724  0.14964924605123173  0.33173174246906023  1.0000
  H   H164      1.0  0.7704239318609789  0.19476233943606652  0.3645824236269185  1.0000
  C   C247      1.0  0.06749871463438173  0.25660387743849533  0.3525750090186144  1.0000
  C   C248      1.0  0.04725151289394769  0.26223964933812505  0.32147006108972054  1.0000
  C   C249      1.0  0.03784584989970541  0.23421311001406997  0.29938085285360655  1.0000
  C   C250      1.0  0.04882235125234535  0.2006263994877403  0.30838076079473425  1.0000
  C   C251      1.0  0.06882771248088981  0.1949935504427996  0.3396400353961784  1.0000
  C   C252      1.0  0.07801659418012186  0.2229830201824716  0.3617749411591439  1.0000
  H   H165      1.0  0.03979314399647138  0.2882645729962599  0.31385198551049076  1.0000
  H   H166      1.0  0.022830451135262386  0.2387237557881756  0.2749005587741222  1.0000
  H   H167      1.0  0.07684451024848671  0.16900715927507742  0.34701923079355845  1.0000
  H   H168      1.0  0.09316404098608944  0.21849531360801078  0.3860985538052012  1.0000
  C   C253      1.0  0.001519402551386051  0.48166594717052336  0.5694698675486071  1.0000
  C   C254      1.0  0.9953806816217166  0.4757785338759681  0.6065990432047718  1.0000
  C   C255      1.0  0.988598917070205  0.503661755718213  0.6300222963939732  1.0000
  C   C256      1.0  0.9882596635026858  0.5375155222158453  0.6164242205389916  1.0000
  C   C257      1.0  0.9937645024424197  0.5434029703276063  0.5791533025132739  1.0000
  C   C258      1.0  0.0004828519182413782  0.5154842066818536  0.5556761321850682  1.0000
  H   H169      1.0  0.9958185700409669  0.44963596500005487  0.617256662955444  1.0000
  H   H170      1.0  0.9833971195814251  0.49883392855998504  0.658530235074277  1.0000
  H   H171      1.0  0.9934694273035093  0.5695408991650688  0.5685093482342586  1.0000
  H   H172      1.0  0.005237670593057908  0.5201873615262083  0.5270137987285781  1.0000
  C   C259      1.0  0.06395728057353534  0.5983264760221939  0.4190325564796027  1.0000
  C   C260      1.0  0.07085619150581501  0.13039177241896607  0.433351820511554  1.0000
  C   C261      1.0  0.10275452944028296  0.14783395275627492  0.43069947076994114  1.0000
  C   C262      1.0  0.6480196324839718  0.10569162750069541  0.40577081414144606  1.0000
  C   C263      1.0  0.6211732489248863  0.553683428264594  0.3549278985429872  1.0000
  C   C264      1.0  0.09329497770618711  0.5767547435749387  0.4197057504814628  1.0000
  H   H173      1.0  0.04696621027545511  0.14503814764971626  0.4366282971382266  1.0000
  H   H174      1.0  0.10327747390003617  0.17569281599699357  0.4319920105093295  1.0000
  H   H175      1.0  0.6424634871988915  0.5353110005151447  0.3527448812906279  1.0000
  H   H176      1.0  0.09023803872060698  0.5490401004152562  0.42079981622939316  1.0000
  C   C265      1.0  0.7678123731000491  0.47951242200284655  0.0775180047541173  1.0000
  C   C266      1.0  0.7729444092045187  0.4768224536522098  0.039840907407713955  1.0000
  C   C267      1.0  0.744841937768383  0.4692465497505352  0.016863469389412522  1.0000
  C   C268      1.0  0.7113442311058422  0.46502132910028804  0.03138902684697498  1.0000
  C   C269      1.0  0.7061315859186384  0.4679533642293272  0.06905543806762085  1.0000
  C   C270      1.0  0.7343560744157697  0.47520471957304405  0.09210965520354557  1.0000
  H   H177      1.0  0.7986715507509783  0.48062094414452644  0.028438735788967277  1.0000
  H   H178      1.0  0.7491822367897696  0.46677056547211637  0.9879242962196844  1.0000
  H   H179      1.0  0.6802567237876228  0.46488393998965116  0.08038970580522424  1.0000
  H   H180      1.0  0.7300411033075944  0.478044381001137  0.12104578805157108  1.0000
  C   C271      1.0  0.8368535280260908  0.35018307329652204  0.2384770521699621  1.0000
  C   C272      1.0  0.8412602566779525  0.3144497108904137  0.24323100169628883  1.0000
  C   C273      1.0  0.8746353540304712  0.2996243902747136  0.24184190726920693  1.0000
  C   C274      1.0  0.9037138196829138  0.32036213888240833  0.23519910978479316  1.0000
  C   C275      1.0  0.8995186041902463  0.35615516131671987  0.23114097328768618  1.0000
  C   C276      1.0  0.8661677860826178  0.3710533567016346  0.23315930401368926  1.0000
  H   H181      1.0  0.8189257202100615  0.2980737957983787  0.24786947573836815  1.0000
  H   H182      1.0  0.8776914350045685  0.27218605931883205  0.24611414076516241  1.0000
  H   H183      1.0  0.9220132128405126  0.3724645862479795  0.2267336145297338  1.0000
  H   H184      1.0  0.8632912412665327  0.3986650586426873  0.23085409002877474  1.0000
  C   C277      1.0  0.628665902087229  0.43194097876818155  0.31600479535738846  1.0000
  C   C278      1.0  0.6148670612260208  0.46453692307141903  0.3078196628271247  1.0000
  C   C279      1.0  0.6338839282228291  0.4879055464416725  0.28645835164797984  1.0000
  C   C280      1.0  0.6667196048998886  0.47863976409165626  0.2728699377779403  1.0000
  C   C281      1.0  0.6806011498539207  0.4459312871484974  0.2809401535667136  1.0000
  C   C282      1.0  0.661642728668784  0.42269703498876293  0.30273792863059606  1.0000
  H   H185      1.0  0.589480320708705  0.47178338399352865  0.3178335293140197  1.0000
  H   H186      1.0  0.6230094184774239  0.5131182358431707  0.28064764698111594  1.0000
  H   H187      1.0  0.7058805596832233  0.4385030493809213  0.27043015395163883  1.0000
  H   H188      1.0  0.6725833769269508  0.3977339315897944  0.3096440713556048  1.0000
  C   C283      1.0  0.8779645082195089  0.5016431418204766  0.30268765745580917  1.0000
  C   C284      1.0  0.8997401160804941  0.5158805127197489  0.32927687092123814  1.0000
  C   C285      1.0  0.9187402589792916  0.49413763279625733  0.35273931423797894  1.0000
  C   C286      1.0  0.9153825350116174  0.4581951160493286  0.3499813267324116  1.0000
  C   C287      1.0  0.8926109561929795  0.4440493484019668  0.3242561240491051  1.0000
  C   C288      1.0  0.8741234265071082  0.4657380116019158  0.3004513993382239  1.0000
  H   H189      1.0  0.9017620095513257  0.5436295011411316  0.3318582061381283  1.0000
  H   H190      1.0  0.9357377230283196  0.5050606785377806  0.37318201212323815  1.0000
  H   H191      1.0  0.8894607739521722  0.41629761880960403  0.3223815421019908  1.0000
  H   H192      1.0  0.8571871721090903  0.45450303193280284  0.2801883931769588  1.0000
  Fe  Fe97      1.0  0.821025173383875  0.9957594876024715  0.25925544413452856  1.0000
  S   S193      1.0  0.7791826575936801  0.9667163657761181  0.2886805424902184  1.0000
  S   S194      1.0  0.8640688995640669  0.02322443076106273  0.28843516393148866  1.0000
  Fe  Fe98      1.0  0.7869919501667836  0.9864810396403696  0.1853637687875849  1.0000
  S   S195      1.0  0.7418444596103876  0.9566000055024746  0.20813582769833072  1.0000
  S   S196      1.0  0.7928879608892453  0.004571265299007976  0.12765544843159066  1.0000
  Fe  Fe99      1.0  0.7424970675788681  0.9962426274518317  0.2527716474300323  1.0000
  S   S197      1.0  0.6968591506040182  0.02260671531890046  0.2789487571935869  1.0000
  Fe  Fe100     1.0  0.7828557133803934  0.9298039488833907  0.24180005877341548  1.0000
  S   S198      1.0  0.7810686615167144  0.8724607616608463  0.25240996071836663  1.0000
  S   S199      1.0  0.7840644861096119  0.028494935388327924  0.2271452989482449  1.0000
  S   S200      1.0  0.8282829916335133  0.956457853292493  0.2148895625717743  1.0000
  Fe  Fe101     1.0  0.06869845422410004  0.9483106035271628  0.41738997065253086  1.0000
  S   S201      1.0  0.02799661947949894  0.9812366376860139  0.39023294552915416  1.0000
  S   S202      1.0  0.11303556608384979  0.9207992155406992  0.39005592442194215  1.0000
  Fe  Fe102     1.0  0.036118477267802485  0.9538918411060112  0.4917656943944716  1.0000
  S   S203      1.0  0.9918071337805506  0.9871127308910327  0.4724326969046832  1.0000
  S   S204      1.0  0.046128150648668154  0.9346407484639786  0.5483664807468348  1.0000
  Fe  Fe103     1.0  0.990161188555135  0.9511951578399981  0.42458237440556085  1.0000
  S   S205      1.0  0.9406126685560708  0.9280674625134147  0.4033945576643659  1.0000
  Fe  Fe104     1.0  0.032940497937230084  0.014801127319054697  0.4399953422086843  1.0000
  S   S206      1.0  0.029924674300365828  0.07294249878931569  0.4380192878973082  1.0000
  S   S207      1.0  0.030540829357505572  0.9150968531463062  0.44707091045959674  1.0000
  S   S208      1.0  0.0775330276941133  0.9848112354556869  0.4639297423389562  1.0000
  Fe  Fe105     1.0  0.6702147940169175  0.6935252367445593  0.44748683531830713  1.0000
  S   S209      1.0  0.7141533586955943  0.6676026262264341  0.4176185830621366  1.0000
  S   S210      1.0  0.659538755914622  0.6814373298639749  0.5062012688571436  1.0000
  Fe  Fe106     1.0  0.6427818509196365  0.728761231405604  0.3790444782669635  1.0000
  S   S211      1.0  0.6845525220868739  0.705941276617178  0.3435812857616279  1.0000
  S   S212      1.0  0.6015998171301669  0.7619801185059921  0.35311441023784707  1.0000
  Fe  Fe107     1.0  0.6740794360976801  0.6571477734115585  0.3747618148549829  1.0000
  S   S213      1.0  0.6704951730675581  0.6044030654936787  0.34936372045371356  1.0000
  Fe  Fe108     1.0  0.7198156579472064  0.7191366577052437  0.3899657214424927  1.0000
  S   S214      1.0  0.7701703024503543  0.7460674959202942  0.37856741918046316  1.0000
  S   S215      1.0  0.629534986226724  0.6789447905591348  0.40710381534084683  1.0000
  S   S216      1.0  0.6788862899382948  0.7461880363384821  0.4232904641691679  1.0000
  Fe  Fe109     1.0  0.9405274248187833  0.7053538129946922  0.18454090984444108  1.0000
  S   S217      1.0  0.9813437361546004  0.739894722467985  0.20851848641703355  1.0000
  S   S218      1.0  0.9339553122961352  0.6908478387751543  0.12622364578657178  1.0000
  Fe  Fe110     1.0  0.9096340185075747  0.6865127056905651  0.25706993347525026  1.0000
  S   S219      1.0  0.947352676255936  0.7188042524802624  0.2887163556139132  1.0000
  S   S220      1.0  0.867783977259816  0.6530680448335842  0.2805512435757196  1.0000
  Fe  Fe111     1.0  0.937811038334391  0.7582611500623214  0.2448918796030545  1.0000
  S   S221      1.0  0.9338343575130598  0.8145815816461648  0.259523754114973  1.0000
  Fe  Fe112     1.0  0.9875262414549042  0.6978167687479273  0.25019398848569446  1.0000
  S   S222      1.0  0.03806965629049541  0.6782075076643446  0.27303334770751914  1.0000
  S   S223      1.0  0.8962758576777391  0.7277260563579934  0.21644492378746294  1.0000
  S   S224      1.0  0.9506912681358455  0.661512683018111  0.22282157950168494  1.0000
  Fe  Fe113     1.0  0.031165264843291407  0.8114655382403656  0.9013868740541808  1.0000
  S   S225      1.0  0.0107150793305264  0.7663944945356147  0.8698331528795481  1.0000
  S   S226      1.0  0.06642286687777954  0.8499155822793683  0.87452318698415  1.0000
  Fe  Fe114     1.0  0.9858074590745693  0.7963083871695693  0.9674612037616236  1.0000
  S   S227      1.0  0.9607347807656853  0.7504521871888963  0.9407336279605676  1.0000
  S   S228      1.0  0.968294782176389  0.8163373641012663  0.022176015589824072  1.0000
  Fe  Fe115     1.0  0.015229313498009933  0.7379058042832564  0.9228135166441133  1.0000
  S   S229      1.0  0.03733203443994482  0.684298973501266  0.9198553576392795  1.0000
  Fe  Fe116     1.0  0.9589161271965898  0.7835514316791631  0.8908251078614768  1.0000
  S   S230      1.0  0.9113945224389914  0.7842038071007944  0.8557247735315231  1.0000
  S   S231      1.0  0.04084795803839669  0.7814931991616663  0.9529248625599432  1.0000
  S   S232      1.0  0.9787916452415477  0.8307392455617277  0.919010698612844  1.0000
  Fe  Fe117     1.0  0.018594793089586226  0.03969240819192854  0.7156475380421784  1.0000
  S   S233      1.0  0.041081321521489356  0.9951710925426163  0.747130631553121  1.0000
  S   S234      1.0  0.03660735748814847  0.05825184541778805  0.6604159931452256  1.0000
  Fe  Fe118     1.0  0.96770436302117  0.0590611868921318  0.7757791006552425  1.0000
  S   S235      1.0  0.9847675970185265  0.01607786490426033  0.813020102484304  1.0000
  S   S236      1.0  0.929001839654164  0.10067698192370056  0.7902546344547204  1.0000
  Fe  Fe119     1.0  0.03880047473739934  0.03020587397034369  0.7955195265316299  1.0000
  S   S237      1.0  0.08471281151021026  0.03323560044158547  0.8330519045333415  1.0000
  Fe  Fe120     1.0  0.9854973137402641  0.9840494178584327  0.7619833583672196  1.0000
  S   S238      1.0  0.9682918798367675  0.9288049646659062  0.7636003128327408  1.0000
  S   S239      1.0  0.021816104301086714  0.07616665424555769  0.7627663760433021  1.0000
  S   S240      1.0  0.9627671983777664  0.025558931625086823  0.7261400211554537  1.0000
  Fe  Fe121     1.0  0.7984487055396542  0.9301242118170556  0.8792997600234882  1.0000
  S   S241      1.0  0.7779866383175306  0.8809422474853074  0.9035189074606348  1.0000
  S   S242      1.0  0.8520744737413033  0.9355369051897225  0.8555722364360233  1.0000
  Fe  Fe122     1.0  0.7337943183738438  0.9707045972148677  0.8995872249141575  1.0000
  S   S243      1.0  0.7080225468533325  0.9248916256613232  0.9262651754493305  1.0000
  S   S244      1.0  0.7093390048587  0.02395148936726632  0.8976316195484155  1.0000
  Fe  Fe123     1.0  0.7609629258628219  0.9141304331795485  0.9501404242492398  1.0000
  S   S245      1.0  0.7731441584982915  0.8915434091724352  0.005527812183278913  1.0000
  Fe  Fe124     1.0  0.7276564570586738  0.8957761918066239  0.8772593209634741  1.0000
  S   S246      1.0  0.697250577046067  0.8564306217433678  0.845442708200937  1.0000
  S   S247      1.0  0.7851202128096145  0.9625361826289331  0.927723095785191  1.0000
  S   S248      1.0  0.7495462212121674  0.9422019912070823  0.8488880189362136  1.0000
  Fe  Fe125     1.0  0.7858120436777322  0.7279919331711806  0.7221674285538446  1.0000
  S   S249      1.0  0.8236444272152872  0.6888558484039734  0.6999254915450479  1.0000
  S   S250      1.0  0.8064031191341537  0.7772633476649792  0.7460374213866701  1.0000
  Fe  Fe126     1.0  0.7226674692199737  0.6842080229826976  0.7038382063751835  1.0000
  S   S251      1.0  0.7554780960468696  0.6410748567615956  0.6807733760796806  1.0000
  S   S252      1.0  0.6638763777825348  0.685837656059818  0.7053494124642474  1.0000
  Fe  Fe127     1.0  0.7897581156235549  0.6504306820354682  0.7290292959564952  1.0000
  S   S253      1.0  0.8105078366456118  0.6087416954975003  0.7658059398399686  1.0000
  Fe  Fe128     1.0  0.7854652251185196  0.6837138759110777  0.6542513096688314  1.0000
  S   S254      1.0  0.800335742135345  0.6814060647757615  0.5953285086498623  1.0000
  S   S255      1.0  0.7545958570397877  0.6899224162953325  0.7546150010030044  1.0000
  S   S256      1.0  0.7505985753958966  0.726417983579809  0.6736937587017212  1.0000
  C   C289      1.0  0.7243509324048527  0.048164791537869345  0.860131233684838  1.0000
  C   C290      1.0  0.7275977611092245  0.08418030358387418  0.8628650028251187  1.0000
  C   C291      1.0  0.7416975362072806  0.1033035945110421  0.8337514288555307  1.0000
  C   C292      1.0  0.752861724454021  0.08631394202132237  0.8020773742424192  1.0000
  C   C293      1.0  0.7488131843606078  0.05053409498805439  0.7990212335097461  1.0000
  C   C294      1.0  0.7340937258000518  0.03164906137675505  0.8277597253261799  1.0000
  H   H193      1.0  0.7200916806942206  0.09714027462497099  0.8877977478819952  1.0000
  H   H194      1.0  0.7447973938326691  0.1310235047254087  0.836192619778649  1.0000
  H   H195      1.0  0.7568205664826608  0.03742557373679234  0.7743008579776557  1.0000
  H   H196      1.0  0.7296667936572494  0.0044287838540619795  0.8244396422862217  1.0000
  C   C295      1.0  0.7260284017245539  0.8350974990795471  0.8155036673643025  1.0000
  C   C296      1.0  0.7588143886721576  0.8492651276171077  0.8086822170912652  1.0000
  C   C297      1.0  0.7831128386448565  0.8315208865701421  0.7870515319384966  1.0000
  C   C298      1.0  0.7746050197944118  0.7996419776210296  0.7715454116227226  1.0000
  C   C299      1.0  0.7411799147676054  0.7859906043082096  0.7769934315458992  1.0000
  C   C300      1.0  0.7169186288929154  0.8036691626166915  0.7991011719676021  1.0000
  H   H197      1.0  0.7654518421235962  0.8739837718689044  0.8202436068313758  1.0000
  H   H198      1.0  0.8086092849526687  0.8424555627281438  0.7827279490627012  1.0000
  H   H199      1.0  0.734032718411067  0.7617544867553205  0.7645236673966284  1.0000
  H   H200      1.0  0.6913926015969931  0.7927443264926953  0.8039746079513773  1.0000
  C   C301      1.0  0.09680918000579997  0.07666732180371105  0.8310269880990909  1.0000
  C   C302      1.0  0.6366557258177817  0.07396005246227011  0.8136699428129662  1.0000
  C   C303      1.0  0.6436080138103838  0.10954437905112835  0.8125594287941648  1.0000
  C   C304      1.0  0.6446119553912788  0.6446904802891364  0.7062720576801145  1.0000
  C   C305      1.0  0.10319348336947898  0.65685390131324  0.7771038085294185  1.0000
  C   C306      1.0  0.07108729862858576  0.1021919400660336  0.833659277541006  1.0000
  H   H201      1.0  0.6578931941128519  0.05544773613313958  0.8125621454698553  1.0000
  H   H202      1.0  0.6702761031818552  0.11841627282798828  0.8111502828322245  1.0000
  H   H203      1.0  0.08662716343864796  0.6795966444901232  0.7769336554885742  1.0000
  H   H204      1.0  0.04471147826693067  0.09483735183421427  0.8399019061625341  1.0000
  C   C307      1.0  0.8959482703382473  0.8264971672499292  0.851456558773795  1.0000
  C   C308      1.0  0.9187147224467659  0.8546254416721578  0.8534378282787639  1.0000
  C   C309      1.0  0.9055840878546683  0.888538872373332  0.8533513919796972  1.0000
  C   C310      1.0  0.8696449846513921  0.8940606899308976  0.8511703169601843  1.0000
  C   C311      1.0  0.847268447516336  0.8659725652751252  0.8472980083869566  1.0000
  C   C312      1.0  0.8602577019077763  0.8321826367869364  0.8475150306631788  1.0000
  H   H205      1.0  0.946449430358458  0.8503203739717317  0.8548236618206526  1.0000
  H   H206      1.0  0.92321153952404  0.910279986491529  0.8554640144026133  1.0000
  H   H207      1.0  0.8198259365616236  0.870369930082575  0.8441580081361518  1.0000
  H   H208      1.0  0.8424897286722295  0.8105713908790023  0.8454094256670698  1.0000
  C   C313      1.0  0.007880088052301781  0.66020030679228  0.8939664536616598  1.0000
  C   C314      1.0  0.9721107312337417  0.6615280290725662  0.9015350104436828  1.0000
  C   C315      1.0  0.9485374747514818  0.6434495868059071  0.8794762695091655  1.0000
  C   C316      1.0  0.9607276255927136  0.6244346184819929  0.8495775595220961  1.0000
  C   C317      1.0  0.996563914892037  0.622517079423581  0.842706634328322  1.0000
  C   C318      1.0  0.020086701094850667  0.6405784571445216  0.8646391999665438  1.0000
  H   H209      1.0  0.9626449256217792  0.6762357864334061  0.9245901451813943  1.0000
  H   H210      1.0  0.9209618009426376  0.6444355113381807  0.8854691427956448  1.0000
  H   H211      1.0  0.006247289073299189  0.6077340076620052  0.8200124648348972  1.0000
  H   H212      1.0  0.04758282865396857  0.6402866880840841  0.8580404338050389  1.0000
  C   C319      1.0  0.040596024214934134  0.8715466247891228  0.8422234704630194  1.0000
  C   C320      1.0  0.04430552239910468  0.9071634193616448  0.8368780091353655  1.0000
  C   C321      1.0  0.02225284383993431  0.9247365063320728  0.8125783013850312  1.0000
  C   C322      1.0  0.9964357701236048  0.906743355959907  0.7934838093933668  1.0000
  C   C323      1.0  0.9930118388248775  0.8710577304688134  0.7985951087676454  1.0000
  C   C324      1.0  0.014995896781601292  0.8535343733239797  0.8229572308604763  1.0000
  H   H213      1.0  0.06325624198392332  0.9213895771653793  0.85251566121398  1.0000
  H   H214      1.0  0.02486378937049083  0.9523159240868531  0.8093278475911444  1.0000
  H   H215      1.0  0.9730774293470849  0.856927381202598  0.7842960949357447  1.0000
  H   H216      1.0  0.011980272041463902  0.8260602576973467  0.8267564278360906  1.0000
  C   C325      1.0  0.9442095523336856  0.7260194585817894  0.09813691091355117  1.0000
  C   C326      1.0  0.9407842175809197  0.760061693836349  0.11084154553142295  1.0000
  C   C327      1.0  0.9484730765580758  0.7879483135440917  0.08753563313957359  1.0000
  C   C328      1.0  0.9602516392804193  0.7816751748702108  0.051943028922547985  1.0000
  C   C329      1.0  0.964742546555288  0.747643269087186  0.03993463506446915  1.0000
  C   C330      1.0  0.9560868581581448  0.7198719216964589  0.06270323416409727  1.0000
  H   H217      1.0  0.9320301571032749  0.7647871840727659  0.13845443939995486  1.0000
  H   H218      1.0  0.9457661523448634  0.8142721924037483  0.09710179239967709  1.0000
  H   H219      1.0  0.9753458698692355  0.7425221603719049  0.013288818953761439  1.0000
  H   H220      1.0  0.9593680001384112  0.6935791794058596  0.0530917031221594  1.0000
  C   C331      1.0  0.6990277380074442  0.6808813487063551  0.5301786178127914  1.0000
  C   C332      1.0  0.6995022896354908  0.6690786832661545  0.5661961542176174  1.0000
  C   C333      1.0  0.7305678503964965  0.6695180158010837  0.5861333173892298  1.0000
  C   C334      1.0  0.7615837808745561  0.6807290461519914  0.5698753657681741  1.0000
  C   C335      1.0  0.761280771767776  0.6919911854343984  0.5335707733940848  1.0000
  C   C336      1.0  0.7299019074061653  0.692504248334083  0.5138676914474041  1.0000
  H   H221      1.0  0.6758948867194559  0.6594785630785476  0.5787546390306121  1.0000
  H   H222      1.0  0.7304113000773829  0.6606947078059706  0.6139488835683711  1.0000
  H   H223      1.0  0.7850970414753221  0.7010087091989073  0.5209037210347154  1.0000
  H   H224      1.0  0.7296627895710848  0.7022672647965097  0.48623096801217536  1.0000
  C   C337      1.0  0.7966118525723728  0.7205225233879026  0.350413149449764  1.0000
  C   C338      1.0  0.8276687725154809  0.734081050450285  0.3364547346377566  1.0000
  C   C339      1.0  0.8493091562060598  0.713543665102528  0.3144484316580312  1.0000
  C   C340      1.0  0.8400800347613503  0.679337739679376  0.3067100882879246  1.0000
  C   C341      1.0  0.8086877347025928  0.6660329940602685  0.3200523065573615  1.0000
  C   C342      1.0  0.786871796325378  0.6866234734411906  0.3418414028842098  1.0000
  H   H225      1.0  0.8350607411144326  0.7604192641998467  0.3427441916472855  1.0000
  H   H226      1.0  0.8732389024754857  0.7241933163048563  0.30384962966669193  1.0000
  H   H227      1.0  0.8012110516094503  0.6399616674406601  0.3133886862072765  1.0000
  H   H228      1.0  0.7626933725842356  0.676225809226669  0.3522261672310449  1.0000
  C   C343      1.0  0.08828299911289617  0.764183168568489  0.3391292520330366  1.0000
  C   C344      1.0  0.06648645882925153  0.7725281447566871  0.3098686385299156  1.0000
  C   C345      1.0  0.05066560412860488  0.7461192035853084  0.2896503905858702  1.0000
  C   C346      1.0  0.05747709654242894  0.7113864193358769  0.2980979825997469  1.0000
  C   C347      1.0  0.07962948431775407  0.7030536853197763  0.3270421596722099  1.0000
  C   C348      1.0  0.09483694652452757  0.7294440710560633  0.34765551184559856  1.0000
  H   H229      1.0  0.061955472185812877  0.7993147680134465  0.3026892791884042  1.0000
  H   H230      1.0  0.033714189866607125  0.7526446347229686  0.2671225398606177  1.0000
  H   H231      1.0  0.08433965183378889  0.6762301245741271  0.33409233880355826  1.0000
  H   H232      1.0  0.1112145893991412  0.7228146663402449  0.37046851897570826  1.0000
  C   C349      1.0  0.04292381096608722  0.9689443878909013  0.5793877378841099  1.0000
  C   C350      1.0  0.045871832881174024  0.9624521452367585  0.6167981861691257  1.0000
  C   C351      1.0  0.043423952206309346  0.9897885186973406  0.6417895650529211  1.0000
  C   C352      1.0  0.038399354482227865  0.023709131978462583  0.6294132697517911  1.0000
  C   C353      1.0  0.03535871883876629  0.030184777341085267  0.5919509949570722  1.0000
  C   C354      1.0  0.037623431425696685  0.0028315114361257  0.5669377216556808  1.0000
  H   H233      1.0  0.04983779612923156  0.9362552625285095  0.626501079950787  1.0000
  H   H234      1.0  0.04576572277026281  0.9845283423329664  0.6705723284051917  1.0000
  H   H235      1.0  0.030370339856805817  0.05617252023488195  0.5823068670935352  1.0000
  H   H236      1.0  0.034966831556957345  0.007933482508248213  0.538079559761251  1.0000
  C   C355      1.0  0.06993439862124551  0.09416365360511936  0.432403473632409  1.0000
  C   C356      1.0  0.06832900071644965  0.6342558080944325  0.4166690486571687  1.0000
  C   C357      1.0  0.10191869071719584  0.6485392470493602  0.4157870399218111  1.0000
  C   C358      1.0  0.6277333614770438  0.5892052743979018  0.35326635941696577  1.0000
  C   C359      1.0  0.6451671823859052  0.07010687144137107  0.41215885319938556  1.0000
  C   C360      1.0  0.10093268362347652  0.07545770825760179  0.42808817512597086  1.0000
  H   H237      1.0  0.0457145540575139  0.651087886413286  0.4157864127807846  1.0000
  H   H238      1.0  0.10494856936512242  0.676187829118935  0.41388953708172466  1.0000
  H   H239      1.0  0.6683499377829327  0.05427837956003323  0.4146024291238304  1.0000
  H   H240      1.0  0.10040493213326496  0.04755883050541976  0.42679580976253995  1.0000
  C   C361      1.0  0.7866443530748016  0.9726920901131092  0.09447866449125766  1.0000
  C   C362      1.0  0.782696078784468  0.982852611074434  0.05808958050953664  1.0000
  C   C363      1.0  0.7778198584030064  0.9580023955439327  0.030866469421843012  1.0000
  C   C364      1.0  0.7776666557790394  0.922840080669573  0.03977979275954491  1.0000
  C   C365      1.0  0.78180691630745  0.9125385560060976  0.07623807351989219  1.0000
  C   C366      1.0  0.7860330274826016  0.93751247727307  0.10370527415161622  1.0000
  H   H241      1.0  0.7829209796710632  0.010059540465623185  0.05097894550915507  1.0000
  H   H242      1.0  0.7740110696525108  0.9662047235405978  0.003062906445518987  1.0000
  H   H243      1.0  0.7811229608128408  0.8853368454036354  0.08321699530386216  1.0000
  H   H244      1.0  0.7887208947716844  0.9296941761515597  0.13190789162231564  1.0000
  C   C367      1.0  0.8227923176665558  0.855976217431123  0.26148195102537203  1.0000
  C   C368      1.0  0.850916868383976  0.8784627784642525  0.26593078354377114  1.0000
  C   C369      1.0  0.8849914058910853  0.8653837224213409  0.26736935842793486  1.0000
  C   C370      1.0  0.8909668114561531  0.8297323246240514  0.26455090990256136  1.0000
  C   C371      1.0  0.8626777098080949  0.8070541120181005  0.26271341899056533  1.0000
  C   C372      1.0  0.8285645940480227  0.8201793151034832  0.26105494980991645  1.0000
  H   H245      1.0  0.8465468092523547  0.9060115274351115  0.2675535537177415  1.0000
  H   H246      1.0  0.9067349046918545  0.8830602437384393  0.2693340559146951  1.0000
  H   H247      1.0  0.8670088097888919  0.7794657775600143  0.26180694410757976  1.0000
  H   H248      1.0  0.8068250404247636  0.8026146639999793  0.2581906986126426  1.0000
  C   C373      1.0  0.6390409621611317  0.9415881280782563  0.3457424755727144  1.0000
  C   C374      1.0  0.6328306612359437  0.9768061109928715  0.3520621097790151  1.0000
  C   C375      1.0  0.6500129744045935  0.0018711658210976978  0.33094994896165053  1.0000
  C   C376      1.0  0.673638930826104  0.991604920911084  0.30383792381908614  1.0000
  C   C377      1.0  0.6795284276067015  0.9563991023576958  0.29735567563929355  1.0000
  C   C378      1.0  0.6618634659431013  0.9314557462409446  0.3179696273267073  1.0000
  H   H249      1.0  0.6151822517640361  0.9847255187829463  0.3734901112041107  1.0000
  H   H250      1.0  0.645531194280509  0.02911873860825165  0.33610598999094493  1.0000
  H   H251      1.0  0.6974246865389513  0.9483521529545307  0.27616776809288734  1.0000
  H   H252      1.0  0.6657153030481461  0.9043304643482393  0.3122455154852205  1.0000
  C   C379      1.0  0.8857311677809007  0.9960691477321726  0.31939057820168637  1.0000
  C   C380      1.0  0.9156027905171861  0.0080690508737149  0.33705278331172844  1.0000
  C   C381      1.0  0.9324354086971395  0.9873650596508233  0.3631068909015215  1.0000
  C   C382      1.0  0.9197023777824567  0.9543365957778448  0.3710825958443345  1.0000
  C   C383      1.0  0.890167402321269  0.9420296804187019  0.35291833850289434  1.0000
  C   C384      1.0  0.8731514905932468  0.9629176417625211  0.3271004117509091  1.0000
  H   H253      1.0  0.925864873154233  0.033214551586620455  0.3302758467658769  1.0000
  H   H254      1.0  0.9551247567403904  0.9969735128684358  0.37712553990346454  1.0000
  H   H255      1.0  0.8803777295308983  0.9163811833448978  0.35887405559662433  1.0000
  H   H256      1.0  0.8503211866062523  0.9533311195442755  0.31332433488372025  1.0000
  N   N1        1.0  0.11926193763717019  0.04852050279303488  0.9436024922237164  1.0000
  C   C385      1.0  0.10018161092925991  0.030233365458462558  0.9728976555374134  1.0000
  C   C386      1.0  0.15060827681927594  0.06515051831653418  0.9589920172678635  1.0000
  C   C387      1.0  0.09645786168357362  0.0752168907523767  0.9270695474768614  1.0000
  C   C388      1.0  0.1298891480463389  0.023368324717645494  0.9153358426591864  1.0000
  H   H257      1.0  0.0763108683981153  0.017491501425900946  0.9621664598988307  1.0000
  H   H258      1.0  0.09194468221467988  0.048341212957222934  0.9949071193479677  1.0000
  H   H259      1.0  0.11670762954317834  0.009729965746448244  0.9856594818932015  1.0000
  H   H260      1.0  0.16581922469139165  0.07884080396660331  0.9374538255456656  1.0000
  H   H261      1.0  0.14369937148732415  0.08436042978092906  0.9804105590018818  1.0000
  H   H262      1.0  0.16856527466574225  0.04567113496061892  0.9714216183628454  1.0000
  H   H263      1.0  0.11061759695126387  0.09027840477081761  0.9057872930328804  1.0000
  H   H264      1.0  0.08673856810603842  0.09396974163908611  0.9477687833896012  1.0000
  H   H265      1.0  0.07337975424187615  0.06340617912441515  0.9135447623247509  1.0000
  H   H266      1.0  0.14795638807739858  0.0033986031289101604  0.9265472980867623  1.0000
  H   H267      1.0  0.14364975912431452  0.036476649853521836  0.8923748633458051  1.0000
  H   H268      1.0  0.10696350729819183  0.00974997127397903  0.9037003096704442  1.0000
  N   N2        1.0  0.14904798612393577  0.655503308267588  0.5388664897720525  1.0000
  C   C389      1.0  0.16386348522144956  0.6427097361150012  0.5736024615560414  1.0000
  C   C390      1.0  0.12851041987703127  0.6278065346131112  0.5213339000380048  1.0000
  C   C391      1.0  0.17768348745752616  0.6660153335761151  0.5142692553613109  1.0000
  C   C392      1.0  0.12620964650950128  0.6856473570870901  0.5461569077812495  1.0000
  H   H269      1.0  0.18128561748087235  0.6199921884286189  0.5691012643691147  1.0000
  H   H270      1.0  0.1430107184413958  0.6347082385301517  0.5930183938235688  1.0000
  H   H271      1.0  0.17964775745701678  0.6630943602000153  0.5873148573361353  1.0000
  H   H272      1.0  0.11661572945566778  0.6369279677260157  0.4953072984670432  1.0000
  H   H273      1.0  0.1450736145419811  0.6049559098176436  0.5145303585873778  1.0000
  H   H274      1.0  0.10692047298003038  0.6187488506398539  0.5392824840617249  1.0000
  H   H275      1.0  0.19507339681620595  0.6438216904329  0.5073388832694398  1.0000
  H   H276      1.0  0.19405709717204855  0.6865341054607385  0.526728356116223  1.0000
  H   H277      1.0  0.16738465094132837  0.6763780029210448  0.48813913760422584  1.0000
  H   H278      1.0  0.1150837921547323  0.6963993192641965  0.5204672998665705  1.0000
  H   H279      1.0  0.1408239063138954  0.7069578409056723  0.5595601747662812  1.0000
  H   H280      1.0  0.10409802103268984  0.6786372660034921  0.5644075911892794  1.0000
  N   N3        1.0  0.9792385160175984  0.5980255374336746  0.32028417743669657  1.0000
  C   C393      1.0  0.9950257330581881  0.6255030472877625  0.34284541205941776  1.0000
  C   C394      1.0  0.9982332627790282  0.5952386762997495  0.2852942796413104  1.0000
  C   C395      1.0  0.9422885419239034  0.6067266836755124  0.3132331422871879  1.0000
  C   C396      1.0  0.9815106172326971  0.5645798432747009  0.33975757807549045  1.0000
  H   H281      1.0  0.9820057865518003  0.6274905846414871  0.3699519114717446  1.0000
  H   H282      1.0  0.9931022205341129  0.6512869977010509  0.329383082246131  1.0000
  H   H283      1.0  0.023163440130727242  0.6203003029180952  0.34800444488390164  1.0000
  H   H284      1.0  0.996238447674841  0.6195893973071082  0.2693116393062584  1.0000
  H   H285      1.0  0.026501161760740466  0.5900999496982368  0.2897304932385409  1.0000
  H   H286      1.0  0.9877058783823494  0.5740409887567248  0.2680734629213184  1.0000
  H   H287      1.0  0.9296910672332831  0.5873900027843457  0.29510166450642117  1.0000
  H   H288      1.0  0.9396793633478263  0.6324688144341042  0.2998338858123307  1.0000
  H   H289      1.0  0.9269062822276025  0.6079470417525017  0.338998445558651  1.0000
  H   H290      1.0  0.9704672995080506  0.5430911246295327  0.3233219193565746  1.0000
  H   H291      1.0  0.9672282800997708  0.565448133294244  0.366238105907439  1.0000
  H   H292      1.0  0.009086936746177221  0.5577563051947406  0.3460593022650183  1.0000
  N   N4        1.0  0.17874242094341086  0.3477335781862354  0.2878436012123977  1.0000
  C   C397      1.0  0.18204257050903927  0.3838654270710817  0.27492812565356023  1.0000
  C   C398      1.0  0.14658718375404275  0.3323476523163833  0.27289500901163133  1.0000
  C   C399      1.0  0.17704395926901415  0.34716352814000595  0.3281367839929268  1.0000
  C   C400      1.0  0.20931705985369595  0.3274884242918434  0.27542676478922795  1.0000
  H   H293      1.0  0.20601797883103803  0.3962447944321377  0.2859052087224779  1.0000
  H   H294      1.0  0.1592722778410506  0.39994897303850757  0.28331114446343203  1.0000
  H   H295      1.0  0.18412225430979365  0.3852018988389225  0.2446291358031877  1.0000
  H   H296      1.0  0.1433170722650737  0.3050941093371664  0.2823061679119613  1.0000
  H   H297      1.0  0.12303951513391613  0.3470388357392523  0.2818523215811003  1.0000
  H   H298      1.0  0.1470365510228833  0.3322833168129837  0.2425273044876649  1.0000
  H   H299      1.0  0.1542173011988152  0.3621231813727507  0.3385709300036503  1.0000
  H   H300      1.0  0.20101638855636214  0.3583529261172257  0.340421278397135  1.0000
  H   H301      1.0  0.1746734345007752  0.3202070775063558  0.3386459635182488  1.0000
  H   H302      1.0  0.2340068985813415  0.33835537772284846  0.2864507550440244  1.0000
  H   H303      1.0  0.2117987692057945  0.32776180945829814  0.2451464172280166  1.0000
  H   H304      1.0  0.20779772053094894  0.3000235071409089  0.284509978434017  1.0000
  N   N5        1.0  0.35204807589105397  0.33304679153400796  0.3460354494955819  1.0000
  C   C401      1.0  0.34377142402666844  0.29946981683706936  0.36340888612822303  1.0000
  C   C402      1.0  0.32305661867339364  0.3435263792707532  0.3219059044395301  1.0000
  C   C403      1.0  0.38429163041928915  0.3293145244813511  0.324238619056812  1.0000
  C   C404      1.0  0.3570036249604295  0.3597069865306701  0.37439549212950196  1.0000
  H   H305      1.0  0.36522824816066074  0.29058476317369847  0.3815667038352734  1.0000
  H   H306      1.0  0.3395818639791725  0.2788940201307361  0.3425980551020873  1.0000
  H   H307      1.0  0.31947207953903556  0.30110316580872126  0.3800075820714352  1.0000
  H   H308      1.0  0.32728336933544483  0.36950860662452223  0.30969358270738967  1.0000
  H   H309      1.0  0.32049165431252774  0.32530931020448434  0.298834478499483  1.0000
  H   H310      1.0  0.29774815902486784  0.34430361131667914  0.33675232139056177  1.0000
  H   H311      1.0  0.3901364600234092  0.35328961008398363  0.3085483569525936  1.0000
  H   H312      1.0  0.3819418512727391  0.3080012746252993  0.3040098417273523  1.0000
  H   H313      1.0  0.4072598512772313  0.3236029713003886  0.3417231289151291  1.0000
  H   H314      1.0  0.37930936921281366  0.3532046890085022  0.3925623244610172  1.0000
  H   H315      1.0  0.33324844259690284  0.3627281971242832  0.3915871250275956  1.0000
  H   H316      1.0  0.36271998713633474  0.3854299521804905  0.3620240318980345  1.0000
  N   N6        1.0  0.5810637183353208  0.5787646841160975  0.4807230187221158  1.0000
  C   C405      1.0  0.5947899256462991  0.6115340095534083  0.4957050748133135  1.0000
  C   C406      1.0  0.5766857506251414  0.553201654524938  0.5104853797235188  1.0000
  C   C407      1.0  0.605793320197008  0.565053793257466  0.4532886307607464  1.0000
  C   C408      1.0  0.5469427858319734  0.5852428043670164  0.46325441124360417  1.0000
  H   H317      1.0  0.6207913185299488  0.6077752403373909  0.5086822321039431  1.0000
  H   H318      1.0  0.5770193187888899  0.6226451149361091  0.5166997336738771  1.0000
  H   H319      1.0  0.598246749720984  0.6314696074965912  0.4739635501932173  1.0000
  H   H320      1.0  0.5667205028903739  0.528044839128412  0.4999758186453497  1.0000
  H   H321      1.0  0.6018007246023064  0.547915975373709  0.5246509597838054  1.0000
  H   H322      1.0  0.5576900887283814  0.562450058308987  0.5313991708276153  1.0000
  H   H323      1.0  0.6317083677088627  0.5593192557158781  0.4655405903685962  1.0000
  H   H324      1.0  0.6101029889214502  0.584041611591754  0.43082908508691253  1.0000
  H   H325      1.0  0.595924133516875  0.5407863097154617  0.4406638326450272  1.0000
  H   H326      1.0  0.5356917269407646  0.5609071412776457  0.4520974676316405  1.0000
  H   H327      1.0  0.5493028104436868  0.6038031150971908  0.44008656916709005  1.0000
  H   H328      1.0  0.5276923166210032  0.5960569194315894  0.4829689386562546  1.0000
  N   N7        1.0  0.2711240706262763  0.28359734916018325  0.625708625627212  1.0000
  C   C409      1.0  0.2795048098878439  0.3092854154378015  0.6542226006993156  1.0000
  C   C410      1.0  0.2506383976540194  0.30041176701856176  0.5964643512086553  1.0000
  C   C411      1.0  0.25061164664871527  0.255153124328881  0.6419935409996153  1.0000
  C   C412      1.0  0.30377899720222695  0.26940524296038787  0.6101788489904879  1.0000
  H   H329      1.0  0.25545065485017104  0.3194677637300931  0.6676031244139244  1.0000
  H   H330      1.0  0.2941472783428777  0.3316749252354099  0.642869734384786  1.0000
  H   H331      1.0  0.29573387982448957  0.29760444442226014  0.676262829200724  1.0000
  H   H332      1.0  0.22553210362021098  0.31096107950390695  0.6070232386866392  1.0000
  H   H333      1.0  0.26512174742834155  0.32220418278580315  0.5836750598038656  1.0000
  H   H334      1.0  0.24419656664037867  0.28177630255131236  0.5743360013869874  1.0000
  H   H335      1.0  0.2433475141516199  0.23539776373975654  0.6212633817658787  1.0000
  H   H336      1.0  0.2260712603953816  0.264938051783485  0.6546692768588667  1.0000
  H   H337      1.0  0.2655504739404822  0.24180043944434468  0.6638991014228518  1.0000
  H   H338      1.0  0.29831065992454403  0.24986151219406513  0.5886229939739256  1.0000
  H   H339      1.0  0.3198355084275206  0.25642555512964854  0.6315323628064948  1.0000
  H   H340      1.0  0.31997210790507874  0.2901522890164854  0.5976569081536435  1.0000
  N   N8        1.0  0.34969994836322876  0.09837889014851342  0.17761357110056053  1.0000
  C   C413      1.0  0.31298294753685385  0.10966124671257571  0.18122314268510156  1.0000
  C   C414      1.0  0.3645893734790216  0.09241344641062721  0.21426215970631554  1.0000
  C   C415      1.0  0.36977300717176304  0.12558063813436604  0.1585899362862423  1.0000
  C   C416      1.0  0.3514386088543222  0.06586896882877702  0.15645018579058112  1.0000
  H   H341      1.0  0.2971671202096908  0.0899874517797763  0.1958466225504095  1.0000
  H   H342      1.0  0.30062783954153144  0.11368480049245488  0.1541016206173172  1.0000
  H   H343      1.0  0.310791041563501  0.13426215235871486  0.19690141276577097  1.0000
  H   H344      1.0  0.3612054994645153  0.11539155081287777  0.2321641734340921  1.0000
  H   H345      1.0  0.3516362650275443  0.07050699651397263  0.22835519076234648  1.0000
  H   H346      1.0  0.3928791204085311  0.08606857427874792  0.21298567502196608  1.0000
  H   H347      1.0  0.39783625601626166  0.11844581495008288  0.1560408562579512  1.0000
  H   H348      1.0  0.36847413050383954  0.15062579549618027  0.17349351574190983  1.0000
  H   H349      1.0  0.35973356342218177  0.1303437349845491  0.13056461542848988  1.0000
  H   H350      1.0  0.33908960215015466  0.06887884458998128  0.1291600210911232  1.0000
  H   H351      1.0  0.33738201520112415  0.04455516905949164  0.17066911494803494  1.0000
  H   H352      1.0  0.37885847656483335  0.05719112349257638  0.15238058033748095  1.0000
  N   N9        1.0  0.09802082159523295  0.5697124444713213  0.9034325870745901  1.0000
  C   C417      1.0  0.11461934691804478  0.5410786274739346  0.9239373675637962  1.0000
  C   C418      1.0  0.12349506553359277  0.5846261416642733  0.8775560083192343  1.0000
  C   C419      1.0  0.0863743558739336  0.5968252658691737  0.9291899352410435  1.0000
  C   C420      1.0  0.0677109567930596  0.5563511414701795  0.883023181230993  1.0000
  H   H353      1.0  0.09636085606400391  0.5294916257986558  0.9441384631182209  1.0000
  H   H354      1.0  0.13812542205239817  0.5500868492577696  0.9389741103079352  1.0000
  H   H355      1.0  0.1236015780433098  0.5201013311305416  0.9053314126351617  1.0000
  H   H356      1.0  0.13258824796169752  0.5650011495736562  0.8574209926985941  1.0000
  H   H357      1.0  0.11202244895989362  0.6065260746856804  0.8617665961332467  1.0000
  H   H358      1.0  0.14704309294430049  0.5943370565384981  0.891914741962167  1.0000
  H   H359      1.0  0.10853473640397822  0.6071774341579164  0.9453511148753272  1.0000
  H   H360      1.0  0.06654312951097575  0.5868587688342886  0.948732384446362  1.0000
  H   H361      1.0  0.07431664247728453  0.6190975217783506  0.9146117368776883  1.0000
  H   H362      1.0  0.07541646223218891  0.5349571098149924  0.8643773257819468  1.0000
  H   H363      1.0  0.055768420293752285  0.5768063684724138  0.8656278182516569  1.0000
  H   H364      1.0  0.04706908483099581  0.5464679013460314  0.9016545938091399  1.0000
  N   N10       1.0  0.8653375885758448  0.6956478337020381  0.8220331015809262  1.0000
  C   C421      1.0  0.8456663553811715  0.7275171668245376  0.8310967844582444  1.0000
  C   C422      1.0  0.9030940320308953  0.7017781113716303  0.8264594156075065  1.0000
  C   C423      1.0  0.8583212319983117  0.6860359551157256  0.7838687340991838  1.0000
  C   C424      1.0  0.8542349353073736  0.6671282217090911  0.8463108576910248  1.0000
  H   H365      1.0  0.8170620567413928  0.7238755142306678  0.8278116781328181  1.0000
  H   H366      1.0  0.8532826625414035  0.7494498976885063  0.8129825892290462  1.0000
  H   H367      1.0  0.8506854148060355  0.7358466531270094  0.8596546405666441  1.0000
  H   H368      1.0  0.9097651166352622  0.7080240984134729  0.8552450840395969  1.0000
  H   H369      1.0  0.9186879636451881  0.6787283265827837  0.8183239261375852  1.0000
  H   H370      1.0  0.9120769122622107  0.7238036150138032  0.8092875426844883  1.0000
  H   H371      1.0  0.8723493006145241  0.6617592227184159  0.7761874584264427  1.0000
  H   H372      1.0  0.8665094789784874  0.7069275562563125  0.7647704943905407  1.0000
  H   H373      1.0  0.8300483595888404  0.6813623199625388  0.7796523689515237  1.0000
  H   H374      1.0  0.8685620975799369  0.6427205569433653  0.8398968868304618  1.0000
  H   H375      1.0  0.8259450185908789  0.6615133181178829  0.8431174885339445  1.0000
  H   H376      1.0  0.8591813855193867  0.6734144753165763  0.8754435671539378  1.0000
  N   N11       1.0  0.3378451268852969  0.1856840448024908  0.8003341127999785  1.0000
  C   C425      1.0  0.315648675403431  0.2062646408895568  0.8252884750017047  1.0000
  C   C426      1.0  0.3723085106861496  0.2023548132772394  0.7968372170349204  1.0000
  C   C427      1.0  0.32122645684393386  0.18395312267454714  0.7640742940556858  1.0000
  C   C428      1.0  0.34215118344844514  0.15022760284752767  0.8150522729862726  1.0000
  H   H377      1.0  0.2895573509278205  0.19426976707276547  0.8289688437987671  1.0000
  H   H378      1.0  0.3115713908808844  0.2331055633499367  0.81479980075864  1.0000
  H   H379      1.0  0.32780165989232496  0.20865614450073897  0.8527435155024612  1.0000
  H   H380      1.0  0.3896904600468836  0.187826569913973  0.7778782587794675  1.0000
  H   H381      1.0  0.36983791018894785  0.22944701510267682  0.7866346715429938  1.0000
  H   H382      1.0  0.3857129621512744  0.20380808353489704  0.8237025791923243  1.0000
  H   H383      1.0  0.33750313027198126  0.1690050857464202  0.7444084187720111  1.0000
  H   H384      1.0  0.3165776708255173  0.21028790906880984  0.7525595556360019  1.0000
  H   H385      1.0  0.2956706167578561  0.1706354251386624  0.7656846716982609  1.0000
  H   H386      1.0  0.3588658452296196  0.13395324639479353  0.7969256293534979  1.0000
  H   H387      1.0  0.31658090156434887  0.1368238314743325  0.817651339543987  1.0000
  H   H388      1.0  0.35441727330224626  0.15053018928569398  0.8425399819292545  1.0000
  N   N12       1.0  0.34814103456806894  0.8679108632432753  0.3762809094748333  1.0000
  C   C429      1.0  0.3754655624792872  0.8574367461367931  0.35003327517034827  1.0000
  C   C430      1.0  0.35572162551341885  0.9030795222442761  0.3899905072898762  1.0000
  C   C431      1.0  0.34754818140561033  0.8431180863413072  0.4070335844466346  1.0000
  C   C432      1.0  0.31389898038502034  0.8680464071981197  0.35785250545531516  1.0000
  H   H389      1.0  0.40200500580589377  0.8594129537264789  0.36211071849868487  1.0000
  H   H390      1.0  0.3747733202360588  0.8741305760412265  0.32543033287676953  1.0000
  H   H391      1.0  0.37186833364642885  0.8303754784519751  0.34050266438753135  1.0000
  H   H392      1.0  0.3353270195270334  0.912184790099486  0.40937464033198395  1.0000
  H   H393      1.0  0.3812629739245391  0.9039513688172621  0.4043874457889457  1.0000
  H   H394      1.0  0.35710922376132326  0.9222508960556994  0.3672507201530381  1.0000
  H   H395      1.0  0.3272328585881709  0.8501702570242288  0.4274498551331741  1.0000
  H   H396      1.0  0.3731526480752109  0.8422453444102729  0.421287438173652  1.0000
  H   H397      1.0  0.34159466502770125  0.8164043114478163  0.3974728055353281  1.0000
  H   H398      1.0  0.2923110853706724  0.8737034605823009  0.3772625084514819  1.0000
  H   H399      1.0  0.3083964909383384  0.8425826061144575  0.34496096583585495  1.0000
  H   H400      1.0  0.31291126948113995  0.8879845649410473  0.3358946212569328  1.0000
  N   N13       1.0  0.8887564249649369  0.8568880975217926  0.732609459995824  1.0000
  C   C433      1.0  0.8921248260163424  0.8250426025588793  0.7548071097221677  1.0000
  C   C434      1.0  0.8584533962425384  0.8536838611052676  0.7079906626686641  1.0000
  C   C435      1.0  0.9207855281536437  0.8618820881300309  0.7107280450226909  1.0000
  C   C436      1.0  0.8836919143446441  0.886982586309692  0.7569258762186274  1.0000
  H   H401      1.0  0.9146036205173858  0.8265877246527961  0.7739230530885965  1.0000
  H   H402      1.0  0.8958632643814309  0.8017553700243121  0.7374218153668439  1.0000
  H   H403      1.0  0.8683306019036839  0.8204873038052829  0.7715443777048241  1.0000
  H   H404      1.0  0.8551036764189379  0.8772504002012818  0.6908230511726026  1.0000
  H   H405      1.0  0.8612578641459754  0.8309840035241547  0.6895277291856734  1.0000
  H   H406      1.0  0.8338327045025682  0.849823393874464  0.7236002390941807  1.0000
  H   H407      1.0  0.9193760618262233  0.8860252677205542  0.6941182370025204  1.0000
  H   H408      1.0  0.9255064809389955  0.8397940806664966  0.6919142443242657  1.0000
  H   H409      1.0  0.9441305724057528  0.8644471095432179  0.7284703723686352  1.0000
  H   H410      1.0  0.8826659071194537  0.9117272108680039  0.7413640562576405  1.0000
  H   H411      1.0  0.9055636972902267  0.8893622931880242  0.7766823414483213  1.0000
  H   H412      1.0  0.8591597685073034  0.8848384163248294  0.7729793571036961  1.0000
  N   N14       1.0  0.8242716687076702  0.3839219126771796  0.9963182191156352  1.0000
  C   C437      1.0  0.8533216354237594  0.3679202997218943  0.016835020646180476  1.0000
  C   C438      1.0  0.8345378377589932  0.4188651015541833  0.9838843768727287  1.0000
  C   C439      1.0  0.7932655816160649  0.3867204276421824  0.020212276224445658  1.0000
  C   C440      1.0  0.8159814481153467  0.36221394886060426  0.964327826168778  1.0000
  H   H413      1.0  0.8466033097022316  0.3413262742057094  0.026279067321148153  1.0000
  H   H414      1.0  0.8601745234187489  0.38337193440413037  0.041373078355371185  1.0000
  H   H415      1.0  0.8772185696287174  0.36553643981112566  0.9996833168653043  1.0000
  H   H416      1.0  0.8125692700360442  0.43229488896983365  0.9698578717763147  1.0000
  H   H417      1.0  0.8425381571135037  0.4355052177632793  0.007146458186656046  1.0000
  H   H418      1.0  0.8566458089019056  0.4177134368053562  0.9641426595964115  1.0000
  H   H419      1.0  0.7706792584890869  0.39826454539430534  0.005409788168022622  1.0000
  H   H420      1.0  0.7984565156959516  0.4035292181950134  0.04428872961112451  1.0000
  H   H421      1.0  0.7850653774901504  0.3609216096218584  0.030631977337420402  1.0000
  H   H422      1.0  0.7945783169639766  0.3738024357427414  0.9478253006191836  1.0000
  H   H423      1.0  0.8078513186443659  0.3357022081074821  0.9725898951471184  1.0000
  H   H424      1.0  0.8389690659413142  0.3592852784507734  0.9459327060147636  1.0000
  N   N15       1.0  0.7694844858683889  0.06337611994187942  0.35743216626110785  1.0000
  C   C441      1.0  0.7732915512124975  0.07114277353095488  0.3181458021494261  1.0000
  C   C442      1.0  0.7961014543292113  0.037550956840744165  0.368300894936906  1.0000
  C   C443      1.0  0.734270443443348  0.049327711613054825  0.3643915262798689  1.0000
  C   C444      1.0  0.7742262155387647  0.09546119827356936  0.37874171961553155  1.0000
  H   H425      1.0  0.7691551592384903  0.0475066722756492  0.3015225347884502  1.0000
  H   H426      1.0  0.799738296588812  0.08130417001403134  0.31158117324191725  1.0000
  H   H427      1.0  0.7536475388361662  0.09057923178973137  0.3089144512168969  1.0000
  H   H428      1.0  0.8229787195529057  0.04692982567273174  0.3624010126682407  1.0000
  H   H429      1.0  0.7943910411958535  0.03141655538179511  0.3979145751884423  1.0000
  H   H430      1.0  0.7929493718198835  0.012892457545835345  0.35301927604027744  1.0000
  H   H431      1.0  0.7135406698218628  0.0676137369201184  0.35503595845869873  1.0000
  H   H432      1.0  0.7298229862695653  0.04443341495957065  0.39392780859436577  1.0000
  H   H433      1.0  0.7301345822946718  0.024497423268403207  0.3496917272444134  1.0000
  H   H434      1.0  0.801224205006148  0.10555063307662849  0.37608171073533253  1.0000
  H   H435      1.0  0.7689094766460332  0.09118371190245766  0.40827337021778604  1.0000
  H   H436      1.0  0.7559700173111766  0.11620268398359301  0.3694926865800245  1.0000
  N   N16       1.0  0.854656238816894  0.041483427148180985  0.8402104314136106  1.0000
  C   C445      1.0  0.8400721551555211  0.06460654412952493  0.8119200394017286  1.0000
  C   C446      1.0  0.8732191083932874  0.062292958137701415  0.867787628103489  1.0000
  C   C447      1.0  0.8793010212151743  0.016789076740940212  0.8231439119669064  1.0000
  C   C448      1.0  0.8259516658023363  0.02233335737310127  0.8580039772573553  1.0000
  H   H437      1.0  0.8223662450115415  0.08435086192857622  0.8240092181299367  1.0000
  H   H438      1.0  0.8250261170181293  0.04990718633979219  0.7912005894265759  1.0000
  H   H439      1.0  0.8607981542509667  0.07881785655256301  0.7970134225443544  1.0000
  H   H440      1.0  0.8554574685246948  0.08130257188462897  0.8811201314369704  1.0000
  H   H441      1.0  0.8846251586462077  0.0455662204430618  0.8894871154499892  1.0000
  H   H442      1.0  0.8950183185874513  0.07709520626980604  0.8552671398218072  1.0000
  H   H443      1.0  0.9007829075985364  0.030499494967524576  0.8086939126102197  1.0000
  H   H444      1.0  0.8659967947986766  0.9999489968204226  0.8029179303782082  1.0000
  H   H445      1.0  0.8914321888463232  0.9993670154617059  0.8438050063042792  1.0000
  H   H446      1.0  0.8359081194528621  0.005297450094891465  0.8801948331764644  1.0000
  H   H447      1.0  0.8120805242959849  0.005436777078109412  0.8382240416248071  1.0000
  H   H448      1.0  0.8062271422431695  0.040199061549440085  0.8701022056405908  1.0000
  N   N17       1.0  0.9791239889000121  0.31083445273375027  0.12567313693836593  1.0000
  C   C449      1.0  0.9860388255728109  0.3419017540066589  0.10320957247345779  1.0000
  C   C450      1.0  0.9419559912307264  0.3105326309497826  0.13647516977095467  1.0000
  C   C451      1.0  0.0011531423307347133  0.31153877290842696  0.15869039504308982  1.0000
  C   C452      1.0  0.987309023984233  0.27941625504243356  0.10425214885321123  1.0000
  H   H449      1.0  0.01379124426107503  0.3429470079345481  0.09433997586666999  1.0000
  H   H450      1.0  0.9801077595138699  0.3660737689783209  0.11855829839026419  1.0000
  H   H451      1.0  0.9696475884416498  0.34205554016849604  0.078087049377862  1.0000
  H   H452      1.0  0.9352650391747855  0.2866271494410043  0.15201981737490475  1.0000
  H   H453      1.0  0.9352582649243915  0.3329083938331  0.15431442187440397  1.0000
  H   H454      1.0  0.9246156055606154  0.3118355228038562  0.11222083709769948  1.0000
  H   H455      1.0  0.029361576002285616  0.31255836293690076  0.15168646033446734  1.0000
  H   H456      1.0  0.9969295958713147  0.2880749177338109  0.17576544240730507  1.0000
  H   H457      1.0  0.9949072153873506  0.33431732741047554  0.17615258576805726  1.0000
  H   H458      1.0  0.9797739363075468  0.2553669209172199  0.11914327646805623  1.0000
  H   H459      1.0  0.015594797714795883  0.27753331929236935  0.09777678601025512  1.0000
  H   H460      1.0  0.9731603628261323  0.2794368854705  0.07782937588576597  1.0000
  N   N18       1.0  0.11841132269153531  0.09138901545695965  0.5486253762153871  1.0000
  C   C453      1.0  0.15532844372654608  0.0835091343857024  0.5568670127663805  1.0000
  C   C454      1.0  0.11635307652020499  0.12353851722080969  0.5267529619571448  1.0000
  C   C455      1.0  0.09900306910435752  0.09612329261896778  0.5831621208693016  1.0000
  C   C456      1.0  0.10309046475883621  0.06247251881084793  0.5277441051102272  1.0000
  H   H461      1.0  0.1708490999734653  0.07982121892036487  0.5314274681820662  1.0000
  H   H462      1.0  0.15785436611767145  0.05950571892307611  0.5735327285648415  1.0000
  H   H463      1.0  0.1676919786036768  0.1049039389194354  0.5725136186707238  1.0000
  H   H464      1.0  0.08924495347232098  0.12884975598122936  0.517401060058995  1.0000
  H   H465      1.0  0.12519982233377291  0.1463777935549558  0.5426259816527698  1.0000
  H   H466      1.0  0.13311746813099723  0.12189169917665557  0.5020001632540412  1.0000
  H   H467      1.0  0.07128430172697109  0.10313311470966692  0.5780273170168962  1.0000
  H   H468      1.0  0.11069830015044868  0.11700535898716409  0.6000402373028846  1.0000
  H   H469      1.0  0.09918299204745384  0.07204355954775088  0.5999900496344559  1.0000
  H   H470      1.0  0.11744494320309506  0.058009011505189  0.5017361046039551  1.0000
  H   H471      1.0  0.07534625706286469  0.06773341701112479  0.5204954516128556  1.0000
  H   H472      1.0  0.10372508976398231  0.03783983619757003  0.5435856601706734  1.0000
  N   N19       1.0  0.7125192658639921  0.31131000472524567  0.2847357210240324  1.0000
  C   C457      1.0  0.6872723595176834  0.28531603320776966  0.271667738586026  1.0000
  C   C458      1.0  0.705810854308162  0.3185389778228373  0.32365625825994465  1.0000
  C   C459      1.0  0.708660763491834  0.3436028074711016  0.2633881430186093  1.0000
  C   C460      1.0  0.7483729553691  0.29768316863861854  0.2804763240210987  1.0000
  H   H473      1.0  0.6896444354525476  0.2606243187620974  0.28724367074302276  1.0000
  H   H474      1.0  0.6913780245688039  0.2793401867543812  0.24229679668882237  1.0000
  H   H475      1.0  0.6598884895846144  0.29449153169218517  0.2752721968220658  1.0000
  H   H476      1.0  0.7242080561696315  0.3382096858332495  0.3345248657265938  1.0000
  H   H477      1.0  0.6786826136619003  0.3280532088103104  0.32828199435135447  1.0000
  H   H478      1.0  0.7094866401994451  0.29472380895141576  0.3402221204085347  1.0000
  H   H479      1.0  0.7261786156844169  0.3642600278212642  0.27386590958121826  1.0000
  H   H480      1.0  0.6814539374184596  0.3536310310273315  0.2644692880811158  1.0000
  H   H481      1.0  0.7156862976061248  0.3396002205661784  0.23420946189335778  1.0000
  H   H482      1.0  0.7679831061500236  0.316009062009687  0.29172164618048246  1.0000
  H   H483      1.0  0.7550530963476185  0.2933621529760929  0.2512947477179011  1.0000
  H   H484      1.0  0.7519173593448549  0.2726788748249216  0.29521118992383494  1.0000
  N   N20       1.0  0.13018571987729166  0.8726571252618742  0.4980215261845378  1.0000
  C   C461      1.0  0.11383440081596308  0.8604582433102813  0.5322669170342003  1.0000
  C   C462      1.0  0.16835638084551002  0.8677009776207008  0.5000055901657102  1.0000
  C   C463      1.0  0.12239651790118436  0.9098068020237837  0.49287213283403675  1.0000
  C   C464      1.0  0.11608237671275728  0.8528225483453343  0.4669245083035148  1.0000
  H   H485      1.0  0.08497996521308404  0.864088373577296  0.531682361241884  1.0000
  H   H486      1.0  0.12361852060554934  0.8750623593726008  0.5562874768253437  1.0000
  H   H487      1.0  0.11934135134919831  0.8324749042976568  0.5371631216227136  1.0000
  H   H488      1.0  0.18139935530562007  0.8766392942830535  0.47452475449941356  1.0000
  H   H489      1.0  0.17975689259689526  0.8822443804111259  0.5232555593690866  1.0000
  H   H490      1.0  0.17525653955642143  0.8399682804546326  0.5039692813247195  1.0000
  H   H491      1.0  0.13424891038056874  0.9199949480464412  0.46725505531981715  1.0000
  H   H492      1.0  0.13208092058040666  0.9256114166079145  0.5160599855684187  1.0000
  H   H493      1.0  0.09386037693383398  0.9143071879525179  0.491185584451019  1.0000
  H   H494      1.0  0.12793196792537637  0.8612162139223873  0.44057090383240843  1.0000
  H   H495      1.0  0.08740231181850701  0.856534085098414  0.46430756527843836  1.0000
  H   H496      1.0  0.12108801285907288  0.8245706301884038  0.47015583343508266  1.0000
  N   N21       1.0  0.832594878221136  0.22452799032739032  0.7824373325014279  1.0000
  C   C465      1.0  0.8078555382747874  0.2450219063092265  0.8047156629906813  1.0000
  C   C466      1.0  0.8268251963628706  0.18719543413635156  0.7890060465482625  1.0000
  C   C467      1.0  0.8687064741433376  0.23355528821749638  0.7925982304260616  1.0000
  C   C468      1.0  0.8269720048592641  0.2324239943733501  0.7434161059009197  1.0000
  H   H497      1.0  0.8114893146487581  0.27336387931700884  0.8004142253958777  1.0000
  H   H498      1.0  0.8112733409783424  0.23985822352293926  0.8343722474970057  1.0000
  H   H499      1.0  0.7803684794508952  0.23924420367947152  0.7976090443543556  1.0000
  H   H500      1.0  0.8307490554512286  0.1803510237896886  0.8182187451309291  1.0000
  H   H501      1.0  0.7998381419479069  0.1794987847083231  0.7815599826684696  1.0000
  H   H502      1.0  0.8449538948639342  0.17087967446610508  0.7725417661260138  1.0000
  H   H503      1.0  0.8881411519835866  0.21876898461269273  0.7762428032096729  1.0000
  H   H504      1.0  0.8737784676094821  0.22796302345015831  0.8219515388198309  1.0000
  H   H505      1.0  0.8737445936738638  0.26168850790605686  0.7884453945975501  1.0000
  H   H506      1.0  0.8455073958282591  0.21794983218171504  0.7256792603540286  1.0000
  H   H507      1.0  0.8300184828086329  0.26060777067882096  0.7377415270661865  1.0000
  H   H508      1.0  0.8001276626277073  0.22541583222944406  0.7347846697296665  1.0000
  N   N22       1.0  0.38097510427401615  0.6160132509557597  0.6640736537260326  1.0000
  C   C469      1.0  0.416106826487704  0.6290041371072819  0.673136369973338  1.0000
  C   C470      1.0  0.38414421417288946  0.5873939656299125  0.6374912363925272  1.0000
  C   C471      1.0  0.35993466974898825  0.6443109800246831  0.6479724255890509  1.0000
  C   C472      1.0  0.3637825753637369  0.6033365058578651  0.6976829626658354  1.0000
  H   H509      1.0  0.4148587389368155  0.6502065573937141  0.6936540166748312  1.0000
  H   H510      1.0  0.42985189983929717  0.6389882735222951  0.6485204100129769  1.0000
  H   H511      1.0  0.43265929889190585  0.6081370521768146  0.685017373889741  1.0000
  H   H512      1.0  0.35815972675325847  0.5769681960553326  0.6298655051128905  1.0000
  H   H513      1.0  0.3973851275479  0.5959569244809674  0.6119444570536294  1.0000
  H   H514      1.0  0.39995545141527666  0.5655705395893773  0.6485607773283374  1.0000
  H   H515      1.0  0.35738113070542765  0.6666530756733793  0.6669178407294184  1.0000
  H   H516      1.0  0.3330015559357211  0.6356114347814431  0.6414140599407369  1.0000
  H   H517      1.0  0.37169660108534724  0.6542190464663182  0.6222285228395313  1.0000
  H   H518      1.0  0.3616016641638093  0.6241089639275996  0.7186231890685223  1.0000
  H   H519      1.0  0.37880492011879513  0.5817706200002873  0.7103609419253968  1.0000
  H   H520      1.0  0.33691100759173054  0.5938924647698002  0.6921990378264258  1.0000
  N   N23       1.0  0.7669880000798616  0.5555733885545129  0.3346891434707868  1.0000
  C   C473      1.0  0.7627858337309534  0.5858658727422482  0.35895410466200817  1.0000
  C   C474      1.0  0.7333461167524713  0.5372430731000981  0.3312665273916848  1.0000
  C   C475      1.0  0.7935137440612485  0.5318240046763238  0.350087189911416  1.0000
  C   C476      1.0  0.7784033914878593  0.5674038145188333  0.2982465297080079  1.0000
  H   H521      1.0  0.7880507939416599  0.5992634515520872  0.3635241575836819  1.0000
  H   H522      1.0  0.7522020863645703  0.5782789588511643  0.3860927191154507  1.0000
  H   H523      1.0  0.7444293022841405  0.6052576697521577  0.3471646275686239  1.0000
  H   H524      1.0  0.7359836764965837  0.5132017375811754  0.3147960015333627  1.0000
  H   H525      1.0  0.7225183157900965  0.5299054641512131  0.35835694209403335  1.0000
  H   H526      1.0  0.7134439453488199  0.5535845126931656  0.3173293112142092  1.0000
  H   H527      1.0  0.7857559428945188  0.522306945500808  0.37758248532111766  1.0000
  H   H528      1.0  0.8193259722551302  0.5447425673396942  0.35262669985997663  1.0000
  H   H529      1.0  0.7976699831801407  0.5088418872692564  0.3322982583523759  1.0000
  H   H530      1.0  0.8044286732949506  0.5800682712435945  0.2994148279689355  1.0000
  H   H531      1.0  0.759557303220642  0.5862083627143484  0.2862519461355428  1.0000
  H   H532      1.0  0.7807014338528573  0.5452810956228713  0.27908794138981585  1.0000
  N   N24       1.0  0.5938858567902167  0.3798693238244415  0.9570675214655328  1.0000
  C   C477      1.0  0.582608478233669  0.3980644914726332  0.9905563658665635  1.0000
  C   C478      1.0  0.632181645696539  0.3753965391578462  0.957617682447103  1.0000
  C   C479      1.0  0.5837432858401561  0.40047088420399707  0.9247277008115925  1.0000
  C   C480      1.0  0.5770154802850324  0.34557101452695405  0.9552718435196927  1.0000
  H   H533      1.0  0.5539082551969878  0.40254675811880425  0.9907209442015805  1.0000
  H   H534      1.0  0.5956481847314179  0.42372936621078355  0.9931148558473354  1.0000
  H   H535      1.0  0.5892690717698105  0.3829019745663042  0.015462189519504177  1.0000
  H   H536      1.0  0.6456948343074367  0.40082891726877573  0.9583402031812307  1.0000
  H   H537      1.0  0.6408461984427883  0.3605209364411161  0.9820032182386089  1.0000
  H   H538      1.0  0.6416272341609668  0.3613632345383447  0.9329779835003034  1.0000
  H   H539      1.0  0.5548696112680769  0.40225159788649006  0.9220029523353728  1.0000
  H   H540      1.0  0.5938801287658335  0.3885673302295357  0.8990848589672141  1.0000
  H   H541      1.0  0.5939042151080658  0.427310733428186  0.9263522412852869  1.0000
  H   H542      1.0  0.584089866233788  0.3290679322168718  0.9790658184716012  1.0000
  H   H543      1.0  0.5847187025389685  0.3314682462970287  0.929983782621716  1.0000
  H   H544      1.0  0.5480536075265936  0.348034963661347  0.9548370515907211  1.0000
  N   N25       1.0  0.16689580406725912  0.6273806686993988  0.30407252364482334  1.0000
  C   C481      1.0  0.18602055084831662  0.6051832799765313  0.3302602676792719  1.0000
  C   C482      1.0  0.18545067537039472  0.6273850790724734  0.26867884269761  1.0000
  C   C483      1.0  0.16501812642558097  0.663071164863742  0.3183724966723581  1.0000
  C   C484      1.0  0.13113891622285886  0.6140287524736546  0.29903547159073174  1.0000
  H   H545      1.0  0.1909843139081307  0.5789439601960263  0.3191390725497666  1.0000
  H   H546      1.0  0.1710776219374753  0.6014884479409193  0.3558973659510814  1.0000
  H   H547      1.0  0.2117459039477662  0.6163893059475285  0.3376218610894795  1.0000
  H   H548      1.0  0.1718433087102536  0.6439397773601605  0.2482616057033046  1.0000
  H   H549      1.0  0.21262011041032783  0.6370251076149545  0.2716425821654357  1.0000
  H   H550      1.0  0.18712372495506674  0.6007436718156747  0.25709186304349946  1.0000
  H   H551      1.0  0.1915233991030209  0.6738953885214244  0.322816623343523  1.0000
  H   H552      1.0  0.1510745210088508  0.6638577390966466  0.34502353626940013  1.0000
  H   H553      1.0  0.15084008828862439  0.6806563179383007  0.29935414692372114  1.0000
  H   H554      1.0  0.11559129855838049  0.6309704183576851  0.28050044362501214  1.0000
  H   H555      1.0  0.11689506748181203  0.6124253514783042  0.3255094443094212  1.0000
  H   H556      1.0  0.13154390207393252  0.587638148485924  0.2869350882369804  1.0000
  N   N26       1.0  0.5167543857828574  0.07403219102178227  0.3125168652205925  1.0000
  C   C485      1.0  0.4981098677861994  0.09121968553006421  0.3428877858344903  1.0000
  C   C486      1.0  0.4963528645798909  0.04390272634758907  0.30007988375085687  1.0000
  C   C487      1.0  0.5514593966680011  0.062273286619419554  0.32509891579816635  1.0000
  C   C488      1.0  0.5210376853613201  0.09876048341789809  0.2820251462745476  1.0000
  H   H557      1.0  0.49372253397856153  0.0731284640739307  0.3661256080194451  1.0000
  H   H558      1.0  0.47218077534141895  0.1012775605770266  0.33406168191354496  1.0000
  H   H559      1.0  0.5130287526460702  0.11371212678201877  0.3534811959583957  1.0000
  H   H560      1.0  0.4936073416502006  0.024323193595280346  0.32222331473804666  1.0000
  H   H561      1.0  0.46953313694329146  0.05171371732762809  0.2915493614251491  1.0000
  H   H562      1.0  0.5090191948246882  0.03084405681475633  0.276483751873102  1.0000
  H   H563      1.0  0.5491990245890513  0.043700620893678994  0.34824016232828126  1.0000
  H   H564      1.0  0.5674838142388194  0.08439996328681953  0.334777659570464  1.0000
  H   H565      1.0  0.566297840088272  0.04911283874006456  0.30295442210729123  1.0000
  H   H566      1.0  0.534709802005194  0.08671802795790606  0.2584403645577427  1.0000
  H   H567      1.0  0.5364423466785307  0.12176071309353825  0.2905467389037496  1.0000
  H   H568      1.0  0.4953372271309939  0.10863065543841133  0.2722634759526016  1.0000
  N   N27       1.0  0.6280724887896173  0.45300267622186935  0.771744948126592  1.0000
  C   C489      1.0  0.6592649370902184  0.4711729157603327  0.7577868122954418  1.0000
  C   C490      1.0  0.605768375177178  0.44247717063119235  0.7408690529716186  1.0000
  C   C491      1.0  0.6083020739981673  0.47640269384227746  0.7961473568274902  1.0000
  C   C492      1.0  0.6390474261072644  0.4219001638009066  0.7923148741169863  1.0000
  H   H569      1.0  0.6747583849070729  0.45448698534144244  0.7390541191727448  1.0000
  H   H570      1.0  0.6766938593803892  0.47932678103309206  0.780424519467957  1.0000
  H   H571      1.0  0.6519923515275377  0.49509254732694474  0.7425404572236977  1.0000
  H   H572      1.0  0.5820477231558134  0.4286285785739939  0.7504487031440643  1.0000
  H   H573      1.0  0.5968340853285621  0.4652910503477005  0.724784325562501  1.0000
  H   H574      1.0  0.6200124102074593  0.4250389826238868  0.7217977713173059  1.0000
  H   H575      1.0  0.6001903610638236  0.5004805048951798  0.7816879795544112  1.0000
  H   H576      1.0  0.6243347804885373  0.48454802285125514  0.8198893326802705  1.0000
  H   H577      1.0  0.5843451577556192  0.46385499873910635  0.8068563983831876  1.0000
  H   H578      1.0  0.6162936015223678  0.4073134784166662  0.8032035805899337  1.0000
  H   H579      1.0  0.6555790131248879  0.4289264100154707  0.8159961560885395  1.0000
  H   H580      1.0  0.6545541607310905  0.40377330375264864  0.7750689419002301  1.0000
  N   N28       1.0  0.3455139283621058  0.679453031391542  0.8598817262678687  1.0000
  C   C493      1.0  0.32026427114401634  0.652535342586182  0.8709448177075196  1.0000
  C   C494      1.0  0.33074324039902514  0.7141143919094853  0.8676225690906597  1.0000
  C   C495      1.0  0.35261889303907  0.6764106932801123  0.8204134768914693  1.0000
  C   C496      1.0  0.37839681579106915  0.6747523960516801  0.8803207453277243  1.0000
  H   H581      1.0  0.33032932419554994  0.6260577513807583  0.8648959916493558  1.0000
  H   H582      1.0  0.29519223497091285  0.6553128739882902  0.8558973000515878  1.0000
  H   H583      1.0  0.31436625917886796  0.6538960296790474  0.9006438548958607  1.0000
  H   H584      1.0  0.3055839019137072  0.7183823744444863  0.8531550085920828  1.0000
  H   H585      1.0  0.32606103076449705  0.7179050430168996  0.8973288558648278  1.0000
  H   H586      1.0  0.34867296642821644  0.7350460583510577  0.8586044604175511  1.0000
  H   H587      1.0  0.3283925142186606  0.6801899930952422  0.804437418935577  1.0000
  H   H588      1.0  0.36301844911343245  0.6503076860828865  0.813281496400585  1.0000
  H   H589      1.0  0.3717230114482402  0.6961313820533259  0.8109911720183645  1.0000
  H   H590      1.0  0.38980619124487503  0.6485634362396694  0.8758296880314976  1.0000
  H   H591      1.0  0.37432752107667316  0.678154294818553  0.9101989768682834  1.0000
  H   H592      1.0  0.3983193796968823  0.6940940126393516  0.8718341100258151  1.0000
  N   N29       1.0  0.8646161465179053  0.5952905466985646  0.17593253285457305  1.0000
  C   C497      1.0  0.8580779059428228  0.5658045651345757  0.15118326735535406  1.0000
  C   C498      1.0  0.8722545850934189  0.6267089589046255  0.15425182803905646  1.0000
  C   C499      1.0  0.8947111406284916  0.5871677390510901  0.19962907115201445  1.0000
  C   C500      1.0  0.8334722574974104  0.6015327446055105  0.1988663725157116  1.0000
  H   H593      1.0  0.852152583215554  0.5416778725137885  0.16669289650007565  1.0000
  H   H594      1.0  0.8810988340663524  0.5603197574019975  0.13355263843640452  1.0000
  H   H595      1.0  0.8354725287660962  0.5708645139439454  0.13286461755943707  1.0000
  H   H596      1.0  0.8779511834324932  0.6493044377365088  0.17212787301643778  1.0000
  H   H597      1.0  0.8954924888379007  0.6230026685888321  0.1363513896129808  1.0000
  H   H598      1.0  0.8499830664515354  0.6340010824700957  0.13638716046199725  1.0000
  H   H599      1.0  0.9193695051950059  0.5853916390438749  0.18367078498633893  1.0000
  H   H600      1.0  0.8911045503893681  0.5620954839301208  0.2141218135499223  1.0000
  H   H601      1.0  0.8980948189601311  0.6073016639733444  0.22098673448472284  1.0000
  H   H602      1.0  0.8367068817716724  0.6249596062926677  0.21617835188425333  1.0000
  H   H603      1.0  0.8287086221713966  0.5794509350910547  0.21773342086632722  1.0000
  H   H604      1.0  0.8096906691781618  0.6054330181736061  0.18200612957331563  1.0000
  N   N30       1.0  0.9536949429865414  0.33006977892931766  0.34504842687955795  1.0000
  C   C501      1.0  0.9883870576615873  0.340605232229497  0.3585515096932215  1.0000
  C   C502      1.0  0.9280471238245246  0.33179031146308846  0.37517555592475216  1.0000
  C   C503      1.0  0.9554735295287651  0.29428971158609  0.33092124595222955  1.0000
  C   C504      1.0  0.9427113945657796  0.3536285215525268  0.3153804017648795  1.0000
  H   H605      1.0  0.9875748284318699  0.3672274762249258  0.37027712768716226  1.0000
  H   H606      1.0  0.008100381820767888  0.34070886744386314  0.3362430701615437  1.0000
  H   H607      1.0  0.9981399233089271  0.32274513549569545  0.3801605951770064  1.0000
  H   H608      1.0  0.9015821220569591  0.323910620047689  0.36593817976274323  1.0000
  H   H609      1.0  0.9356530106319689  0.31460345265137757  0.3982283744897042  1.0000
  H   H610      1.0  0.9256753151287934  0.3585871545626626  0.38611684015328396  1.0000
  H   H611      1.0  0.9744104514394831  0.2921426530613962  0.30797141328316574  1.0000
  H   H612      1.0  0.9297090655704774  0.2857985431050184  0.3202142189730384  1.0000
  H   H613      1.0  0.963781548476194  0.27563604608390063  0.35241112757715687  1.0000
  H   H614      1.0  0.9602863469370689  0.35157592119360986  0.29129729877748206  1.0000
  H   H615      1.0  0.9430484338551104  0.3810756266297921  0.3242088671748862  1.0000
  H   H616      1.0  0.9157438621871516  0.34781686907918885  0.30616021052747816  1.0000
  N   N31       1.0  0.12215304310952543  0.45273833143392467  0.8070053096485783  1.0000
  C   C505      1.0  0.1426952476297135  0.4286373930976303  0.7841215124340835  1.0000
  C   C506      1.0  0.0895652105450837  0.4622223248710306  0.7878833837001903  1.0000
  C   C507      1.0  0.14282841216255507  0.48427017875498424  0.8139535031025897  1.0000
  C   C508      1.0  0.11356501951715856  0.43583680882362  0.8420921060934093  1.0000
  H   H617      1.0  0.1282574932327482  0.40416754209360706  0.7790348168775734  1.0000
  H   H618      1.0  0.16766593022364243  0.42128894984193804  0.7975810662088915  1.0000
  H   H619      1.0  0.1492486972516249  0.44042523865872985  0.7572560534440355  1.0000
  H   H620      1.0  0.07353194752517501  0.48049287153791503  0.8043735490523746  1.0000
  H   H621      1.0  0.09501986433645326  0.4754462643006539  0.7614438996778047  1.0000
  H   H622      1.0  0.073251304542169  0.4390822667731196  0.7821103423998578  1.0000
  H   H623      1.0  0.12867010015345998  0.5026317714384038  0.8320238670103102  1.0000
  H   H624      1.0  0.14890040058030116  0.49841257057682953  0.788212471240705  1.0000
  H   H625      1.0  0.16796636658440442  0.47814624135251854  0.8275296495842154  1.0000
  H   H626      1.0  0.09757433686610839  0.45304497912732566  0.8598148188980109  1.0000
  H   H627      1.0  0.13758545767829747  0.42889360192640175  0.8574656257513975  1.0000
  H   H628      1.0  0.09870263048286598  0.41144346742109594  0.8378924251145881  1.0000
  N   N32       1.0  0.40201247661301515  0.8245415036718827  0.8003755707166504  1.0000
  C   C509      1.0  0.3924301279923512  0.7934198370267768  0.821587403653835  1.0000
  C   C510      1.0  0.3739105008327744  0.8332790592620504  0.7743535308104623  1.0000
  C   C511      1.0  0.43455565307767796  0.8175872372859269  0.7799931336159873  1.0000
  C   C512      1.0  0.40722969264235925  0.8538999547185241  0.8255376113757689  1.0000
  H   H629      1.0  0.4132263574911748  0.7861558309281794  0.8413116458387765  1.0000
  H   H630      1.0  0.38770711804185953  0.7708590230732878  0.8034781149808038  1.0000
  H   H631      1.0  0.36821517525713987  0.797778576808238  0.8376641737941629  1.0000
  H   H632      1.0  0.36841816970648333  0.8113374917174389  0.7555923411033305  1.0000
  H   H633      1.0  0.3490993102583937  0.8394320247841576  0.7887566487729323  1.0000
  H   H634      1.0  0.3808722009990571  0.8561941961263734  0.7573724171319971  1.0000
  H   H635      1.0  0.43129235485017964  0.7958690352798173  0.7604268674492091  1.0000
  H   H636      1.0  0.456249847265366  0.8105168535276177  0.7987514843336998  1.0000
  H   H637      1.0  0.44289844842430415  0.8407289960522176  0.7640688318784337  1.0000
  H   H638      1.0  0.41297357941665774  0.8781885375226363  0.8103855227011703  1.0000
  H   H639      1.0  0.42939012951942196  0.8489884189567984  0.8444795325705662  1.0000
  H   H640      1.0  0.3835397723025861  0.8588326822816396  0.8423710040320019  1.0000
  N   N33       1.0  0.15135235803182012  0.9438951305817698  0.8209144319513126  1.0000
  C   C513      1.0  0.17704847511940947  0.919454216273156  0.8052300116678758  1.0000
  C   C514      1.0  0.1399265901696498  0.9312032218042436  0.8570684954297226  1.0000
  C   C515      1.0  0.12079694851383538  0.9464912842765297  0.7965002299221955  1.0000
  C   C516      1.0  0.16764533309048701  0.9783329518301274  0.824941554273293  1.0000
  H   H641      1.0  0.16620631462302948  0.8927771578401976  0.8034404491316394  1.0000
  H   H642      1.0  0.20090053643036643  0.9177214917337413  0.8224304931116398  1.0000
  H   H643      1.0  0.1853051756456272  0.9274875722682565  0.7773804715398775  1.0000
  H   H644      1.0  0.12014320247769006  0.9487233241128599  0.8694876683918001  1.0000
  H   H645      1.0  0.12817514940063357  0.9048623527184367  0.85526842254489  1.0000
  H   H646      1.0  0.16220749333655182  0.9291583754006879  0.8762787930044057  1.0000
  H   H647      1.0  0.10053974659360354  0.9641739123511206  0.807884085205745  1.0000
  H   H648      1.0  0.10824907827775143  0.9207945819159985  0.7925715353548015  1.0000
  H   H649      1.0  0.12811631594019768  0.9567116547535703  0.7691544216365519  1.0000
  H   H650      1.0  0.14898275476069123  0.997465456849326  0.8364745268533154  1.0000
  H   H651      1.0  0.1766967445196821  0.9887433470282353  0.7982353502272572  1.0000
  H   H652      1.0  0.1905760513901822  0.977352437571161  0.8435521420945356  1.0000
  N   N34       1.0  0.7198889420693286  0.835466082007666  0.34309369522339894  1.0000
  C   C517      1.0  0.7368816897788637  0.8103891167929551  0.3182593279904705  1.0000
  C   C518      1.0  0.7299715485008034  0.8277716159417489  0.38114505601715304  1.0000
  C   C519      1.0  0.6815719116538359  0.8328266292162837  0.33953610776162346  1.0000
  C   C520      1.0  0.731209122693304  0.8708887960015279  0.33353403567841294  1.0000
  H   H653      1.0  0.7309399924045287  0.8162925261532132  0.2891821710957673  1.0000
  H   H654      1.0  0.7282682095190797  0.7834268864982086  0.32404169466560806  1.0000
  H   H655      1.0  0.7657947348703588  0.81080248998848  0.3212278034254318  1.0000
  H   H656      1.0  0.7588071175550631  0.8283829788823205  0.3846535948805492  1.0000
  H   H657      1.0  0.718114547144209  0.8465738735291364  0.40055788906486184  1.0000
  H   H658      1.0  0.7212815946867748  0.8014918639817105  0.3894453132199123  1.0000
  H   H659      1.0  0.6678931831040072  0.8514526985894114  0.3578809401597745  1.0000
  H   H660      1.0  0.6721334775410218  0.8064185409667671  0.3467982854800537  1.0000
  H   H661      1.0  0.6729594451066164  0.8383432890607619  0.31115046084987424  1.0000
  H   H662      1.0  0.7237892523373478  0.8777242890647328  0.3050576736468589  1.0000
  H   H663      1.0  0.7600784606918786  0.8734676496581327  0.3352773122027126  1.0000
  H   H664      1.0  0.719250051926656  0.8905428455749955  0.3519408041438187  1.0000
  N   N35       1.0  0.38664212143980936  0.4966942665281191  0.8007338213043343  1.0000
  C   C521      1.0  0.37896385885288464  0.46267464264512814  0.7841876580245138  1.0000
  C   C522      1.0  0.37090685107827975  0.524461323273132  0.7782520500849635  1.0000
  C   C523      1.0  0.4247755990191458  0.501432479528201  0.8024244402782065  1.0000
  C   C524      1.0  0.3721060165679045  0.4981610537430032  0.8380484001503297  1.0000
  H   H665      1.0  0.38932861749232456  0.46082313902877303  0.7558638659359216  1.0000
  H   H666      1.0  0.35041508776310754  0.45771080563389965  0.7831553406426489  1.0000
  H   H667      1.0  0.3910004952311969  0.44110588411407176  0.8000574365569496  1.0000
  H   H668      1.0  0.34226063806423157  0.520930956099441  0.7753589328133588  1.0000
  H   H669      1.0  0.3753320741214638  0.5505226974763751  0.7903703843566086  1.0000
  H   H670      1.0  0.38221777110921773  0.5248103453425899  0.7503582825345197  1.0000
  H   H671      1.0  0.4317631066595306  0.5274464695110336  0.813191890176488  1.0000
  H   H672      1.0  0.43656974980223306  0.4988729353929476  0.7749485428123155  1.0000
  H   H673      1.0  0.4373619730283829  0.481354330473952  0.819894744169131  1.0000
  H   H674      1.0  0.37723731341764855  0.5235673578520059  0.8511790597600608  1.0000
  H   H675      1.0  0.38348318641946394  0.4775192092622872  0.8556987231196026  1.0000
  H   H676      1.0  0.34340560135214837  0.4940561307032314  0.8379375846597973  1.0000
  N   N36       1.0  0.8820771916452925  0.8596042141586528  0.9722225577724605  1.0000
  C   C525      1.0  0.912630690959363  0.8816831285650986  0.964548362889404  1.0000
  C   C526      1.0  0.8757987539101116  0.8580741779023511  0.011990794506437474  1.0000
  C   C527      1.0  0.8885792554729945  0.8243019944473415  0.9581492276325382  1.0000
  C   C528      1.0  0.8510835607715497  0.8743881474371498  0.9540943256415002  1.0000
  H   H677      1.0  0.9180436696981794  0.8832228031007419  0.934704285025363  1.0000
  H   H678      1.0  0.9365545279083428  0.8713298740039267  0.9779534795897304  1.0000
  H   H679      1.0  0.90848176554673  0.9085744043392119  0.9745047014341374  1.0000
  H   H680      1.0  0.8986978053903004  0.8468746147563845  0.026549569896465952  1.0000
  H   H681      1.0  0.8706310225495587  0.8843352936810379  0.023306901783384237  1.0000
  H   H682      1.0  0.8526497841965068  0.8418324492725545  0.018443997395318545  1.0000
  H   H683      1.0  0.9115808143440643  0.8121290935869491  0.9715382372797084  1.0000
  H   H684      1.0  0.8938017515642239  0.8245988025102077  0.9282800996550498  1.0000
  H   H685      1.0  0.8658321583672088  0.8070776787251998  0.9629040899326804  1.0000
  H   H686      1.0  0.8449290015352108  0.9008822045372848  0.9642581148478343  1.0000
  H   H687      1.0  0.8276057390228921  0.8581726593784951  0.9591102276595761  1.0000
  H   H688      1.0  0.8549516787688588  0.8762258618242078  0.9240988679068246  1.0000
  N   N37       1.0  0.06578966484341221  0.1589651824417293  0.7022702141533643  1.0000
  C   C529      1.0  0.08682247704979608  0.12802598483931726  0.7115911082108657  1.0000
  C   C530      1.0  0.04096964418313309  0.16655242610867949  0.7321680760325321  1.0000
  C   C531      1.0  0.04630700648783436  0.15251611636270046  0.6682269914474108  1.0000
  C   C532      1.0  0.08919145946405084  0.1888602393127754  0.6971012175358199  1.0000
  H   H689      1.0  0.10726407011749309  0.12283729037261892  0.6906613390836702  1.0000
  H   H690      1.0  0.07047176405870892  0.10441247724279723  0.7131805460033194  1.0000
  H   H691      1.0  0.10002462759173024  0.13100021988858668  0.7384336463216077  1.0000
  H   H692      1.0  0.025545420777023597  0.1904079657686173  0.72657344388104  1.0000
  H   H693      1.0  0.022106193171031355  0.14508455401061982  0.7361071316790807  1.0000
  H   H694      1.0  0.05475632732202352  0.17034793770287204  0.7585715731650983  1.0000
  H   H695      1.0  0.030947870349408827  0.17563624324529714  0.6597302878361826  1.0000
  H   H696      1.0  0.027616915438478884  0.130718591289128  0.6716689139759281  1.0000
  H   H697      1.0  0.06420489797054718  0.14542506243787257  0.6454947244540024  1.0000
  H   H698      1.0  0.10885176571715238  0.18380383961249147  0.6753065386444721  1.0000
  H   H699      1.0  0.10356590487543942  0.19464225446490446  0.7226849367258882  1.0000
  H   H700      1.0  0.07445895295529037  0.2126276367127511  0.6894213194125335  1.0000
  N   N38       1.0  0.8858861119780552  0.6186635521344204  0.6231490303300651  1.0000
  C   C533      1.0  0.9009223475536531  0.6152281226448008  0.6601108734926654  1.0000
  C   C534      1.0  0.9066757447488407  0.5978823531317738  0.597077512115325  1.0000
  C   C535      1.0  0.8864715164469824  0.6554278403034951  0.6118656933774236  1.0000
  C   C536      1.0  0.8494862953912359  0.6061869026685232  0.6234959932138272  1.0000
  H   H701      1.0  0.8853758928360278  0.6297810076767241  0.6807133600480317  1.0000
  H   H702      1.0  0.9281492001086505  0.6251468483995885  0.6609866731758705  1.0000
  H   H703      1.0  0.9020634840201582  0.5876376246468351  0.6689708954791751  1.0000
  H   H704      1.0  0.9341087558896243  0.6071618705182741  0.595542661849963  1.0000
  H   H705      1.0  0.9079380512035035  0.5701320278319638  0.6053828557256732  1.0000
  H   H706      1.0  0.8956130031154343  0.5991382496831568  0.5690625754411514  1.0000
  H   H707      1.0  0.8750293236535025  0.6589871835335925  0.5841739471127242  1.0000
  H   H708      1.0  0.9135236756849131  0.6657256951966019  0.6112011398781422  1.0000
  H   H709      1.0  0.8708960079974248  0.6718844015593761  0.6308013065335386  1.0000
  H   H710      1.0  0.8371353180943294  0.6089853079506403  0.5961409523502323  1.0000
  H   H711      1.0  0.8330922793465375  0.6213253391510618  0.6429150641966273  1.0000
  H   H712      1.0  0.8480490656383967  0.5784479093944835  0.6316009289327719  1.0000
  N   N39       1.0  0.6346563821534837  0.6436070925388983  0.8274004056929839  1.0000
  C   C537      1.0  0.6121749306560875  0.6443283972904452  0.8602013122327058  1.0000
  C   C538      1.0  0.6715542785705985  0.640110796480113  0.8384617111825429  1.0000
  C   C539      1.0  0.6300841068861609  0.6760538667620378  0.8064241107071778  1.0000
  C   C540      1.0  0.6248817289999713  0.6138250827096979  0.8044099136460128  1.0000
  H   H713      1.0  0.6176900702135606  0.667299281599468  0.8775422576472263  1.0000
  H   H714      1.0  0.6158853994269434  0.6206886797066329  0.8771932740517283  1.0000
  H   H715      1.0  0.5840903309733085  0.64572800944778  0.8526917302728816  1.0000
  H   H716      1.0  0.6892021495275209  0.6400779141456249  0.8142814830334033  1.0000
  H   H717      1.0  0.6796136331075449  0.6618353538439584  0.856426056626069  1.0000
  H   H718      1.0  0.6762266213671522  0.6154050027185785  0.8534907135795278  1.0000
  H   H719      1.0  0.6030652330448576  0.678698514943018  0.7958599094620686  1.0000
  H   H720      1.0  0.6478642567788753  0.6770236868809231  0.7824166864567672  1.0000
  H   H721      1.0  0.635328629293763  0.6992704306571568  0.8234635802723739  1.0000
  H   H722      1.0  0.6403510132627311  0.6133501919270355  0.7788364224612052  1.0000
  H   H723      1.0  0.596959249352772  0.614886747761388  0.7964517069721133  1.0000
  H   H724      1.0  0.6292914040896385  0.5887787612901124  0.8187529834765473  1.0000
  N   N40       1.0  0.6362151484452037  0.7459534477586797  0.6147137040426157  1.0000
  C   C541      1.0  0.6342722529029335  0.7841580556286931  0.6129263144503893  1.0000
  C   C542      1.0  0.6113376230040153  0.7330004884429542  0.6423890813287589  1.0000
  C   C543      1.0  0.6719187700729461  0.7352988532611849  0.6249538328967339  1.0000
  C   C544      1.0  0.6274657342697744  0.7313212782164462  0.5786661145769987  1.0000
  H   H725      1.0  0.652896520324713  0.7946616803020123  0.5923663120906761  1.0000
  H   H726      1.0  0.6407208430300271  0.7960465491751905  0.6397293286305504  1.0000
  H   H727      1.0  0.6076863004154758  0.7931915341308193  0.6051478738925561  1.0000
  H   H728      1.0  0.6122894415835199  0.7042007344405045  0.6444085510039157  1.0000
  H   H729      1.0  0.6176506059658917  0.743068905357089  0.6700722787184804  1.0000
  H   H730      1.0  0.5840763675933017  0.7406952303588253  0.6358622092414536  1.0000
  H   H731      1.0  0.6795545818700078  0.7465562484962617  0.6516889220720259  1.0000
  H   H732      1.0  0.6915100177118473  0.7434283374007212  0.6041846533985156  1.0000
  H   H733      1.0  0.6740092808565972  0.7066762436571538  0.627904874537672  1.0000
  H   H734      1.0  0.6282916177450413  0.7025162419060792  0.5791018379916882  1.0000
  H   H735      1.0  0.646253686342554  0.7399079809100699  0.557264915880994  1.0000
  H   H736      1.0  0.6009367434903378  0.7392667032900008  0.5696493931700208  1.0000
  N   N41       1.0  0.3358671310252721  0.6120094444875982  0.1627319841887234  1.0000
  C   C545      1.0  0.34421870732031673  0.5941770389956321  0.19739037486370106  1.0000
  C   C546      1.0  0.36670836815423574  0.6114851913844809  0.13844954647807833  1.0000
  C   C547      1.0  0.3257519583302934  0.6482648603234581  0.1703586738476745  1.0000
  C   C548      1.0  0.3067252984837203  0.5939845060078133  0.1446368831364568  1.0000
  H   H737      1.0  0.32157898535427154  0.594224561648379  0.2164737125124419  1.0000
  H   H738      1.0  0.36610024346518033  0.6068544192946357  0.21195651177643413  1.0000
  H   H739      1.0  0.35168712986676065  0.5666169377501524  0.19281623904335904  1.0000
  H   H740      1.0  0.36137076042068017  0.6251035178730149  0.1122120898658249  1.0000
  H   H741      1.0  0.38931405358541316  0.6248066477066508  0.15103494922084845  1.0000
  H   H742      1.0  0.3749314827063538  0.5845152444822397  0.13196900559722582  1.0000
  H   H743      1.0  0.3195506584776211  0.6626135918215443  0.14478929376217978  1.0000
  H   H744      1.0  0.347157768120894  0.6625354931837946  0.18408275601242896  1.0000
  H   H745      1.0  0.3026059515698223  0.6496257741339495  0.1886870585375807  1.0000
  H   H746      1.0  0.28275203430641566  0.5940918301647305  0.16177405213040802  1.0000
  H   H747      1.0  0.3133175097326796  0.5663595579171983  0.13908162037713476  1.0000
  H   H748      1.0  0.29992701317739645  0.6061775363352956  0.11804572754714805  1.0000
  N   N42       1.0  0.5049445511212264  0.3571657149560874  0.2699466370376721  1.0000
  C   C549      1.0  0.48667122846117694  0.3392815951374085  0.30007969942841695  1.0000
  C   C550      1.0  0.5390449511732223  0.36983428854135075  0.2830032453535873  1.0000
  C   C551      1.0  0.4835720298878164  0.3868305643905369  0.25739360077656515  1.0000
  C   C552      1.0  0.5103688986940331  0.332818728253646  0.23934366070914243  1.0000
  H   H749      1.0  0.4605962725900175  0.3299673049654389  0.2913123332146754  1.0000
  H   H750      1.0  0.482547199228078  0.3568142850028875  0.3237305000971057  1.0000
  H   H751      1.0  0.5016007252190492  0.31645886161659087  0.31001553259320186  1.0000
  H   H752      1.0  0.5560598431054562  0.3483003115057832  0.2926579110286892  1.0000
  H   H753      1.0  0.5534537794386064  0.3839576520595481  0.26124789459417597  1.0000
  H   H754      1.0  0.5358621483914803  0.387900613864962  0.3063554489162936  1.0000
  H   H755      1.0  0.4796274362103831  0.40615307163308345  0.27950801662208224  1.0000
  H   H756      1.0  0.4571729424275675  0.3783544172017927  0.2485223873897482  1.0000
  H   H757      1.0  0.4959332523727052  0.4004145771057777  0.2339672276920341  1.0000
  H   H758      1.0  0.5241902585485747  0.34540118080854604  0.21617629950579376  1.0000
  H   H759      1.0  0.48511326984864034  0.32303071802021827  0.2286618281312913  1.0000
  H   H760      1.0  0.5259046899985438  0.309820827388112  0.24782876603647475  1.0000
  N   N43       1.0  0.12914363783643532  0.7523835729363175  0.8641645500601373  1.0000
  C   C553      1.0  0.11271884946417149  0.7654752372159495  0.830347558392838  1.0000
  C   C554      1.0  0.10469561122342821  0.728994672040466  0.8831499219613266  1.0000
  C   C555      1.0  0.13762356845786658  0.781823235207369  0.8882615322018954  1.0000
  C   C556      1.0  0.16135485054988555  0.7331266692622902  0.854958119326262  1.0000
  H   H761      1.0  0.13039826610846267  0.7832907524238166  0.8153096791104744  1.0000
  H   H762      1.0  0.08830625695289873  0.7801673879884765  0.8363668013712896  1.0000
  H   H763      1.0  0.10614484201832752  0.7439120828234244  0.8114277097034907  1.0000
  H   H764      1.0  0.11621041904536379  0.7181037590299056  0.908547930008928  1.0000
  H   H765      1.0  0.08045098492868054  0.7428456692382318  0.8911951726386486  1.0000
  H   H766      1.0  0.09680950525217247  0.7069288847455534  0.8654961075418502  1.0000
  H   H767      1.0  0.15051943543001461  0.773129380717527  0.9138485685449916  1.0000
  H   H768      1.0  0.11380384146152789  0.7965657358437332  0.8962013810150284  1.0000
  H   H769      1.0  0.1553459259381486  0.8004979075018577  0.8746003557182384  1.0000
  H   H770      1.0  0.15549699811447365  0.7097319675262463  0.8384150657233933  1.0000
  H   H771      1.0  0.17536940300130932  0.7244255847740512  0.8798812744818899  1.0000
  H   H772      1.0  0.17960877064570208  0.7492646202930351  0.8386288515585729  1.0000
  N   N44       1.0  0.34240897364509776  0.35002298477772403  0.978430323170713  1.0000
  C   C557      1.0  0.3103489545127664  0.3325531044927857  0.9911027057265196  1.0000
  C   C558      1.0  0.33741095634111135  0.38795282842166123  0.9806107409437991  1.0000
  C   C559      1.0  0.3496683220345986  0.3401330084832524  0.9402122618396415  1.0000
  C   C560      1.0  0.3720722827008048  0.3394959730681154  0.0017346188254121486  1.0000
  H   H773      1.0  0.3037058469126163  0.3400077527232751  0.019655971697583485  1.0000
  H   H774      1.0  0.3131636537106588  0.3038858368309607  0.9901688241643121  1.0000
  H   H775      1.0  0.28748326681589426  0.33986714967332604  0.9739880268679357  1.0000
  H   H776      1.0  0.3611760494139527  0.40210209433388616  0.9717412591737837  1.0000
  H   H777      1.0  0.3154547600617541  0.3967135038379801  0.9629543755077811  1.0000
  H   H778      1.0  0.33091357649938424  0.39628116093815113  0.00893498769001444  1.0000
  H   H779      1.0  0.3733273253549226  0.35331521143291733  0.9294747862811569  1.0000
  H   H780      1.0  0.3276147150637974  0.34731801344741725  0.9220014410555839  1.0000
  H   H781      1.0  0.3540220510725657  0.3117191957494817  0.9374111608410319  1.0000
  H   H782      1.0  0.3766179872257531  0.31098873423150797  0.0007887115176954396  1.0000
  H   H783      1.0  0.3675975995916817  0.3465766173671498  0.03080613451007963  1.0000
  H   H784      1.0  0.39681886664968663  0.3519734473274697  0.9928681386717676  1.0000
  N   N45       1.0  0.10199492327138691  0.36849088713107764  0.49290753443324936  1.0000
  C   C561      1.0  0.09746009356941832  0.34362620162017365  0.5232421978253977  1.0000
  C   C562      1.0  0.08365315878573833  0.4011304929089025  0.5017082776797918  1.0000
  C   C563      1.0  0.08733478521690885  0.3536175563628099  0.4591105549316624  1.0000
  C   C564      1.0  0.13947757738794572  0.37569920208635227  0.48758129860685784  1.0000
  H   H785      1.0  0.11008827147827455  0.31829879334735217  0.5169738630360703  1.0000
  H   H786      1.0  0.06936154872463951  0.3386300438933673  0.5287306919137916  1.0000
  H   H787      1.0  0.1093169587831024  0.35345191375528134  0.5488797977655956  1.0000
  H   H788      1.0  0.08717624232928123  0.4206975877086934  0.47966667952195496  1.0000
  H   H789      1.0  0.05517226332910453  0.3968798306404062  0.505348674979509  1.0000
  H   H790      1.0  0.09333297248760641  0.4128259231164156  0.527476740852147  1.0000
  H   H791      1.0  0.09060473585130646  0.37145344205517117  0.4354617765203969  1.0000
  H   H792      1.0  0.05894784170519096  0.3484054648799183  0.4619297572307601  1.0000
  H   H793      1.0  0.1003312747775667  0.32877891141262316  0.4517649207814983  1.0000
  H   H794      1.0  0.15091725778759632  0.3885320115254649  0.5118867740649867  1.0000
  H   H795      1.0  0.14383781690787129  0.3929772982963499  0.46358265332947945  1.0000
  H   H796      1.0  0.1545230086515419  0.35145785046620204  0.48304046672312523  1.0000
  N   N46       1.0  0.3838432468495963  0.005246638514212254  0.8677754215952015  1.0000
  C   C565      1.0  0.34773102383671134  0.9990696409002211  0.8803154821395001  1.0000
  C   C566      1.0  0.4069925014294417  0.9777167249391847  0.8820637064331119  1.0000
  C   C567      1.0  0.39582524237140376  0.039230484177170455  0.88125660916996  1.0000
  C   C568      1.0  0.3848699878134022  0.004978934457964712  0.827443806272771  1.0000
  H   H797      1.0  0.3460682148117305  0.9980956892373118  0.9106544256527265  1.0000
  H   H798      1.0  0.33769732247693096  0.9738590403345858  0.8701226968362836  1.0000
  H   H799      1.0  0.3297596382395539  0.0198469751922834  0.8707321617977641  1.0000
  H   H800      1.0  0.3998297779841227  0.9518735632601198  0.8709864105748554  1.0000
  H   H801      1.0  0.43470376513411296  0.9826389008360062  0.8748121519093517  1.0000
  H   H802      1.0  0.4053068319158698  0.9757752197231385  0.9123449565788057  1.0000
  H   H803      1.0  0.4232286451018814  0.044422751355056356  0.8727908361384141  1.0000
  H   H804      1.0  0.3947053658978116  0.040607074877991645  0.9115611829392031  1.0000
  H   H805      1.0  0.37963274030301364  0.06076932471352592  0.8700984160031944  1.0000
  H   H806      1.0  0.37548753065952434  0.9799295186498469  0.8162548530501984  1.0000
  H   H807      1.0  0.4118244039456002  0.008994394623591528  0.817049083135709  1.0000
  H   H808      1.0  0.368409154743401  0.02604516825781733  0.8156758966009888  1.0000
  N   N47       1.0  0.9585135085913604  0.11339974823347843  0.36404738223484934  1.0000
  C   C569      1.0  0.9698803673772209  0.14429738820651833  0.3435277006807968  1.0000
  C   C570      1.0  0.9598326331268081  0.12079680636050609  0.4035624804332786  1.0000
  C   C571      1.0  0.9820647228010735  0.08409221069924634  0.3555089731400628  1.0000
  C   C572      1.0  0.9223910476699523  0.10462546512759623  0.3535815246001375  1.0000
  H   H809      1.0  0.9527371607384156  0.1669441460780348  0.34923266060591507  1.0000
  H   H810      1.0  0.9694070737036019  0.1395199668404328  0.31360521725308993  1.0000
  H   H811      1.0  0.9970996479336585  0.1516728203700076  0.35063998569092114  1.0000
  H   H812      1.0  0.9530781834567598  0.09747688894448693  0.42003222616700986  1.0000
  H   H813      1.0  0.9864815931443822  0.128777790879538  0.41200395319463784  1.0000
  H   H814      1.0  0.9415162302796192  0.14198538207136027  0.4112117681539378  1.0000
  H   H815      1.0  0.9812652618478835  0.07735948697946204  0.3260066714862459  1.0000
  H   H816      1.0  0.975075763655863  0.06052916906084272  0.3714291517754102  1.0000
  H   H817      1.0  0.009644515459982461  0.09035288525836904  0.3623201621712106  1.0000
  H   H818      1.0  0.9041332009865635  0.12659008197563873  0.3587381024326405  1.0000
  H   H819      1.0  0.9126464255029382  0.08185196061459778  0.3691403584002761  1.0000
  H   H820      1.0  0.920441305806173  0.09844914157039687  0.3239562610417838  1.0000
  N   N48       1.0  0.604423532351495  0.33751415553627084  0.45655370727016387  1.0000
  C   C573      1.0  0.5749403016171254  0.35737070635150325  0.47204163468542776  1.0000
  C   C574      1.0  0.6092136159361564  0.3472236825469294  0.4178403055702517  1.0000
  C   C575      1.0  0.5970299887812414  0.3000806054953242  0.4592076031672011  1.0000
  C   C576      1.0  0.6364835498595324  0.3455023903800647  0.47717943734223106  1.0000
  H   H821      1.0  0.5707775600632601  0.3512466864169827  0.5014191903318511  1.0000
  H   H822      1.0  0.5501119544407193  0.3518061147458846  0.45757740324522145  1.0000
  H   H823      1.0  0.5794834450522299  0.38576441524805394  0.4699688191221791  1.0000
  H   H824      1.0  0.5855069152169498  0.3417207373487109  0.40137772149870565  1.0000
  H   H825      1.0  0.6150599852444285  0.3752812714661491  0.414836498472436  1.0000
  H   H826      1.0  0.631027317591602  0.3326068418433285  0.4049820508850056  1.0000
  H   H827      1.0  0.573127665516435  0.2930431749349208  0.443772563485477  1.0000
  H   H828      1.0  0.5936035800117083  0.2917538928269733  0.488104116326267  1.0000
  H   H829      1.0  0.6188886958845966  0.28451632185288733  0.4478581116344855  1.0000
  H   H830      1.0  0.6593822871519492  0.3310968791234654  0.46623000773861306  1.0000
  H   H831      1.0  0.633947326824576  0.3379231470251452  0.5064143162119145  1.0000
  H   H832      1.0  0.6426949073646738  0.37359156663914667  0.47606851254202764  1.0000
  N   N49       1.0  0.8692370434605433  0.09064059205524067  0.17472750192696476  1.0000
  C   C577      1.0  0.868633675085425  0.08260481858454118  0.21417393902305856  1.0000
  C   C578      1.0  0.8428726714156356  0.06944186336858094  0.15595100919567825  1.0000
  C   C579      1.0  0.9040951356203352  0.08257822085673738  0.15959744586681954  1.0000
  C   C580      1.0  0.8612977508189947  0.12771797069916982  0.1691063942142032  1.0000
  H   H833      1.0  0.8879048876837615  0.09825060756724152  0.22953843042108724  1.0000
  H   H834      1.0  0.8747881059885068  0.054849297085001414  0.21932155546667245  1.0000
  H   H835      1.0  0.8426302143779848  0.08802926658641308  0.22650670498946512  1.0000
  H   H836      1.0  0.8427161565523973  0.07426455052674874  0.12599857283467297  1.0000
  H   H837      1.0  0.8479672775454717  0.041316762649415084  0.16010432672924566  1.0000
  H   H838      1.0  0.8160783713283599  0.07483186625257265  0.16626994711235102  1.0000
  H   H839      1.0  0.9107929037917606  0.054711687986944264  0.1630844975907855  1.0000
  H   H840      1.0  0.9247828416459485  0.09795835050599505  0.17315103658114495  1.0000
  H   H841      1.0  0.9055410300631354  0.08882160222722213  0.12993790758768076  1.0000
  H   H842      1.0  0.8618033575308897  0.1347354040959387  0.13960776078912446  1.0000
  H   H843      1.0  0.8808647134006128  0.14425749528565873  0.18286774051173207  1.0000
  H   H844      1.0  0.8352081297523767  0.13472675561576702  0.180284845301341  1.0000
  N   N50       1.0  0.07976513136136276  0.27839176870263505  0.8754782576582745  1.0000
  C   C581      1.0  0.0678444102060991  0.27360171943761996  0.913499213588291  1.0000
  C   C582      1.0  0.04931291277551342  0.27846512200787177  0.8508539844805002  1.0000
  C   C583      1.0  0.10351610036417136  0.24975092364971732  0.865332480736559  1.0000
  C   C584      1.0  0.09823664407264077  0.31178826882155153  0.8722271271403678  1.0000
  H   H845      1.0  0.09017735371375224  0.2729120591461737  0.9328024602254662  1.0000
  H   H846      1.0  0.05305739709674806  0.24897325942389076  0.9168125350190293  1.0000
  H   H847      1.0  0.05037970945458814  0.29520649289250084  0.9220772699558297  1.0000
  H   H848      1.0  0.05741931718273352  0.28082608455691815  0.8218026176004702  1.0000
  H   H849      1.0  0.03399479806650674  0.2541090277920063  0.8536636823161712  1.0000
  H   H850      1.0  0.031561112310901196  0.30062493333937323  0.8569280485712927  1.0000
  H   H851      1.0  0.12684533779589957  0.24877044090044145  0.883298991644956  1.0000
  H   H852      1.0  0.11305592551817312  0.252598964277132  0.8367967304345726  1.0000
  H   H853      1.0  0.09024662264818328  0.224161749615164  0.867207135418956  1.0000
  H   H854      1.0  0.12216355900868003  0.31231879416943614  0.8893833324083448  1.0000
  H   H855      1.0  0.08140557151271133  0.33386489795532626  0.880926161982408  1.0000
  H   H856      1.0  0.1063755419416279  0.3169907792559689  0.8436111027088415  1.0000
  N   N51       1.0  0.5674266233157151  0.26628434356025177  0.7931460511838361  1.0000
  C   C585      1.0  0.5456125147386679  0.2970370786210409  0.7853611490937749  1.0000
  C   C586      1.0  0.577533156817982  0.2662381351868226  0.8320678352511078  1.0000
  C   C587      1.0  0.5991510473546124  0.2673930983750763  0.7702163078930839  1.0000
  C   C588      1.0  0.547493631706239  0.23453865339126012  0.7849029144874693  1.0000
  H   H857      1.0  0.5377887001719313  0.29819147750253006  0.7561746006212458  1.0000
  H   H858      1.0  0.5596330839155734  0.3214528592435865  0.7918910948216364  1.0000
  H   H859      1.0  0.5213757153822304  0.29694037426979814  0.8020430546234444  1.0000
  H   H860      1.0  0.5543741719975857  0.26461397152606575  0.850239295597488  1.0000
  H   H861      1.0  0.5946642356981855  0.24371761259593944  0.8386727527962767  1.0000
  H   H862      1.0  0.5916692102231043  0.2903418787725048  0.839491623745949  1.0000
  H   H863      1.0  0.6168538007491005  0.24528607693738497  0.776483097265511  1.0000
  H   H864      1.0  0.6141606849585834  0.2915935955970648  0.77477541521353  1.0000
  H   H865      1.0  0.5927534266826231  0.26602005719000466  0.7406606628665419  1.0000
  H   H866      1.0  0.5630813415327243  0.21081957569429716  0.7905674778530004  1.0000
  H   H867      1.0  0.5395655702005923  0.23358813806156992  0.755754571918943  1.0000
  H   H868      1.0  0.5235112646003272  0.23265886425905533  0.8018633412764816  1.0000
  N   N52       1.0  0.6269973463913526  0.12489099419311198  0.9283298234810461  1.0000
  C   C589      1.0  0.6102000257565469  0.1475040693628115  0.9557818779728521  1.0000
  C   C590      1.0  0.6491843731561028  0.09873799802955051  0.9466397317827945  1.0000
  C   C591      1.0  0.648637731813285  0.1461098957501797  0.9035351294555776  1.0000
  C   C592      1.0  0.5997431827098142  0.10721850790860646  0.907057114608188  1.0000
  H   H869      1.0  0.5927812257122519  0.16703864813520258  0.9425341779462866  1.0000
  H   H870      1.0  0.6298425370807416  0.1617178154779807  0.9721923446885679  1.0000
  H   H871      1.0  0.5936625436138552  0.13231773661065604  0.9749661415883978  1.0000
  H   H872      1.0  0.6619560593196377  0.08115690289075994  0.9264418665954712  1.0000
  H   H873      1.0  0.6702677273006017  0.11106540642188824  0.9628052796287493  1.0000
  H   H874      1.0  0.6336912546061494  0.08215141658623004  0.9654626193685794  1.0000
  H   H875      1.0  0.6617626097110917  0.12979787355740469  0.8825760086629314  1.0000
  H   H876      1.0  0.669305765398297  0.16022012331971158  0.9185844026978006  1.0000
  H   H877      1.0  0.6325521155836776  0.1656424523395674  0.8886586871150733  1.0000
  H   H878      1.0  0.6113558208435134  0.08923478256957541  0.8866829729423135  1.0000
  H   H879      1.0  0.5832670511790928  0.1263136411766399  0.8920626503267105  1.0000
  H   H880      1.0  0.5821234772793832  0.09177868610825658  0.9248530253692296  1.0000
  N   N53       1.0  0.4292228283965954  0.6136326742486847  0.33308071739430867  1.0000
  C   C593      1.0  0.4645401851342547  0.6283323156476405  0.32860331232838913  1.0000
  C   C594      1.0  0.41499180639447253  0.604476308530955  0.29693995470262013  1.0000
  C   C595      1.0  0.4060566063233842  0.6394578900942067  0.35053783354836204  1.0000
  C   C596      1.0  0.4312244844109295  0.5822642216709057  0.35615855070752445  1.0000
  H   H881      1.0  0.4826755659578962  0.609552030399567  0.3153246331842084  1.0000
  H   H882      1.0  0.4762027560307803  0.6353753658083423  0.35532276746617547  1.0000
  H   H883      1.0  0.46413391529975706  0.6520484282819148  0.3113110918141319  1.0000
  H   H884      1.0  0.38867012356208075  0.5924594980680604  0.29927259118608956  1.0000
  H   H885      1.0  0.4119658767539864  0.6278048751093933  0.27951068199432366  1.0000
  H   H886      1.0  0.4322907101156995  0.5859817636132958  0.28221812264230073  1.0000
  H   H887      1.0  0.37895303587299883  0.6294594064219156  0.35332393191690953  1.0000
  H   H888      1.0  0.4042847453609518  0.6636139118501448  0.3339747694953  1.0000
  H   H889      1.0  0.41552173249382157  0.646687255551358  0.37813444392622614  1.0000
  H   H890      1.0  0.44180522769342084  0.5881753780636507  0.3836870854137089  1.0000
  H   H891      1.0  0.4488751793452249  0.5624705078319256  0.34391854225716645  1.0000
  H   H892      1.0  0.40513915604949213  0.5701188524982966  0.35973338327955934  1.0000
  N   N54       1.0  0.6122642469299672  0.920302152416035  0.86689580508092  1.0000
  C   C597      1.0  0.6416901410318335  0.9422889137962085  0.8550461680254852  1.0000
  C   C598      1.0  0.6036924694943199  0.8954893449274424  0.8376420538623235  1.0000
  C   C599      1.0  0.5815576971851653  0.9423429967478636  0.8746587309397588  1.0000
  C   C600      1.0  0.6219876621017173  0.9009583151124487  0.9002315822638491  1.0000
  H   H893      1.0  0.6490342236215686  0.9613351505222858  0.8764557508736441  1.0000
  H   H894      1.0  0.6349954758756134  0.9573085660886682  0.8300608423750988  1.0000
  H   H895      1.0  0.6652252031887199  0.9264196181830598  0.8487440223481357  1.0000
  H   H896      1.0  0.6266029190285347  0.879023101235875  0.8304932702556787  1.0000
  H   H897      1.0  0.5825030696443348  0.8777257097615457  0.8462962975088514  1.0000
  H   H898      1.0  0.5950248937718302  0.9090163647128426  0.8123864737911125  1.0000
  H   H899      1.0  0.5595900442698621  0.9267535387811413  0.8856284711913347  1.0000
  H   H900      1.0  0.5721470412946359  0.9557591584831748  0.8496096979862692  1.0000
  H   H901      1.0  0.5877178389354052  0.9626193708225262  0.895142871776968  1.0000
  H   H902      1.0  0.6285190029486382  0.9187485611611921  0.9230125242960959  1.0000
  H   H903      1.0  0.6449526444039044  0.8838487130244912  0.8953286140178218  1.0000
  H   H904      1.0  0.6003242642510832  0.8839908258396433  0.9097231431583735  1.0000
  N   N55       1.0  0.5968385725303478  0.09720653604842422  0.5286664900675667  1.0000
  C   C601      1.0  0.6212026292358847  0.1175225871609602  0.5059099775086898  1.0000
  C   C602      1.0  0.5605929318812612  0.10735934260970703  0.5198779763121925  1.0000
  C   C603      1.0  0.6038197116297512  0.10406095137419391  0.567661910362609  1.0000
  C   C604      1.0  0.6016952923808236  0.05990249647019752  0.5210499999816842  1.0000
  H   H905      1.0  0.6488255732255183  0.11011167459120053  0.5110534660001944  1.0000
  H   H906      1.0  0.6185347139080911  0.14582139538009442  0.51103601128152  1.0000
  H   H907      1.0  0.6163235046544417  0.11324763726739895  0.4764732832294732  1.0000
  H   H908      1.0  0.5414101878617343  0.09229574556571762  0.536234429503106  1.0000
  H   H909      1.0  0.5559165637750111  0.1353357422424708  0.5252953563807446  1.0000
  H   H910      1.0  0.554534211640943  0.10262475504031388  0.4905714260520492  1.0000
  H   H911      1.0  0.6309604630367973  0.09667275636256667  0.5752287974769478  1.0000
  H   H912      1.0  0.5856112634105196  0.08941730355707134  0.5856581235537927  1.0000
  H   H913      1.0  0.6008185725196485  0.1320870485596235  0.5742455774795825  1.0000
  H   H914      1.0  0.6290833779856506  0.0515068452978833  0.5258680965870738  1.0000
  H   H915      1.0  0.5951784928026865  0.05365237002380541  0.49221606118167566  1.0000
  H   H916      1.0  0.5845542640078523  0.04368385991389179  0.5385448918139666  1.0000
  N   N56       1.0  0.19430959894344157  0.8410806968987937  0.30180017968327066  1.0000
  C   C605      1.0  0.1968319165339409  0.8770464143695353  0.28813638331464114  1.0000
  C   C606      1.0  0.18592257069692172  0.8414344621305428  0.34113566322871686  1.0000
  C   C607      1.0  0.22798119920123003  0.823056008709452  0.2961153443805935  1.0000
  C   C608      1.0  0.1664436623314006  0.8226967107434244  0.2819705250449711  1.0000
  H   H917      1.0  0.20394594895665427  0.8777838492289036  0.25864982219345106  1.0000
  H   H918      1.0  0.21735123393762498  0.8917917176965073  0.3028354343048358  1.0000
  H   H919      1.0  0.17179202141897743  0.8913814223991032  0.29157638974756855  1.0000
  H   H920      1.0  0.20652761964519983  0.8547023323970327  0.3571509667136943  1.0000
  H   H921      1.0  0.16060294027791674  0.8547992239340577  0.3465905539945702  1.0000
  H   H922      1.0  0.1835583238852383  0.8146608501392271  0.35194815998313145  1.0000
  H   H923      1.0  0.22715637285101223  0.7958068921315329  0.3060723412585767  1.0000
  H   H924      1.0  0.2494579439939352  0.8361641288198716  0.3110068311046442  1.0000
  H   H925      1.0  0.23551603720172573  0.8227653484924353  0.26674866248524276  1.0000
  H   H926      1.0  0.16374866017818382  0.7955119173161941  0.291772027800262  1.0000
  H   H927      1.0  0.17178039395055617  0.8220018700545592  0.25211337074915696  1.0000
  H   H928      1.0  0.14064628947195376  0.8354875066333004  0.28613493614747765  1.0000
  N   N57       1.0  0.3985936231809756  0.8065360946322605  0.039206931709879544  1.0000
  C   C609      1.0  0.3853888945181149  0.7784295077874837  0.015736786313060636  1.0000
  C   C610      1.0  0.4104815160937019  0.8356324707157997  0.016099726878815  1.0000
  C   C611      1.0  0.4280434094526773  0.7933967088007423  0.06134154116248753  1.0000
  C   C612      1.0  0.3703518575432332  0.8186242515117276  0.06364996495429703  1.0000
  H   H929      1.0  0.4063167413034451  0.7679563950782821  0.9976854004675743  1.0000
  H   H930      1.0  0.3638854000974369  0.787640637943502  0.9977540495762176  1.0000
  H   H931      1.0  0.375227330535541  0.7565048640370587  0.03233127354151599  1.0000
  H   H932      1.0  0.4206956118654774  0.8573409927317458  0.03283574091445197  1.0000
  H   H933      1.0  0.4316762493424702  0.8274130518010718  0.997192884670938  1.0000
  H   H934      1.0  0.38884032862456935  0.8461193598072848  0.9990330500884056  1.0000
  H   H935      1.0  0.4391691042377715  0.8140151230175167  0.07893952992908752  1.0000
  H   H936      1.0  0.4495460803567322  0.7831914476423666  0.04384433573786506  1.0000
  H   H937      1.0  0.4197208116499722  0.7718647312017765  0.07963937271909236  1.0000
  H   H938      1.0  0.37936872191680837  0.8399012346550676  0.08175186185347738  1.0000
  H   H939      1.0  0.36082696217351784  0.7973043082773699  0.08157712397031279  1.0000
  H   H940      1.0  0.34761909206465  0.8286092232936987  0.047858244745059064  1.0000
  N   N58       1.0  0.5221108480633118  0.8614936554727839  0.31039270470977554  1.0000
  C   C613      1.0  0.5553586685108951  0.8543185656042509  0.3294409752260993  1.0000
  C   C614      1.0  0.5159892538461334  0.8992744306413263  0.30940482571598765  1.0000
  C   C615      1.0  0.49310354800466083  0.8445737682237452  0.3300925343174756  1.0000
  C   C616      1.0  0.5238422531624672  0.8480910154552598  0.2726736690528869  1.0000
  H   H941      1.0  0.5612229268605219  0.8261359481973722  0.3307743957512989  1.0000
  H   H942      1.0  0.5547894106771339  0.8640136661846967  0.358046657954408  1.0000
  H   H943      1.0  0.5777751525488682  0.8671299147450677  0.31567030797816953  1.0000
  H   H944      1.0  0.49081497466179386  0.9057619931471822  0.29586163537469107  1.0000
  H   H945      1.0  0.5147612531393642  0.9100737907084873  0.3374409761165523  1.0000
  H   H946      1.0  0.537285899014257  0.9129987761330021  0.2947203057767468  1.0000
  H   H947      1.0  0.467549658264284  0.8502808926181501  0.31690437222296713  1.0000
  H   H948      1.0  0.491486796153615  0.8536216322883277  0.35887446806117074  1.0000
  H   H949      1.0  0.4962824846084587  0.8159650338472229  0.33066625311236497  1.0000
  H   H950      1.0  0.5454813342905329  0.8602098175219545  0.25701142889113915  1.0000
  H   H951      1.0  0.49908337556250015  0.8532345298707208  0.2576858874400336  1.0000
  H   H952      1.0  0.5280607539567289  0.8195838173598831  0.2722480691655793  1.0000
  N   N59       1.0  0.18678036155512867  0.13137728029859908  0.3142394113274831  1.0000
  C   C617      1.0  0.20272093341424358  0.15989655064600927  0.2931399868014666  1.0000
  C   C618      1.0  0.15302694425531002  0.1429236979398154  0.32964483312917253  1.0000
  C   C619      1.0  0.2104923664870914  0.12121611740884597  0.3441981325609387  1.0000
  C   C620      1.0  0.18090963487458428  0.1014186884539563  0.29001048733686435  1.0000
  H   H953      1.0  0.2068666026401028  0.18311557901935793  0.3105306022419279  1.0000
  H   H954      1.0  0.18595155019713247  0.16785951915126085  0.2698467761055831  1.0000
  H   H955      1.0  0.22865851425918596  0.15214424006954208  0.2819237598197001  1.0000
  H   H956      1.0  0.1345142658409451  0.15117008102860496  0.30790778890775944  1.0000
  H   H957      1.0  0.14035060577100236  0.1218285639366048  0.34557799787221294  1.0000
  H   H958      1.0  0.15648288327209445  0.16502425633375384  0.3486531601322978  1.0000
  H   H959      1.0  0.21689250603785487  0.143599848758865  0.3619999747225756  1.0000
  H   H960      1.0  0.2355230436660939  0.11044948125963527  0.33359563621712407  1.0000
  H   H961      1.0  0.19861777048801188  0.10095684189922904  0.3619310695149997  1.0000
  H   H962      1.0  0.1682633385780432  0.07970788320996203  0.3050134039653662  1.0000
  H   H963      1.0  0.20594660932810055  0.09117010524831959  0.2788317622814976  1.0000
  H   H964      1.0  0.16378115162015183  0.1082860769251659  0.2666262015826369  1.0000
  N   N60       1.0  0.9899179753610811  0.8439058571215409  0.3513735942772428  1.0000
  C   C621      1.0  0.9873447283383282  0.808929468294957  0.33532056421261036  1.0000
  C   C622      1.0  0.9676171569998224  0.86818565800897  0.3305450760278869  1.0000
  C   C623      1.0  0.026500444442096427  0.8558060830547503  0.3499097104407859  1.0000
  C   C624      1.0  0.9781692722233213  0.8426474065431726  0.3897731981046621  1.0000
  H   H965      1.0  0.003784897883013505  0.7898328347242842  0.3502882197339751  1.0000
  H   H966      1.0  0.9959125031588486  0.8088451322025313  0.3062787599584178  1.0000
  H   H967      1.0  0.9599642673693313  0.7993996496931981  0.33574333962715874  1.0000
  H   H968      1.0  0.9696854858158268  0.8950677866238427  0.3411362650678069  1.0000
  H   H969      1.0  0.9749316651124371  0.8687302815203755  0.30114448150677964  1.0000
  H   H970      1.0  0.9396296815195753  0.8606914414005126  0.3320491262587347  1.0000
  H   H971      1.0  0.04409103858310015  0.8381247608557084  0.3653635909913347  1.0000
  H   H972      1.0  0.029351770580989145  0.8821396975860171  0.36189606501795607  1.0000
  H   H973      1.0  0.036269614037487186  0.8570588117697279  0.3213446721878793  1.0000
  H   H974      1.0  0.9810874742403629  0.8682328589532889  0.4032019372443198  1.0000
  H   H975      1.0  0.9935838477014978  0.8235899365166288  0.4059085885175607  1.0000
  H   H976      1.0  0.950134608032121  0.8354804192936801  0.3918367341410812  1.0000
  N   N61       1.0  0.6171381956296154  0.5912382671812126  0.22419165771122596  1.0000
  C   C625      1.0  0.6237271650641578  0.5907803262730913  0.2638863105624173  1.0000
  C   C626      1.0  0.6498049978602483  0.599759765437129  0.20475004598299137  1.0000
  C   C627      1.0  0.5901896984045746  0.6175504138661319  0.21578468851245403  1.0000
  C   C628      1.0  0.6048653347988734  0.556774578570905  0.21246178783504113  1.0000
  H   H977      1.0  0.6325724654353897  0.6164951340133557  0.27391731886591264  1.0000
  H   H978      1.0  0.644401916267925  0.5716601802676752  0.271261531215568  1.0000
  H   H979      1.0  0.5997782780981682  0.5838758033924217  0.27947233619486284  1.0000
  H   H980      1.0  0.6599099817274721  0.625509108988651  0.21320594157978748  1.0000
  H   H981      1.0  0.6705460715777486  0.5801785374357009  0.21055749062359738  1.0000
  H   H982      1.0  0.6458367781351803  0.600406543418925  0.17467836641181125  1.0000
  H   H983      1.0  0.598458909671072  0.6439573473657663  0.2242326370467275  1.0000
  H   H984      1.0  0.5652822409477734  0.6119601755234672  0.23031494185332896  1.0000
  H   H985      1.0  0.584283335672087  0.6186343719573494  0.18609031415269392  1.0000
  H   H986      1.0  0.5807585726316711  0.5490969468269495  0.22735537118358426  1.0000
  H   H987      1.0  0.624921197577679  0.5364222140548155  0.2176744060733931  1.0000
  H   H988      1.0  0.5990098255362547  0.5563502529915589  0.1827417391007944  1.0000
  N   N62       1.0  0.8598585596848644  0.8482350625361675  0.1453977529696055  1.0000
  C   C629      1.0  0.8522855910380094  0.8197719971328674  0.11972235247985445  1.0000
  C   C630      1.0  0.8281560311005951  0.8564793155193327  0.16676361046096233  1.0000
  C   C631      1.0  0.8708556915466439  0.8792897739315618  0.12478710650683436  1.0000
  C   C632      1.0  0.8881275789191382  0.8374238010900364  0.1703756514105949  1.0000
  H   H989      1.0  0.8440665021216329  0.7959296702938914  0.13453972928749308  1.0000
  H   H990      1.0  0.8756734506802949  0.8128215428915381  0.10317122301745078  1.0000
  H   H991      1.0  0.8309238883780042  0.826949440538785  0.10056299716158827  1.0000
  H   H992      1.0  0.8328657750836835  0.87795559077639  0.1863477331447463  1.0000
  H   H993      1.0  0.8061346318679833  0.8646148178734402  0.1489178078623881  1.0000
  H   H994      1.0  0.8191955226664959  0.833806686927045  0.18304067135833688  1.0000
  H   H995      1.0  0.8764514645013685  0.9013034037150669  0.1434741695592202  1.0000
  H   H996      1.0  0.8501399223315563  0.8881486423304754  0.1056208768027678  1.0000
  H   H997      1.0  0.8949131535269798  0.8741349862522216  0.10858413297019864  1.0000
  H   H998      1.0  0.894514422208487  0.858204252681032  0.190252107896635  1.0000
  H   H999      1.0  0.9125444111041743  0.8309796589080478  0.1553550373367977  1.0000
  H   H1000     1.0  0.8807539960038464  0.8140618218411815  0.1864488248976381  1.0000
  N   N63       1.0  0.6300746664394307  0.045295437792945537  0.6984966679617464  1.0000
  C   C633      1.0  0.6140647213865758  0.013360470416565517  0.6841200752052821  1.0000
  C   C634      1.0  0.6464150285633816  0.06470322250922544  0.6682270042170374  1.0000
  C   C635      1.0  0.6567702281508768  0.0360772674118961  0.7259622595393894  1.0000
  C   C636      1.0  0.6028665094365039  0.06700522881203108  0.7157234442475019  1.0000
  H   H1001     1.0  0.6020002409833403  0.9978582450669183  0.7063807322107226  1.0000
  H   H1002     1.0  0.6336212337787595  0.996562969947785  0.6702723082199141  1.0000
  H   H1003     1.0  0.5931145331765134  0.01934599311007079  0.664030358712243  1.0000
  H   H1004     1.0  0.6589966354110355  0.0887935176991832  0.6781209600328292  1.0000
  H   H1005     1.0  0.6669198828651663  0.0491228609401837  0.654302007082859  1.0000
  H   H1006     1.0  0.6267876519364841  0.07262533135654725  0.6474782344085133  1.0000
  H   H1007     1.0  0.6691208021956229  0.05954869283645037  0.7377570235453875  1.0000
  H   H1008     1.0  0.6778918553600586  0.019874002456701456  0.7139611415227873  1.0000
  H   H1009     1.0  0.6451464448541437  0.021363903913451443  0.7491512035235113  1.0000
  H   H1010     1.0  0.6138679588009884  0.09138117440606686  0.7269950510614324  1.0000
  H   H1011     1.0  0.5902117534105563  0.05306890273504772  0.7386906924231058  1.0000
  H   H1012     1.0  0.5819616552683812  0.0741600862855154  0.6959796986981122  1.0000
  N   N64       1.0  0.8606462799466609  0.493354781627032  0.801302538095388  1.0000
  C   C637      1.0  0.8673570710405744  0.48250510202409586  0.7632846626532525  1.0000
  C   C638      1.0  0.8232506588309929  0.4886962958251931  0.8097251948954995  1.0000
  C   C639      1.0  0.870064667841184  0.5301831548086859  0.8059026629350343  1.0000
  C   C640      1.0  0.881893109678023  0.47189839783140536  0.8262897770104126  1.0000
  H   H1013     1.0  0.8955002609950208  0.48427881892073843  0.7564044271292827  1.0000
  H   H1014     1.0  0.8527672612062026  0.4989045318605027  0.7434863949905184  1.0000
  H   H1015     1.0  0.85974559806846  0.45504307053149906  0.7588453065557311  1.0000
  H   H1016     1.0  0.816813691056575  0.4982553444247703  0.8375724755781017  1.0000
  H   H1017     1.0  0.8064411897419187  0.5031134352593165  0.7901394685754084  1.0000
  H   H1018     1.0  0.8157253818180165  0.46088471159465344  0.8088090890214168  1.0000
  H   H1019     1.0  0.898313440347407  0.5344930451288331  0.8009844326721467  1.0000
  H   H1020     1.0  0.864606363555439  0.5393318686334466  0.8341217007896197  1.0000
  H   H1021     1.0  0.8553512482522692  0.5472451624088617  0.7867814191976988  1.0000
  H   H1022     1.0  0.8763513021470691  0.47823140205318854  0.8553492626539233  1.0000
  H   H1023     1.0  0.910306994306771  0.4757319844463346  0.8215231944825374  1.0000
  H   H1024     1.0  0.8766366965943853  0.44384526033793253  0.8223462493741157  1.0000
