data_image0
_chemical_formula_structural       FeS2FeS2FeSFeS3FeS2FeS2FeSFeS3FeS2FeS2FeSFeS3FeS2FeS2FeSFeS3FeS2FeS2FeSFeS3FeS2FeS2FeSFeS3FeS2FeS2FeSFeS3FeS2FeS2FeSFeS3FeS2FeS2FeSFeS3FeS2FeS2FeSFeS3FeS2FeS2FeSFeS3FeS2FeS2FeSFeS3FeS2FeS2FeSFeS3FeS2FeS2FeSFeS3FeS2FeS2FeSFeS3FeS2FeS2FeSFeS3C6H4C6H4C6H4C6H4C6H4C6H4C6H4C6H4C6H4C6H4C6H4C6H4C6H4C6H4C6H4C6H4C6H4C6H4C6H4C6H4C6H4C6H4C6H4C6H4C6H4C6H4C6H4C6H4C6H4C6H4C6H4C6H4NC4H12NC4H12NC4H12NC4H12NC4H12NC4H12NC4H12NC4H12NC4H12NC4H12NC4H12NC4H12NC4H12NC4H12NC4H12NC4H12NC4H12NC4H12NC4H12NC4H12NC4H12NC4H12NC4H12NC4H12NC4H12NC4H12NC4H12NC4H12NC4H12NC4H12NC4H12NC4H12
_chemical_formula_sum              "Fe64 S128 C320 H512 N32"
_cell_length_a       35.361281165239
_cell_length_b       35.83928138936868
_cell_length_c       30.661986747720004
_cell_angle_alpha    89.53671883965032
_cell_angle_beta     90.32261394016672
_cell_angle_gamma    90.23611259703748

_space_group_name_H-M_alt    "P 1"
_space_group_IT_number       1

loop_
  _space_group_symop_operation_xyz
  'x, y, z'

loop_
  _atom_site_type_symbol
  _atom_site_label
  _atom_site_symmetry_multiplicity
  _atom_site_fract_x
  _atom_site_fract_y
  _atom_site_fract_z
  _atom_site_occupancy
  Fe  Fe1       1.0  0.7575000553017415  0.7004259241842342  0.16817460008474538  1.0000
  S   S1        1.0  0.7460409628445825  0.7410539053931388  0.11353190884595285  1.0000
  S   S2        1.0  0.8041356272109064  0.7044751874070405  0.21785928177878927  1.0000
  Fe  Fe2       1.0  0.688506722204783  0.652905429013962  0.14795980216597432  1.0000
  S   S3        1.0  0.6713949003604207  0.6894523769502847  0.09176542539130852  1.0000
  S   S4        1.0  0.6487183641947946  0.6060261242258292  0.16473179986738803  1.0000
  Fe  Fe3       1.0  0.7328049648123661  0.6898949688408782  0.07459910291345316  1.0000
  S   S5        1.0  0.7459825870987109  0.6855814858121391  0.0030969519016172957  1.0000
  Fe  Fe4       1.0  0.6860470653397168  0.7365529723776901  0.13580859560864153  1.0000
  S   S6        1.0  0.6466318397665486  0.7848841804265999  0.1401699842516978  1.0000
  S   S7        1.0  0.7490720868030639  0.6492292549983417  0.12741937373589532  1.0000
  S   S8        1.0  0.6982968917417335  0.7002207525689755  0.19366088490803482  1.0000
  Fe  Fe5       1.0  0.9825977656184649  0.878660834801276  0.3265104006687032  1.0000
  S   S9        1.0  0.9808916352259662  0.8836010849992123  0.3987666369439146  1.0000
  S   S10       1.0  0.03911922693986147  0.8842854983438589  0.29430761739209754  1.0000
  Fe  Fe6       1.0  0.8979265068957294  0.8693160085835031  0.3194795224369604  1.0000
  S   S11       1.0  0.8885540226134088  0.87401908790183  0.3916243888958414  1.0000
  S   S12       1.0  0.8512933568753116  0.8681781011555213  0.2696333409854096  1.0000
  Fe  Fe7       1.0  0.9313235122648911  0.9200967748504352  0.38808603180652734  1.0000
  S   S13       1.0  0.9325768398393377  0.9737671458010216  0.42439161160948247  1.0000
  Fe  Fe8       1.0  0.9391720146694492  0.8365627833958033  0.39654919363743807  1.0000
  S   S14       1.0  0.9475797860388743  0.7954668358702652  0.4512149125007516  1.0000
  S   S15       1.0  0.9357980571363538  0.9193353917983913  0.3154773889733225  1.0000
  S   S16       1.0  0.9454225898349123  0.8278280328641623  0.32450300002103616  1.0000
  Fe  Fe9       1.0  0.31680076714797806  0.750266285609579  0.8544345919090891  1.0000
  S   S17       1.0  0.32297816646839606  0.7238779678262965  0.7889997426373575  1.0000
  S   S18       1.0  0.3440363448838267  0.8034229218691622  0.8756854933752954  1.0000
  Fe  Fe10      1.0  0.26278375520179853  0.6919513645082929  0.8873523949625635  1.0000
  S   S19       1.0  0.2626099024648201  0.6597954088920643  0.8247185310893698  1.0000
  S   S20       1.0  0.23607641719270012  0.6796810916092545  0.9518999392379128  1.0000
  Fe  Fe11      1.0  0.3252781992551909  0.6698172971730709  0.8262900912042713  1.0000
  S   S21       1.0  0.37081981173605577  0.6283333582779635  0.8119233942809291  1.0000
  Fe  Fe12      1.0  0.2602071476009987  0.7162829552988467  0.7923415192902752  1.0000
  S   S22       1.0  0.22657533648778178  0.7273050074349556  0.7312280518644944  1.0000
  S   S23       1.0  0.3257005605696786  0.6972287637627127  0.8914092045042072  1.0000
  S   S24       1.0  0.2536848751320749  0.7474222683285784  0.8548212341869166  1.0000
  Fe  Fe13      1.0  0.15765394509660835  0.9028868579466771  0.637703518785824  1.0000
  S   S25       1.0  0.14953932188171312  0.9297256546030365  0.572126656093556  1.0000
  S   S26       1.0  0.21352787862767092  0.896009491737635  0.6723476803201272  1.0000
  Fe  Fe14      1.0  0.07436669412137031  0.8874954666085139  0.648726604545327  1.0000
  S   S27       1.0  0.05822398693280029  0.9122971232154328  0.584032810761605  1.0000
  S   S28       1.0  0.03570349017543517  0.8571314525578224  0.6943340856460619  1.0000
  Fe  Fe15      1.0  0.10937374644240755  0.882610841558438  0.5593957887287359  1.0000
  S   S29       1.0  0.10979237250030938  0.8551146761084877  0.49407081742817577  1.0000
  Fe  Fe16      1.0  0.09927541191677217  0.957584206160407  0.6018246032515365  1.0000
  S   S30       1.0  0.08680141435543534  0.01689796478411343  0.581686800148365  1.0000
  S   S31       1.0  0.12169528963419918  0.8531905299999789  0.622333215949718  1.0000
  S   S32       1.0  0.11120202994261576  0.935307894921925  0.6692370079547446  1.0000
  Fe  Fe17      1.0  0.2915785611159296  0.5059843170308529  0.07466532751847607  1.0000
  S   S33       1.0  0.26476931862955483  0.49143382106923283  0.13892030305440825  1.0000
  S   S34       1.0  0.2630456912750286  0.512327219715481  0.009666300204910662  1.0000
  Fe  Fe18      1.0  0.3714826983007643  0.501621526828768  0.10996417036457955  1.0000
  S   S35       1.0  0.35231479849159925  0.4866715643609468  0.17723118090413958  1.0000
  S   S36       1.0  0.43121128590149305  0.5089600074081913  0.08705289501895522  1.0000
  Fe  Fe19      1.0  0.31092110304166815  0.44875853141733746  0.1440930096260305  1.0000
  S   S37       1.0  0.30612351906004187  0.39053487325793884  0.1709459556652022  1.0000
  Fe  Fe20      1.0  0.30837160221994364  0.5303467459402621  0.16653426712055752  1.0000
  S   S38       1.0  0.2999786236909619  0.5695979936928571  0.22191419043168817  1.0000
  S   S39       1.0  0.3339860389585478  0.45983053405933155  0.0774865277814626  1.0000
  S   S40       1.0  0.33115842219108654  0.5490424678065026  0.1018330432979408  1.0000
  Fe  Fe21      1.0  0.12364279219650909  0.24656980260453598  0.3391127340469241  1.0000
  S   S41       1.0  0.15738389927523966  0.2423896724146204  0.40061196960443657  1.0000
  S   S42       1.0  0.08611976694613377  0.19945239463036785  0.3178299030619791  1.0000
  Fe  Fe22      1.0  0.15232259933103012  0.32371177764784065  0.3180915120691397  1.0000
  S   S43       1.0  0.18813412704234386  0.3273170993216018  0.37840947380189566  1.0000
  S   S44       1.0  0.15062899057390922  0.36996418174147044  0.26842840376111055  1.0000
  Fe  Fe23      1.0  0.20404009409188106  0.2687710361608513  0.3626066077065983  1.0000
  S   S45       1.0  0.26386869179983524  0.25182324098088227  0.3744749759040566  1.0000
  Fe  Fe24      1.0  0.13873365956306755  0.30088562701683463  0.41208647601972553  1.0000
  S   S46       1.0  0.127503563596006  0.31077969731083877  0.48275376287592225  1.0000
  S   S47       1.0  0.17254279731549685  0.2669358206575351  0.29906654080298756  1.0000
  S   S48       1.0  0.1005087037265544  0.3031809248438534  0.35336680886635846  1.0000
  Fe  Fe25      1.0  0.7664710091784577  0.5163776087915559  0.9009320614146971  1.0000
  S   S49       1.0  0.7751285586773365  0.5207793209729367  0.8288170316127762  1.0000
  S   S50       1.0  0.8092699876371218  0.528969207340319  0.9526592499613651  1.0000
  Fe  Fe26      1.0  0.683412502721512  0.4980422201802917  0.8929392878799512  1.0000
  S   S51       1.0  0.684280356801626  0.49990094148651754  0.8198001784324255  1.0000
  S   S52       1.0  0.6321265450435547  0.4880150670104538  0.933826554083663  1.0000
  Fe  Fe27      1.0  0.7388461394470276  0.46913562767611433  0.8270255356351659  1.0000
  S   S53       1.0  0.7468786368418873  0.4205384597580194  0.7828252861283929  1.0000
  Fe  Fe28      1.0  0.7198980059801942  0.5511589592802597  0.82810674998199  1.0000
  S   S54       1.0  0.7108767662852544  0.603221952384835  0.7882169501569506  1.0000
  S   S55       1.0  0.7347245271330538  0.46220004869361525  0.8994468035242857  1.0000
  S   S56       1.0  0.714504802351974  0.5515711414523558  0.900620628861342  1.0000
  Fe  Fe29      1.0  0.9466771704874101  0.31962101355048894  0.5968202481761131  1.0000
  S   S57       1.0  0.980216097271267  0.35155431921702907  0.6464996199034687  1.0000
  S   S58       1.0  0.9537459902557451  0.32456397727819036  0.5245034931118996  1.0000
  Fe  Fe30      1.0  0.900360099906595  0.2779972009498772  0.6633784946861617  1.0000
  S   S59       1.0  0.9283989979840025  0.30619930461033  0.7195665374109386  1.0000
  S   S60       1.0  0.8536884828427763  0.23599914198223512  0.6736766818372643  1.0000
  Fe  Fe31      1.0  0.9245389981459465  0.3585103643110842  0.6797813824099719  1.0000
  S   S61       1.0  0.9147046868446451  0.4112689890622296  0.716568508208949  1.0000
  Fe  Fe32      1.0  0.9820488709448157  0.29729672086481235  0.6831430755281552  1.0000
  S   S62       1.0  0.02848424349770174  0.2779700423864126  0.7275430471735014  1.0000
  S   S63       1.0  0.890406076445182  0.3316748269039754  0.6266878758581426  1.0000
  S   S64       1.0  0.954644177525926  0.2642512192097307  0.6298654803054861  1.0000
  Fe  Fe33      1.0  0.43523027018829663  0.7602377891031933  0.16363963780127144  1.0000
  S   S65       1.0  0.39778601939849917  0.7554152097702925  0.10504005746958192  1.0000
  S   S66       1.0  0.4828627551621866  0.7193796509024073  0.17060144254194093  1.0000
  Fe  Fe34      1.0  0.3899227454304845  0.8227365248069193  0.20187677818940217  1.0000
  S   S67       1.0  0.348427232290374  0.8242806019580577  0.14641923013459424  1.0000
  S   S68       1.0  0.39030576023782926  0.8655179706272202  0.2545907122638916  1.0000
  Fe  Fe35      1.0  0.3501871801153213  0.762049387474934  0.15187670353211688  1.0000
  S   S69       1.0  0.29807430507983823  0.729504039683206  0.1356557220778317  1.0000
  Fe  Fe36      1.0  0.3989847470623123  0.8176595203585993  0.10389896615356875  1.0000
  S   S70       1.0  0.40011105531263874  0.8463478814811451  0.03882273624728794  1.0000
  S   S71       1.0  0.38733447992317316  0.760604390982822  0.2114449116597919  1.0000
  S   S72       1.0  0.44064542828445935  0.8224514463109474  0.15873467083521603  1.0000
  Fe  Fe37      1.0  0.16437218937056558  0.030030728600298096  0.332334217836034  1.0000
  S   S73       1.0  0.21202971353402966  0.015011301540606592  0.28834782605176046  1.0000
  S   S74       1.0  0.10584088662367819  0.0462372778251654  0.31290245007315026  1.0000
  Fe  Fe38      1.0  0.20842510679061105  0.01430808291430341  0.4151786038904768  1.0000
  S   S75       1.0  0.26086635380801537  0.9975019057024889  0.37955315252082283  1.0000
  S   S76       1.0  0.19726010793116622  0.01911797886862332  0.48679144253080414  1.0000
  Fe  Fe39      1.0  0.2477245206468955  0.046676230606174804  0.3360740511225725  1.0000
  S   S77       1.0  0.29179743836110555  0.08684303198389672  0.3124495038997296  1.0000
  Fe  Fe40      1.0  0.22085389384764872  0.9671509566737285  0.33468080285075724  1.0000
  S   S78       1.0  0.22455782416166908  0.9093022229943514  0.30787552798089074  1.0000
  S   S79       1.0  0.1989415236317222  0.06604433211491659  0.37581994226414156  1.0000
  S   S80       1.0  0.16976916086737223  0.9794293727526959  0.3745421988117956  1.0000
  Fe  Fe41      1.0  0.38094008169557936  0.42912659566419303  0.8183142287309715  1.0000
  S   S81       1.0  0.4192698656473748  0.4280545406636615  0.7605869540062212  1.0000
  S   S82       1.0  0.32483126126214973  0.4577520612687523  0.8173806140233275  1.0000
  Fe  Fe42      1.0  0.4394681462778611  0.39421387600827307  0.8788312632566319  1.0000
  S   S83       1.0  0.48323528677241395  0.39033703252324375  0.8263019258672982  1.0000
  S   S84       1.0  0.4496865125113397  0.3838310001032729  0.9501423717407421  1.0000
  Fe  Fe43      1.0  0.46375392023723094  0.44762516657388884  0.8072609028070664  1.0000
  S   S85       1.0  0.5025490054009824  0.4957913855708597  0.7942895026513767  1.0000
  Fe  Fe44      1.0  0.4343986837265491  0.37095303614307107  0.7850178888781832  1.0000
  S   S86       1.0  0.4387209765355852  0.32728177300607814  0.7335433126916333  1.0000
  S   S87       1.0  0.42434001037687014  0.453117346642754  0.8630112646884092  1.0000
  S   S88       1.0  0.3917858293926893  0.3701666798803592  0.8392685063689891  1.0000
  Fe  Fe45      1.0  0.19852608326697918  0.16654500152046806  0.6931930314385203  1.0000
  S   S89       1.0  0.19186563397474346  0.20009551576914575  0.631575378638045  1.0000
  S   S90       1.0  0.1558809430996201  0.1262733704191965  0.7208227317660304  1.0000
  Fe  Fe46      1.0  0.2760648008781445  0.1984188593987131  0.7131137913431728  1.0000
  S   S91       1.0  0.27694744101103697  0.23447397345165516  0.6529956199958318  1.0000
  S   S92       1.0  0.31934237628993173  0.19948110950688538  0.7666238333356682  1.0000
  Fe  Fe47      1.0  0.21709803731079938  0.24704685679628863  0.6700010096960836  1.0000
  S   S93       1.0  0.19459979911106542  0.3050216429291637  0.6625890330690274  1.0000
  Fe  Fe48      1.0  0.2521448070216023  0.18432717767426446  0.6200237745483026  1.0000
  S   S94       1.0  0.2709318570814123  0.1688973258428384  0.5530487401976265  1.0000
  S   S95       1.0  0.21784597795208055  0.2151909463471577  0.7329680741713728  1.0000
  S   S96       1.0  0.25707624897845077  0.14672839958689454  0.6785127270224418  1.0000
  Fe  Fe49      1.0  0.5970467979461799  0.38461210123305617  0.1425747112277294  1.0000
  S   S97       1.0  0.6253396291410641  0.4196944598827963  0.09103937124556405  1.0000
  S   S98       1.0  0.5425756891184961  0.3944792434330692  0.17813291529211847  1.0000
  Fe  Fe50      1.0  0.6583062523030784  0.32553990792852944  0.14162983627437964  1.0000
  S   S99       1.0  0.6917525714219119  0.3547347163204176  0.08966125817217184  1.0000
  S   S100      1.0  0.6732396467076154  0.27045815827060193  0.1722700210721116  1.0000
  Fe  Fe51      1.0  0.6786132208466482  0.4063031597716139  0.12770338179527813  1.0000
  S   S101      1.0  0.723230227885698  0.4488438793020706  0.1423934473612084  1.0000
  Fe  Fe52      1.0  0.635323821235072  0.3650619432654975  0.05794801934697151  1.0000
  S   S102      1.0  0.6233576988273033  0.35580144182544804  0.9869589216557899  1.0000
  S   S103      1.0  0.6497828564187985  0.37628557550456965  0.18225788823962025  1.0000
  S   S104      1.0  0.6029019140954589  0.33103400209355177  0.10648003487600538  1.0000
  Fe  Fe53      1.0  0.8389097530752062  0.13526999603205692  0.3339723023637427  1.0000
  S   S105      1.0  0.8506046873445016  0.13381869017376533  0.40568643933340326  1.0000
  S   S106      1.0  0.8405310705346083  0.08047057045671657  0.29987816269275364  1.0000
  Fe  Fe54      1.0  0.8276571890655678  0.21801387361797278  0.33138897880616247  1.0000
  S   S107      1.0  0.8387099562521282  0.22396635565368644  0.4030414029922876  1.0000
  S   S108      1.0  0.8185615863835088  0.27153616966386124  0.29384906478112993  1.0000
  Fe  Fe55      1.0  0.8862013890435004  0.18399285628197487  0.3929677289874231  1.0000
  S   S109      1.0  0.9390330940048349  0.1913047689023009  0.4332321726700528  1.0000
  Fe  Fe56      1.0  0.8023074506597904  0.17315203466934828  0.41045135737884497  1.0000
  S   S110      1.0  0.7652665902007997  0.16642520818094175  0.46907594726538115  1.0000
  S   S111      1.0  0.8789846095536523  0.18251976368692827  0.32029274905138794  1.0000
  S   S112      1.0  0.786685970222379  0.17023634143566801  0.3397165550899943  1.0000
  Fe  Fe57      1.0  0.5774335152080201  0.7538433186851696  0.8543102132341717  1.0000
  S   S113      1.0  0.585335774595081  0.7776670554207683  0.7872751482179464  1.0000
  S   S114      1.0  0.5777971202938225  0.6934570512390813  0.8740459069565375  1.0000
  Fe  Fe58      1.0  0.5703064410148385  0.8298842101714428  0.8962178789788761  1.0000
  S   S115      1.0  0.578108383347626  0.8611909209613487  0.8331988683645426  1.0000
  S   S116      1.0  0.5658976695261932  0.8535870181700604  0.963437310349345  1.0000
  Fe  Fe59      1.0  0.5394132573549357  0.817140775811586  0.8060387534891379  1.0000
  S   S117      1.0  0.4896610951409093  0.8290843263127582  0.7630581926932556  1.0000
  Fe  Fe60      1.0  0.6236554970554922  0.8192198423691132  0.8199972381045212  1.0000
  S   S118      1.0  0.6824916788171704  0.827429220696434  0.7937932611774621  1.0000
  S   S119      1.0  0.527731439880987  0.7893085347665278  0.8702708351406055  1.0000
  S   S120      1.0  0.6193187619824699  0.7918783890973293  0.8856536649301181  1.0000
  Fe  Fe61      1.0  0.8411947404577292  0.9405664243447176  0.6601522042570815  1.0000
  S   S121      1.0  0.8426869264186879  0.9802454712836174  0.7162850933125263  1.0000
  S   S122      1.0  0.8613241089257986  0.8814757754733741  0.6629417689348747  1.0000
  Fe  Fe62      1.0  0.7972185929141882  0.9937457873829577  0.6013072233389954  1.0000
  S   S123      1.0  0.79399372553214  0.0377889525489572  0.652223505043418  1.0000
  S   S124      1.0  0.7749886925930554  0.9988263951002783  0.5330459077520613  1.0000
  Fe  Fe63      1.0  0.8548463254853133  0.02402803638910078  0.6650973547114151  1.0000
  S   S125      1.0  0.9019256357116073  0.06657096349112537  0.6657039137155438  1.0000
  Fe  Fe64      1.0  0.7819276942674271  0.9901980119779321  0.6982620042264879  1.0000
  S   S126      1.0  0.7335524941497421  0.9918419283292801  0.7452359240608023  1.0000
  S   S127      1.0  0.8588336754257805  0.9830129324683271  0.6105409895142943  1.0000
  S   S128      1.0  0.7796097910620154  0.947332373752543  0.6456605038083126  1.0000
  C   C1        1.0  0.6967485448501992  0.8735348419611993  0.7823405065058141  1.0000
  C   C2        1.0  0.7318775351270348  0.8798015580199696  0.7626573634252305  1.0000
  C   C3        1.0  0.7437541372135806  0.9162038985950738  0.7524330978010053  1.0000
  C   C4        1.0  0.7205682452081484  0.9465601457317923  0.7619329718198512  1.0000
  C   C5        1.0  0.685643705473858  0.9404065541842721  0.7821632863976309  1.0000
  C   C6        1.0  0.6737059608915038  0.9039195851865545  0.7922772210326476  1.0000
  H   H1        1.0  0.7499286944259923  0.8564571685477544  0.7550566959199809  1.0000
  H   H2        1.0  0.7709612260049916  0.9206922701876934  0.7373131128284414  1.0000
  H   H3        1.0  0.667667931850308  0.963806309767589  0.7897413172873576  1.0000
  H   H4        1.0  0.6467828128535508  0.8994007023957952  0.8078723413412706  1.0000
  C   C7        1.0  0.7654842581677417  0.11963215449423728  0.4862857051185236  1.0000
  C   C8        1.0  0.7592858931650701  0.11074442691611705  0.5302105978764664  1.0000
  C   C9        1.0  0.7619908577908908  0.07362704866228947  0.5447327042261013  1.0000
  C   C10       1.0  0.7702402440090195  0.04524408624198834  0.5152517090298286  1.0000
  C   C11       1.0  0.7752029635343244  0.054004591179395905  0.47109601390316125  1.0000
  C   C12       1.0  0.7732232191236184  0.09119365475861632  0.45670120810229714  1.0000
  H   H5        1.0  0.7526524111141024  0.13253476508049222  0.553102771788845  1.0000
  H   H6        1.0  0.7568206578083092  0.06698856050880864  0.5785208805264239  1.0000
  H   H7        1.0  0.7811542089085307  0.03210781694721443  0.4480276376206691  1.0000
  H   H8        1.0  0.7770776561826132  0.09772227640923122  0.4224981157912716  1.0000
  C   C13       1.0  0.7143695030706055  0.27116566554066407  0.20466957625348076  1.0000
  C   C14       1.0  0.7270244370823441  0.2379301289746927  0.2239246692456128  1.0000
  C   C15       1.0  0.7592077535705821  0.23787019393142855  0.2508594116957404  1.0000
  C   C16       1.0  0.7786955265505107  0.271107439668338  0.25912497538216755  1.0000
  C   C17       1.0  0.766158255132199  0.3044056483670541  0.23962227586643606  1.0000
  C   C18       1.0  0.7340166374316209  0.30446289050213826  0.21240312646368648  1.0000
  H   H9        1.0  0.7120942035648739  0.21207183002568958  0.21774750621023256  1.0000
  H   H10       1.0  0.7691514631827764  0.21195392113747313  0.264661611272532  1.0000
  H   H11       1.0  0.7812159841641714  0.3301980882043923  0.24569533937288263  1.0000
  H   H12       1.0  0.7244942252272021  0.33023706495685684  0.19750438224953296  1.0000
  C   C19       1.0  0.5747875550055465  0.3623445343374965  0.9774221949868234  1.0000
  C   C20       1.0  0.5530048018441621  0.3824308583883565  0.006962103076775028  1.0000
  C   C21       1.0  0.5146283739246219  0.38893614754795475  0.998409750156578  1.0000
  C   C22       1.0  0.4977749690851352  0.3752648929954489  0.9603595991045066  1.0000
  C   C23       1.0  0.5193276252525625  0.3546029311850925  0.9310802138571329  1.0000
  C   C24       1.0  0.5577440239800214  0.3479061552122124  0.9398260929291757  1.0000
  H   H13       1.0  0.5658010311728403  0.39355433751019736  0.03609081946334247  1.0000
  H   H14       1.0  0.49841618765037654  0.40549470477204497  0.02072594613369305  1.0000
  H   H15       1.0  0.5061600232240995  0.3429950321851026  0.9022997495411246  1.0000
  H   H16       1.0  0.5741842169285445  0.3311429596735885  0.9178679392384919  1.0000
  C   C25       1.0  0.4079482668296519  0.2897588180582653  0.7431135660424396  1.0000
  C   C26       1.0  0.3925850569195497  0.27030453868051907  0.7077651346900246  1.0000
  C   C27       1.0  0.3657837799366214  0.24199246305359357  0.7148488480886854  1.0000
  C   C28       1.0  0.35470385291413037  0.23284768434090883  0.7573346990079738  1.0000
  C   C29       1.0  0.37093285343819266  0.2515362220619473  0.7927393228827343  1.0000
  C   C30       1.0  0.3973135894018299  0.2802081943325219  0.7856178930060004  1.0000
  H   H17       1.0  0.40103930594877446  0.2774696118287187  0.6748756080559761  1.0000
  H   H18       1.0  0.354054183457095  0.22695160154632826  0.6875007238242217  1.0000
  H   H19       1.0  0.36269791104703863  0.24417146824467234  0.8256488487373886  1.0000
  H   H20       1.0  0.40987845777802123  0.2944672775768129  0.8130491158032442  1.0000
  C   C31       1.0  0.2185566577723966  0.060097548572984695  0.5058333436798139  1.0000
  C   C32       1.0  0.20701264945356268  0.0754022612058391  0.5453913801683242  1.0000
  C   C33       1.0  0.22321697402864749  0.10878371833748063  0.5602784187644525  1.0000
  C   C34       1.0  0.250985783721904  0.12684980213805216  0.5354683268582272  1.0000
  C   C35       1.0  0.2622512773603289  0.11172467799570691  0.4957048458331173  1.0000
  C   C36       1.0  0.246144700059975  0.07829937667477188  0.48095865363241286  1.0000
  H   H21       1.0  0.18520929985130793  0.061641638534321155  0.5641412028045374  1.0000
  H   H22       1.0  0.2141032250243354  0.12067668678486922  0.5907366977782558  1.0000
  H   H23       1.0  0.28365754649667646  0.12572479656081634  0.47636403448689224  1.0000
  H   H24       1.0  0.2554506187167949  0.0665070318239479  0.4504952293457781  1.0000
  C   C37       1.0  0.44611293635240706  0.8486352456708711  0.017689350319013863  1.0000
  C   C38       1.0  0.4516484176614936  0.8492818400931492  0.9724932775756348  1.0000
  C   C39       1.0  0.48842561963158565  0.8507907787690089  0.9554885484606385  1.0000
  C   C40       1.0  0.5196211732118472  0.8525422785964865  0.9836991247457936  1.0000
  C   C41       1.0  0.5140105244349252  0.8524711359815477  0.028848588754810667  1.0000
  C   C42       1.0  0.4773573305895827  0.8500693734577955  0.04580718606147016  1.0000
  H   H25       1.0  0.427558791005966  0.8482941993547719  0.9505562746351256  1.0000
  H   H26       1.0  0.49251634437165953  0.8513518244338901  0.92055688512515  1.0000
  H   H27       1.0  0.5380559961992374  0.8540242233810287  0.050751127344554  1.0000
  H   H28       1.0  0.4733782111439477  0.8501194866315587  0.08061647288849905  1.0000
  C   C43       1.0  0.344292938643767  0.8771549403098963  0.2698634828181014  1.0000
  C   C44       1.0  0.31374572727223643  0.8543226085985255  0.25827156790071754  1.0000
  C   C45       1.0  0.27692761003666577  0.8642909996193633  0.27014709542436827  1.0000
  C   C46       1.0  0.27064796831612825  0.8973726722233879  0.292942411124951  1.0000
  C   C47       1.0  0.30116854270115406  0.9204599234068627  0.30382935527637145  1.0000
  C   C48       1.0  0.3380241558833036  0.910173490983614  0.2926643294782636  1.0000
  H   H29       1.0  0.31851937175438266  0.8287061053225127  0.2407687380967226  1.0000
  H   H30       1.0  0.2533641085517065  0.8464326855512141  0.26152719851313877  1.0000
  H   H31       1.0  0.2965101125998911  0.9460613657160557  0.321223820787329  1.0000
  H   H32       1.0  0.3616290471125777  0.9279051218676128  0.30156011210422934  1.0000
  C   C49       1.0  0.07418441678712656  0.28948041630971466  0.7104209045657319  1.0000
  C   C50       1.0  0.08059653939200134  0.30795107456037063  0.6707468318370828  1.0000
  C   C51       1.0  0.11781970495777289  0.3146991259810295  0.6568501291724889  1.0000
  C   C52       1.0  0.14835597540703688  0.30238747704128793  0.682359995336532  1.0000
  C   C53       1.0  0.14173979932878591  0.284784045524739  0.7224214295358427  1.0000
  C   C54       1.0  0.10473812060116486  0.27865319004683514  0.7366195863006715  1.0000
  H   H33       1.0  0.05709359345284387  0.31625256048881717  0.6502435583001885  1.0000
  H   H34       1.0  0.12290533110180184  0.3280565861673907  0.625620081463709  1.0000
  H   H35       1.0  0.16521130079053256  0.27571592407177  0.7424891879247592  1.0000
  H   H36       1.0  0.09988908474985458  0.26459969208620454  0.7674673723306059  1.0000
  C   C55       1.0  0.8675909473705652  0.1889419467192859  0.6744122997511756  1.0000
  C   C56       1.0  0.9052729202129941  0.1789853818119542  0.6676445006634593  1.0000
  C   C57       1.0  0.9154114800513726  0.1413075910641127  0.6651865147221676  1.0000
  C   C58       1.0  0.8881302701416094  0.11333374938754893  0.670535986245858  1.0000
  C   C59       1.0  0.8505610690134375  0.12318014682690463  0.6782338677165571  1.0000
  C   C60       1.0  0.8402620189032197  0.1609304070892259  0.6798711207392625  1.0000
  H   H37       1.0  0.9266274238620629  0.2001809539910542  0.6645741216396777  1.0000
  H   H38       1.0  0.944376366503237  0.13367282332015992  0.6590964201193865  1.0000
  H   H39       1.0  0.8294722485663958  0.10188009956007443  0.683550889782655  1.0000
  H   H40       1.0  0.811088124177978  0.16840775761421053  0.6855795339116811  1.0000
  C   C61       1.0  0.6734196424857024  0.6285360080850553  0.8107985016928636  1.0000
  C   C62       1.0  0.6519352475231177  0.612707725446786  0.8442722119004568  1.0000
  C   C63       1.0  0.6227410202248485  0.6327921519310272  0.8636082354222857  1.0000
  C   C64       1.0  0.6147363634305139  0.6690360789058044  0.8493984049529476  1.0000
  C   C65       1.0  0.6360217061552614  0.6850646750762043  0.8156594470212863  1.0000
  C   C66       1.0  0.6652201235825425  0.6647111914769992  0.7961554319772908  1.0000
  H   H41       1.0  0.6575730365841018  0.5847490540421167  0.8549729161366525  1.0000
  H   H42       1.0  0.6063538439384787  0.6201136106992935  0.8895250266467747  1.0000
  H   H43       1.0  0.6299786462491409  0.7130036501550097  0.8043722804129079  1.0000
  H   H44       1.0  0.6814117673859031  0.6769878236127705  0.7698270217787972  1.0000
  C   C67       1.0  0.7940948681290787  0.41578881011269697  0.7671088010392718  1.0000
  C   C68       1.0  0.8224472470692682  0.437419845200283  0.7865382295686976  1.0000
  C   C69       1.0  0.8595604245541595  0.4360434488884526  0.7708607367498331  1.0000
  C   C70       1.0  0.8685344353801315  0.41214466192518406  0.7366383886057662  1.0000
  C   C71       1.0  0.8404922184425784  0.3894148644979695  0.7183905745148403  1.0000
  C   C72       1.0  0.8032030348497231  0.3914757088627417  0.7333663417865197  1.0000
  H   H45       1.0  0.8158938957449748  0.4551933813388069  0.8136365319416742  1.0000
  H   H46       1.0  0.8813248639826369  0.45329561536899826  0.7854266225171366  1.0000
  H   H47       1.0  0.8473111459788355  0.3706747841194838  0.6922348230504428  1.0000
  H   H48       1.0  0.7814081614687024  0.37438716927030163  0.7185705023555942  1.0000
  C   C73       1.0  0.5928901631847274  0.4952265118145154  0.8999429151903429  1.0000
  C   C74       1.0  0.5591890549513476  0.4755930205851762  0.9068548621817341  1.0000
  C   C75       1.0  0.5303936122867385  0.47691974759680456  0.8752036521008746  1.0000
  C   C76       1.0  0.5353576982952959  0.49809324252524684  0.8369896996876038  1.0000
  C   C77       1.0  0.5681992676949736  0.5192390279756486  0.8314478665534741  1.0000
  C   C78       1.0  0.5967457870409871  0.5179159020247303  0.8630458795285545  1.0000
  H   H49       1.0  0.5560854077417353  0.45786478313646706  0.9354229241727393  1.0000
  H   H50       1.0  0.5051361362489153  0.4603630135926243  0.8797641825567981  1.0000
  H   H51       1.0  0.5725020501588124  0.5351220565506704  0.8017486474800087  1.0000
  H   H52       1.0  0.6222752185366184  0.5336531506729969  0.8582141343063678  1.0000
  C   C79       1.0  0.045925194895677146  0.19588655746893385  0.3508850036500879  1.0000
  C   C80       1.0  0.014545732898921138  0.17532988490211723  0.33655871447564667  1.0000
  C   C81       1.0  0.9817258931976393  0.1734182600856238  0.3620113325316657  1.0000
  C   C82       1.0  0.9805960905103343  0.1913487655021253  0.4023116382304271  1.0000
  C   C83       1.0  0.012462597434782952  0.21084157394261574  0.41735862608901403  1.0000
  C   C84       1.0  0.044923505737205716  0.2135558781274826  0.3913985962635177  1.0000
  H   H53       1.0  0.01531619862877931  0.1614626325482621  0.3053518639811466  1.0000
  H   H54       1.0  0.9573640979025272  0.15797096152611115  0.3504530543129517  1.0000
  H   H55       1.0  0.011644897824503175  0.22492130047226966  0.4484660962822744  1.0000
  H   H56       1.0  0.06901576393400588  0.22956107246304902  0.40266354070608085  1.0000
  C   C85       1.0  0.07923160031709808  0.3147748189792842  0.4940027937002165  1.0000
  C   C86       1.0  0.05378693921216127  0.326166956727119  0.461509709810958  1.0000
  C   C87       1.0  0.01526590204593159  0.3296253875697382  0.4711205210245311  1.0000
  C   C88       1.0  0.002048512695428384  0.3209540277925158  0.5129111120692931  1.0000
  C   C89       1.0  0.027519864930271698  0.3095474953415957  0.5453956150899091  1.0000
  C   C90       1.0  0.06613437092576291  0.30671306811276366  0.5360181820404798  1.0000
  H   H57       1.0  0.06396028882593914  0.3335076529377346  0.4294422073588576  1.0000
  H   H58       1.0  0.9959229864921418  0.33988529892803554  0.44655864519933436  1.0000
  H   H59       1.0  0.017580638030898488  0.30296488216111817  0.577782329826001  1.0000
  H   H60       1.0  0.08581276252646419  0.2980694819148532  0.5612521933804961  1.0000
  C   C91       1.0  0.2712833355433662  0.205898909392319  0.35768961970456165  1.0000
  C   C92       1.0  0.24051434700305502  0.18245074675532819  0.34883383887791175  1.0000
  C   C93       1.0  0.2467336541715537  0.14571326108310748  0.3353207500942758  1.0000
  C   C94       1.0  0.28363249797735735  0.13252339448088096  0.33013365256942123  1.0000
  C   C95       1.0  0.31431776074103923  0.1562032678149118  0.3384342687064236  1.0000
  C   C96       1.0  0.3081579724792257  0.19272760655247403  0.3527142068875067  1.0000
  H   H61       1.0  0.2120332374559093  0.1926528905822263  0.35243703339785437  1.0000
  H   H62       1.0  0.22307280440194266  0.127914554387442  0.32797034043803963  1.0000
  H   H63       1.0  0.34288138097678184  0.14614770236789423  0.33435244928778757  1.0000
  H   H64       1.0  0.331975029752053  0.21087242228027397  0.35945416093498267  1.0000
  C   C97       1.0  0.29707799237469373  0.6145988074840899  0.19970021378774744  1.0000
  C   C98       1.0  0.28170721760375533  0.6198052901899294  0.15803462390321388  1.0000
  C   C99       1.0  0.28136338003005457  0.6554203656373746  0.13898673152654883  1.0000
  C   C100      1.0  0.29726412556022  0.6856770738226555  0.16107136884625234  1.0000
  C   C101      1.0  0.3126925636944154  0.6805317558005712  0.20279888604761068  1.0000
  C   C102      1.0  0.3121388067276692  0.6450123523462883  0.22239258386712407  1.0000
  H   H65       1.0  0.2695786723267961  0.5964782680189648  0.14061964570478022  1.0000
  H   H66       1.0  0.26920184562260985  0.6594497662317276  0.10687312360915012  1.0000
  H   H67       1.0  0.3244361626545249  0.7040236463998315  0.22022214520271113  1.0000
  H   H68       1.0  0.3239488699129541  0.6410416847112085  0.25471223869501336  1.0000
  C   C103      1.0  0.26191500394843825  0.3818864750111974  0.19496527881060915  1.0000
  C   C104      1.0  0.2591354800084261  0.35682264190764645  0.23008144564751273  1.0000
  C   C105      1.0  0.22465223336744017  0.3521403152034985  0.2519759619882025  1.0000
  C   C106      1.0  0.19274595896086782  0.3722053980778772  0.23844511085691003  1.0000
  C   C107      1.0  0.19530047401168607  0.39652995758085563  0.20262374816911238  1.0000
  C   C108      1.0  0.22981468497777027  0.40134246922850314  0.18090730691955442  1.0000
  H   H69       1.0  0.28388769808832925  0.34172438402167465  0.2411412710811156  1.0000
  H   H70       1.0  0.22308118760121248  0.3336369210503601  0.27992909683472866  1.0000
  H   H71       1.0  0.17061690571274588  0.41189766185129983  0.1918958955690193  1.0000
  H   H72       1.0  0.23143335588872133  0.41982013272407626  0.1530095686569311  1.0000
  C   C109      1.0  0.4634303573088165  0.479452313047417  0.11408222181689791  1.0000
  C   C110      1.0  0.45370927513073706  0.4619204196256467  0.15337612018725608  1.0000
  C   C111      1.0  0.4785250594436836  0.4364695649407812  0.17322271390018296  1.0000
  C   C112      1.0  0.5130850251407697  0.42809481814710376  0.15367204526782094  1.0000
  C   C113      1.0  0.5229772157550376  0.44583108003991745  0.11452057343913696  1.0000
  C   C114      1.0  0.4983571872713759  0.4717446199236932  0.0949551250318832  1.0000
  H   H73       1.0  0.42714392759470743  0.46783811061181113  0.16864268501874224  1.0000
  H   H74       1.0  0.4707751042699874  0.42297962487638635  0.20360403975496683  1.0000
  H   H75       1.0  0.5493010812549963  0.4393104581165445  0.09890781715720263  1.0000
  H   H76       1.0  0.5059690277502722  0.484897901085102  0.0643249217668752  1.0000
  C   C115      1.0  0.9875744950577282  0.8650297488894414  0.6846663230868637  1.0000
  C   C116      1.0  0.9745232541709227  0.8993520420247116  0.668539998893979  1.0000
  C   C117      1.0  0.9354870417466636  0.9052223458272154  0.6629535779955309  1.0000
  C   C118      1.0  0.9098889959883035  0.8763008814911966  0.6721548949662878  1.0000
  C   C119      1.0  0.923177928912265  0.8418354961400283  0.6871666857799229  1.0000
  C   C120      1.0  0.9618712555225181  0.8364223239240988  0.6941424261448581  1.0000
  H   H77       1.0  0.994384339544751  0.9216445883375102  0.6616588328475158  1.0000
  H   H78       1.0  0.9252757801688126  0.9319860007387825  0.6515373426583574  1.0000
  H   H79       1.0  0.9034183872519335  0.819463710573186  0.6941499177517874  1.0000
  H   H80       1.0  0.9718837976831666  0.8099250689562303  0.7066539772184363  1.0000
  C   C121      1.0  0.1029626396764859  0.048640238999515084  0.6207180433407885  1.0000
  C   C122      1.0  0.10164569171569071  0.03966319614549674  0.6651070177066295  1.0000
  C   C123      1.0  0.11703814355220685  0.06423590743282537  0.6958697724901401  1.0000
  C   C124      1.0  0.13445342853564246  0.09739228181409731  0.6821598772134675  1.0000
  C   C125      1.0  0.13463543387472066  0.10697124540562619  0.6378800784639107  1.0000
  C   C126      1.0  0.11830956027008965  0.0828603525618059  0.6072730324034558  1.0000
  H   H81       1.0  0.08874133144285383  0.013789355160848338  0.6757821858878809  1.0000
  H   H82       1.0  0.11635785972521566  0.05703008956646083  0.7302187964329109  1.0000
  H   H83       1.0  0.1475395101117425  0.1327552096388689  0.6271533843514822  1.0000
  H   H84       1.0  0.11882379965112974  0.0901048208697921  0.5730605392843091  1.0000
  C   C127      1.0  0.3558645126005038  0.5815450059669376  0.811291630682585  1.0000
  C   C128      1.0  0.3200298207494662  0.57063624109243  0.8261315242153839  1.0000
  C   C129      1.0  0.3097168258256251  0.532664408603432  0.8267263844400393  1.0000
  C   C130      1.0  0.33550391358502835  0.5056097954804325  0.8132101546654571  1.0000
  C   C131      1.0  0.37118533402962356  0.5167377124812201  0.7985029128291029  1.0000
  C   C132      1.0  0.3812667080728183  0.5544580647391777  0.7973528606477996  1.0000
  H   H85       1.0  0.30048597691842244  0.5912097116913313  0.8378794488983572  1.0000
  H   H86       1.0  0.2821640107510342  0.5242702529664433  0.8385660211238335  1.0000
  H   H87       1.0  0.3912156192205975  0.4963602829614948  0.7876318179506495  1.0000
  H   H88       1.0  0.408862542793206  0.5624629474837517  0.7854842932735452  1.0000
  C   C133      1.0  0.24388084519780096  0.6332331799795755  0.9679302762439851  1.0000
  C   C134      1.0  0.24592460667720076  0.623930846232143  0.012325253992401919  1.0000
  C   C135      1.0  0.2524423838298875  0.586875008976646  0.025455275718539117  1.0000
  C   C136      1.0  0.2554989996600566  0.5589069355457982  0.9941326491621847  1.0000
  C   C137      1.0  0.2531039606248751  0.5681688668501849  0.94975011870512  1.0000
  C   C138      1.0  0.24801832215098532  0.6053891845806588  0.9366493863196436  1.0000
  H   H89       1.0  0.24243621028280615  0.6454107266221406  0.03650217608294026  1.0000
  H   H90       1.0  0.2539834739512108  0.579823440174997  0.05976844680762916  1.0000
  H   H91       1.0  0.2551974979517943  0.5465901810124542  0.9254235760313079  1.0000
  H   H92       1.0  0.24610891125589104  0.6123196789720562  0.9023593930238847  1.0000
  C   C139      1.0  0.22473816379173947  0.7742750704689488  0.7149213443031813  1.0000
  C   C140      1.0  0.23231237776551242  0.8028862794610861  0.7444980728394746  1.0000
  C   C141      1.0  0.22963133514314016  0.8403421539059346  0.7310963710217461  1.0000
  C   C142      1.0  0.21869926602684844  0.8492200314428973  0.6883123253501  1.0000
  C   C143      1.0  0.21135690077869476  0.8206135675332741  0.6586528404702853  1.0000
  C   C144      1.0  0.2144116827099956  0.7831917658725147  0.6719377016309757  1.0000
  H   H93       1.0  0.2397709607985059  0.7962013011483876  0.7778745362635787  1.0000
  H   H94       1.0  0.23504503782119  0.8624131449570829  0.7542222281485923  1.0000
  H   H95       1.0  0.20338683007408703  0.8273237269416599  0.625380097008548  1.0000
  H   H96       1.0  0.2085740574153988  0.7611302263824061  0.6489164895936428  1.0000
  C   C145      1.0  0.38735878856455236  0.8094050668958451  0.849370205988099  1.0000
  C   C146      1.0  0.40409870306050927  0.7794173447283348  0.8279550777811815  1.0000
  C   C147      1.0  0.435983921094899  0.785409702945101  0.8018587503230529  1.0000
  C   C148      1.0  0.45073207584770897  0.8214444487138969  0.7967691464922807  1.0000
  C   C149      1.0  0.43467498786897535  0.8512202747642243  0.8191654622852673  1.0000
  C   C150      1.0  0.4030570292659782  0.8451610194455413  0.8456650155244353  1.0000
  H   H97       1.0  0.39238063595937683  0.7516573575686378  0.8313357714832772  1.0000
  H   H98       1.0  0.44894099761326667  0.7622718913487796  0.7852208467822317  1.0000
  H   H99       1.0  0.44662438693368034  0.8789539918996835  0.8159603812308814  1.0000
  H   H100      1.0  0.3901882392726645  0.8683447986639974  0.8623422592697118  1.0000
  C   C151      1.0  0.0555028210173692  0.930581215271334  0.2946014421792514  1.0000
  C   C152      1.0  0.032782397287505205  0.9596379411344392  0.3097770915742425  1.0000
  C   C153      1.0  0.047315719087741126  0.9960228675881393  0.31266954140819136  1.0000
  C   C154      1.0  0.08494083030151464  0.003094255666419299  0.30153937969876365  1.0000
  C   C155      1.0  0.10741955669354614  0.9742527497164869  0.2857568988201036  1.0000
  C   C156      1.0  0.09260633086488236  0.9382058288379345  0.28179605485058645  1.0000
  H   H101      1.0  0.004463761801155375  0.9540568425710693  0.32063683297256723  1.0000
  H   H102      1.0  0.02997890289050953  0.01819548330144949  0.32539402708436366  1.0000
  H   H103      1.0  0.1365209028751954  0.9795230075046469  0.2769797690017989  1.0000
  H   H104      1.0  0.11034729580954929  0.9161814206572566  0.2697150362433104  1.0000
  C   C157      1.0  0.06681700300626825  0.8322270540724028  0.4842626787995761  1.0000
  C   C158      1.0  0.05717156641830301  0.8228153086417372  0.4415303016641673  1.0000
  C   C159      1.0  0.02139333406937549  0.8081432445143331  0.43211459646262734  1.0000
  C   C160      1.0  0.9950073577918241  0.8030012396380369  0.46541703609283575  1.0000
  C   C161      1.0  0.005266257504543903  0.8105679971967037  0.5086543158877488  1.0000
  C   C162      1.0  0.04117476558284339  0.8254505806758629  0.5180640330255959  1.0000
  H   H105      1.0  0.07654792669396106  0.8286496741185665  0.41537237249739883  1.0000
  H   H106      1.0  0.01343982918911979  0.8026443182587009  0.39861751049127936  1.0000
  H   H107      1.0  0.9850419464403141  0.8066301184453536  0.5345587942165692  1.0000
  H   H108      1.0  0.04868661233519278  0.8323353874637526  0.5512800413854707  1.0000
  C   C163      1.0  0.9064814905130709  0.003811391427892552  0.39096548361948646  1.0000
  C   C164      1.0  0.8756734726063615  0.989864951940112  0.36729246079014716  1.0000
  C   C165      1.0  0.8551207691779914  0.01351548734510799  0.3395079189682332  1.0000
  C   C166      1.0  0.8660290795455909  0.0508461825627371  0.33458125566948926  1.0000
  C   C167      1.0  0.8972530349099714  0.06460386179755462  0.35776940612435165  1.0000
  C   C168      1.0  0.9172630211715587  0.04117859108249422  0.38636994998208446  1.0000
  H   H109      1.0  0.8672509548112395  0.9609502386316374  0.37092346950795263  1.0000
  H   H110      1.0  0.8305494794467183  0.0029763108689715434  0.322333654305053  1.0000
  H   H111      1.0  0.9062539294922023  0.09325252313281829  0.353228495379857  1.0000
  H   H112      1.0  0.9415986077100048  0.05175111871225613  0.4039318141274303  1.0000
  C   C169      1.0  0.7028513241760178  0.4916473909726901  0.1557275893161056  1.0000
  C   C170      1.0  0.6636701579595184  0.49477301186522543  0.16036525425418977  1.0000
  C   C171      1.0  0.647224361256427  0.5299667181162595  0.16562793438893536  1.0000
  C   C172      1.0  0.6700031222575298  0.5619610721038827  0.1666282530587954  1.0000
  C   C173      1.0  0.7093473271983972  0.5584494729921917  0.1652934516660764  1.0000
  C   C174      1.0  0.7257662425767429  0.5233694935797241  0.15926978295376673  1.0000
  H   H113      1.0  0.6459071101745522  0.4702324871574941  0.15920437241038177  1.0000
  H   H114      1.0  0.6167850966448594  0.5324675386660404  0.16748027113312255  1.0000
  H   H115      1.0  0.7271485294988269  0.5827981161798386  0.1680187726328325  1.0000
  H   H116      1.0  0.7561662276215675  0.520949807047349  0.15673497905777917  1.0000
  C   C175      1.0  0.7702199501192301  0.6447978760989623  0.9890109049120274  1.0000
  C   C176      1.0  0.7705622833134501  0.6339006042470183  0.9453757319002439  1.0000
  C   C177      1.0  0.7861876916638741  0.5996172045777886  0.9337705712431523  1.0000
  C   C178      1.0  0.8005623203112199  0.5755822620518303  0.9658754270108031  1.0000
  C   C179      1.0  0.8022782455875773  0.5872608924660876  0.009246047076755026  1.0000
  C   C180      1.0  0.7872766617180688  0.6220225064451786  0.020728823620883574  1.0000
  H   H117      1.0  0.757442879828076  0.6511924858486817  0.9206814255758532  1.0000
  H   H118      1.0  0.7857284423875172  0.5911061762220832  0.9000061943854921  1.0000
  H   H119      1.0  0.8137424124440575  0.568947745858582  0.034192105731858824  1.0000
  H   H120      1.0  0.7886721174429832  0.6309042573382224  0.054131162069133154  1.0000
  C   C181      1.0  0.8406191245355521  0.8224444462795404  0.2539920351457617  1.0000
  C   C182      1.0  0.8503855802311873  0.7922213076253238  0.2808078961123522  1.0000
  C   C183      1.0  0.8399054432554761  0.7558913960033781  0.26888552257202153  1.0000
  C   C184      1.0  0.8195251690644673  0.7497598629729645  0.23029047117803644  1.0000
  C   C185      1.0  0.8104453662630694  0.7799794949890678  0.2031245045352033  1.0000
  C   C186      1.0  0.8210415859892767  0.8162820941862123  0.21493783184227103  1.0000
  H   H121      1.0  0.8654473002120618  0.7968133385125235  0.31109075877897796  1.0000
  H   H122      1.0  0.8470940724639167  0.7325522114876266  0.2899261919377148  1.0000
  H   H123      1.0  0.7955256338294726  0.7754159204469068  0.17291779154995138  1.0000
  H   H124      1.0  0.8141466411556129  0.8395840935840386  0.19375168760351016  1.0000
  C   C187      1.0  0.6012574752628076  0.7673449066898599  0.1504729169767645  1.0000
  C   C188      1.0  0.5962931503526688  0.730085572471804  0.1632231566814487  1.0000
  C   C189      1.0  0.5598505044932367  0.7157042573449008  0.16980651581408324  1.0000
  C   C190      1.0  0.5282270448507999  0.7384611603663789  0.16344771060704708  1.0000
  C   C191      1.0  0.5332778627932258  0.7756179884903884  0.15028969257629632  1.0000
  C   C192      1.0  0.569738457639226  0.7901707450667623  0.14421401231289804  1.0000
  H   H125      1.0  0.6203972806630381  0.7121223620369491  0.1679821981018787  1.0000
  H   H126      1.0  0.5562358494563525  0.6868564965135723  0.1797219155207116  1.0000
  H   H127      1.0  0.5092677586938721  0.7930656517215872  0.14393961255375345  1.0000
  H   H128      1.0  0.5734171394519901  0.8188827235178487  0.13379045537692566  1.0000
  N   N1        1.0  0.397260164506608  0.9424651500823036  0.15191201822451172  1.0000
  C   C193      1.0  0.40289304347901983  0.9222219295605709  0.11063857200893934  1.0000
  C   C194      1.0  0.3608304224760445  0.9310087633872491  0.17144681747857904  1.0000
  C   C195      1.0  0.39682999726753376  0.9830692490525249  0.14317569198012436  1.0000
  C   C196      1.0  0.4285043461514905  0.9334964483815611  0.18244396636867477  1.0000
  H   H129      1.0  0.40336855322120835  0.8915375603607856  0.11626426842933602  1.0000
  H   H130      1.0  0.43016827066089475  0.9298695978089891  0.09487177683900594  1.0000
  H   H131      1.0  0.37981574704254584  0.9278760200728139  0.08667095533741631  1.0000
  H   H132      1.0  0.3600427668736147  0.9004913472997692  0.17804167369712887  1.0000
  H   H133      1.0  0.3559796145007586  0.9449741140909793  0.20325791041492858  1.0000
  H   H134      1.0  0.33651140880500013  0.9375943484130651  0.14958689759035515  1.0000
  H   H135      1.0  0.3926869761381345  0.9990554123003915  0.1737921698614091  1.0000
  H   H136      1.0  0.3735369152769903  0.990773216315848  0.12027848711082312  1.0000
  H   H137      1.0  0.42386341674592026  0.9926816498584802  0.12830413823338938  1.0000
  H   H138      1.0  0.42415186734012483  0.9464574061006695  0.21492827659285463  1.0000
  H   H139      1.0  0.4562944720101152  0.9430849160121806  0.1696297413881891  1.0000
  H   H140      1.0  0.4306738317164156  0.9028907657655489  0.1882059582911746  1.0000
  N   N2        1.0  0.8399815123183334  0.22814832656206568  0.5400139492019299  1.0000
  C   C197      1.0  0.8162081945129652  0.2529021759482732  0.5126340096450501  1.0000
  C   C198      1.0  0.8157112251547625  0.20672704129861386  0.5704074524877399  1.0000
  C   C199      1.0  0.8671332337351282  0.25100718455558324  0.5650128095865264  1.0000
  C   C200      1.0  0.861063343518483  0.202107160628186  0.5122018124234035  1.0000
  H   H141      1.0  0.8336395487112283  0.26975642028029284  0.48960578230053214  1.0000
  H   H142      1.0  0.7997690649209632  0.2726001944676564  0.5329512996397037  1.0000
  H   H143      1.0  0.795479496909271  0.2366551938973653  0.49292527205324166  1.0000
  H   H144      1.0  0.8008453450183324  0.22541957590733544  0.5935038538926964  1.0000
  H   H145      1.0  0.7937804261409449  0.19041549417526243  0.5526225197325807  1.0000
  H   H146      1.0  0.8325252314823584  0.18677901042126022  0.5904608198628605  1.0000
  H   H147      1.0  0.8858850759693928  0.2678164049474237  0.5432401946572006  1.0000
  H   H148      1.0  0.885517522836101  0.2332502031917691  0.5860623991220587  1.0000
  H   H149      1.0  0.8520703582142418  0.2706068986678526  0.58674576130994  1.0000
  H   H150      1.0  0.8795897717817629  0.1835178298874936  0.532022768671857  1.0000
  H   H151      1.0  0.8795975050964465  0.21747060782890737  0.48893713915383313  1.0000
  H   H152      1.0  0.8415492463081283  0.18414928167052966  0.4929559439743795  1.0000
  N   N3        1.0  0.9386654710942821  0.29953352579326586  0.36333158120564807  1.0000
  C   C201      1.0  0.9505603749909612  0.2666113135198343  0.338229407019407  1.0000
  C   C202      1.0  0.9658185939665124  0.33037345683591374  0.35591172684525374  1.0000
  C   C203      1.0  0.9377816884626825  0.28992003978626824  0.41030295714636267  1.0000
  C   C204      1.0  0.90048131481303  0.3111167548529645  0.34889533891891056  1.0000
  H   H153      1.0  0.9799529855918847  0.25815378661270166  0.34680937831576264  1.0000
  H   H154      1.0  0.9496673286876818  0.27216445698857095  0.30247322576164676  1.0000
  H   H155      1.0  0.931869974820818  0.24223430893856748  0.34489372973010557  1.0000
  H   H156      1.0  0.9949292257237516  0.3223776500143569  0.3664514370410667  1.0000
  H   H157      1.0  0.9671545961325141  0.3383130102381061  0.3207718137038732  1.0000
  H   H158      1.0  0.9578424434871557  0.3556849042188003  0.37451704037565653  1.0000
  H   H159      1.0  0.9302115252853115  0.31441247351676677  0.43054771403394126  1.0000
  H   H160      1.0  0.9656754619128904  0.2795150466265872  0.4220996744790318  1.0000
  H   H161      1.0  0.9167191952061642  0.2675910245736615  0.41727777005260575  1.0000
  H   H162      1.0  0.8996625569107414  0.31806489986712033  0.3134264273823124  1.0000
  H   H163      1.0  0.8905373594555527  0.33598324396874896  0.36697303947480087  1.0000
  H   H164      1.0  0.8793622497133549  0.28844004745206103  0.3541959915653503  1.0000
  N   N4        1.0  0.8917607354879407  0.9888420317687174  0.21392726702587844  1.0000
  C   C205      1.0  0.9212834880886166  0.0009792983961089963  0.24516925949705107  1.0000
  C   C206      1.0  0.8778193689362113  0.9513696769331608  0.22655451060460036  1.0000
  C   C207      1.0  0.9079549178181203  0.9874450561625532  0.1696466946301235  1.0000
  C   C208      1.0  0.8599486080405724  0.015485418418076824  0.21430292996577774  1.0000
  H   H165      1.0  0.9315799726924754  0.02968276521464519  0.23759265450700953  1.0000
  H   H166      1.0  0.9460817462623633  0.98191943694081  0.24503368058933106  1.0000
  H   H167      1.0  0.910382759793212  0.0013326017927792755  0.2790857606789442  1.0000
  H   H168      1.0  0.8549387550461597  0.9414357297182262  0.20438976839766348  1.0000
  H   H169      1.0  0.9007429294844731  0.9301691649530375  0.22586515790527464  1.0000
  H   H170      1.0  0.8660702593060434  0.9511574150918418  0.26022297454756854  1.0000
  H   H171      1.0  0.886536377113405  0.9780331425770526  0.14529905185233544  1.0000
  H   H172      1.0  0.9321183415615701  0.9676360250806689  0.16831297866224082  1.0000
  H   H173      1.0  0.9184813178132154  0.015375713881197406  0.15902068791706153  1.0000
  H   H174      1.0  0.8379984306954562  0.008294243765628595  0.18959975971234433  1.0000
  H   H175      1.0  0.8695550918066933  0.04463111438024936  0.20780005946488841  1.0000
  H   H176      1.0  0.8457094031515011  0.015598817140899612  0.24651067975738344  1.0000
  N   N5        1.0  0.15419808667735269  0.13522529784803144  0.23982827224909714  1.0000
  C   C209      1.0  0.11338482568422581  0.1291217789771692  0.24756033391030197  1.0000
  C   C210      1.0  0.16077021804313518  0.14127005505230592  0.1927514298946695  1.0000
  C   C211      1.0  0.17548708294659776  0.10211978731423413  0.2548833026893729  1.0000
  C   C212      1.0  0.16712943118650436  0.1683763142426148  0.2641817850402521  1.0000
  H   H177      1.0  0.10741518151684848  0.12506875337651846  0.2829281417787737  1.0000
  H   H178      1.0  0.10273115954946221  0.10378287556538693  0.23062101433555207  1.0000
  H   H179      1.0  0.0962775553848898  0.15344579663726587  0.23641179218864025  1.0000
  H   H180      1.0  0.19135465001989838  0.14587096225700397  0.18591700011455597  1.0000
  H   H181      1.0  0.1512292368067747  0.11679054846342993  0.17339486172575394  1.0000
  H   H182      1.0  0.1451715387830681  0.16618671354231332  0.1804272981348304  1.0000
  H   H183      1.0  0.16645949158805395  0.0765538470011618  0.23716775402456355  1.0000
  H   H184      1.0  0.17057412342127742  0.09658254027512836  0.29011025423325004  1.0000
  H   H185      1.0  0.2065523620383205  0.10572007335155084  0.25026037079871577  1.0000
  H   H186      1.0  0.15148013701195073  0.19384470062807047  0.2536831491105246  1.0000
  H   H187      1.0  0.19787608130346523  0.17384482538260465  0.2594064952676175  1.0000
  H   H188      1.0  0.162277125885113  0.16487720052028143  0.2998082839837275  1.0000
  N   N6        1.0  0.5800620035483466  0.7440760058245022  0.012632576974378251  1.0000
  C   C213      1.0  0.5481370481535129  0.7560270536388487  0.9846248025238741  1.0000
  C   C214      1.0  0.6006094720503584  0.7773104137617328  0.028656514052811888  1.0000
  C   C215      1.0  0.6060537229425432  0.7206639194224047  0.9871179730435797  1.0000
  C   C216      1.0  0.5653809515267667  0.7223951155007998  0.05010183246028954  1.0000
  H   H189      1.0  0.532528640599725  0.7318008441036934  0.970817845130007  1.0000
  H   H190      1.0  0.558212460588225  0.7733385673516529  0.956798343042812  1.0000
  H   H191      1.0  0.5276443183834418  0.7733539989270377  0.0029641645476485845  1.0000
  H   H192      1.0  0.6246911244300841  0.7694737089633592  0.05032397156912238  1.0000
  H   H193      1.0  0.6122004132356345  0.7943578660224702  0.0012716833711960973  1.0000
  H   H194      1.0  0.5817470200304159  0.7959172600503097  0.0475623526275708  1.0000
  H   H195      1.0  0.6306848628820293  0.7114356003661567  0.0071402994413014564  1.0000
  H   H196      1.0  0.6172872157263066  0.7362055679415367  0.9584161191829745  1.0000
  H   H197      1.0  0.5914734518345165  0.6953880414198084  0.9743460279924031  1.0000
  H   H198      1.0  0.5453688699945934  0.7392673530538916  0.06962890842441483  1.0000
  H   H199      1.0  0.5886148175077394  0.7134784845826065  0.07242715443932202  1.0000
  H   H200      1.0  0.5499718549376722  0.6969531460146249  0.03935092636626125  1.0000
  N   N7        1.0  0.14403146481316964  0.8295538242940856  0.32944957800711266  1.0000
  C   C217      1.0  0.14295951661451783  0.8401892227819834  0.28277118046143007  1.0000
  C   C218      1.0  0.13570171041886775  0.8625670768390629  0.35631604527857386  1.0000
  C   C219      1.0  0.18200103841098936  0.8152226970378539  0.3408716923223508  1.0000
  C   C220      1.0  0.11535194831066291  0.8002527977607335  0.3377826507055251  1.0000
  H   H201      1.0  0.11423783997254644  0.849784385116779  0.272780385471726  1.0000
  H   H202      1.0  0.15048297236804525  0.8163459262865969  0.2615516047114075  1.0000
  H   H203      1.0  0.16323118540490664  0.863276114392302  0.27554073864508805  1.0000
  H   H204      1.0  0.1563449509982628  0.8855225808686101  0.3501306370897209  1.0000
  H   H205      1.0  0.10704481848656107  0.8737141914678059  0.3488728279473532  1.0000
  H   H206      1.0  0.1370401854736459  0.8557884465898308  0.391817288191551  1.0000
  H   H207      1.0  0.1839046745802591  0.8073318892822827  0.37600489458508574  1.0000
  H   H208      1.0  0.20429144937050947  0.8366325316590568  0.33472687326756045  1.0000
  H   H209      1.0  0.18928394803071574  0.7902842228219101  0.3212948649824569  1.0000
  H   H210      1.0  0.11618797754042891  0.7905764595099914  0.3723641315801388  1.0000
  H   H211      1.0  0.1199582422998336  0.7754641630104522  0.316878246525437  1.0000
  H   H212      1.0  0.08621409360024873  0.8106974575284187  0.3308467375383107  1.0000
  N   N8        1.0  0.239151695819239  0.27929032641143325  0.5138710400001396  1.0000
  C   C221      1.0  0.22118179406631389  0.29207255372931995  0.554494357894897  1.0000
  C   C222      1.0  0.2183268296353007  0.24653642480075147  0.4971140076826253  1.0000
  C   C223      1.0  0.2788761818291219  0.2688846060550585  0.5227658984860803  1.0000
  C   C224      1.0  0.23811028838079373  0.3096065134811143  0.4809625614164752  1.0000
  H   H213      1.0  0.23614456000411588  0.3165947917491776  0.5685094321686587  1.0000
  H   H214      1.0  0.2211042075683718  0.2697284782170162  0.5798654952242678  1.0000
  H   H215      1.0  0.1911583963590151  0.30033107506454465  0.5488737199957288  1.0000
  H   H216      1.0  0.2310959060398925  0.23616383632327062  0.46635384680363484  1.0000
  H   H217      1.0  0.21870175064307906  0.22311516262942999  0.521117776033943  1.0000
  H   H218      1.0  0.18821719655708646  0.25351025743887096  0.49039961777139973  1.0000
  H   H219      1.0  0.2926633829661902  0.2576185634328853  0.4930403290303152  1.0000
  H   H220      1.0  0.28080236690216487  0.24689782736935384  0.5484796821226031  1.0000
  H   H221      1.0  0.29580788719477535  0.2931686261497582  0.5341446843128225  1.0000
  H   H222      1.0  0.2510134959179928  0.3006767408501325  0.4496752900823449  1.0000
  H   H223      1.0  0.2537135673355744  0.3347231960596821  0.49236115012904735  1.0000
  H   H224      1.0  0.20853446673382847  0.31829698696633796  0.4737937828370432  1.0000
  N   N9        1.0  0.34732887748077296  0.8248887106315522  0.7079508064574267  1.0000
  C   C225      1.0  0.3658289871362028  0.7881845165039535  0.7037416962802712  1.0000
  C   C226      1.0  0.3284866786756916  0.8269750664642194  0.7507259458570861  1.0000
  C   C227      1.0  0.3188448576448001  0.8294922192967472  0.6728489901845576  1.0000
  C   C228      1.0  0.3761401569469828  0.8547925939133177  0.7047049452026632  1.0000
  H   H225      1.0  0.34481898264232813  0.7649631908938292  0.7052052138681882  1.0000
  H   H226      1.0  0.3867240429060502  0.78341044484237  0.73047456431968  1.0000
  H   H227      1.0  0.3812107419592901  0.7859390325104224  0.6723243360879628  1.0000
  H   H228      1.0  0.30867798038368083  0.8032203547880582  0.7558012661722755  1.0000
  H   H229      1.0  0.3492971660953445  0.8259516325211965  0.7778334991542633  1.0000
  H   H230      1.0  0.3122367990979785  0.853284989471001  0.754230603225618  1.0000
  H   H231      1.0  0.3039609454172295  0.8567415024591692  0.6752362642774599  1.0000
  H   H232      1.0  0.2968040934214508  0.8072224099338262  0.6745819368122996  1.0000
  H   H233      1.0  0.33195698189852413  0.8281419449618928  0.6400058495925527  1.0000
  H   H234      1.0  0.3633072059992429  0.8828499383725034  0.7086743172512836  1.0000
  H   H235      1.0  0.3907888795974006  0.854361919130082  0.6726882519160915  1.0000
  H   H236      1.0  0.39835384544793695  0.8516262709418233  0.7304483430865927  1.0000
  N   N10       1.0  0.004919858531253096  0.37552234614952945  0.8011587314199246  1.0000
  C   C229      1.0  0.010574560728973559  0.3769488848123821  0.7534976111356569  1.0000
  C   C230      1.0  0.031854892441738336  0.4012943009255816  0.8224876988910933  1.0000
  C   C231      1.0  0.011471215830962  0.33703414818809563  0.8171308104395679  1.0000
  C   C232      1.0  0.9657296419005741  0.386718151296862  0.8112200906297118  1.0000
  H   H237      1.0  0.991055843478232  0.3573458881656176  0.7368965681115429  1.0000
  H   H238      1.0  0.03983021637146544  0.36877725713978554  0.7443601195946647  1.0000
  H   H239      1.0  0.004835080602501707  0.40525999344745334  0.739780976064296  1.0000
  H   H240      1.0  0.028340499982335565  0.40106539589381723  0.8585427924539528  1.0000
  H   H241      1.0  0.06166173102446093  0.39350786914798164  0.8154428317706717  1.0000
  H   H242      1.0  0.027717815544513247  0.4305147050699351  0.8107980154122532  1.0000
  H   H243      1.0  0.9912493170189911  0.3170050294350235  0.8018657016891554  1.0000
  H   H244      1.0  0.008073711252746696  0.334827011922111  0.8530957668197262  1.0000
  H   H245      1.0  0.040424123865009376  0.32725448668782176  0.8088569449355653  1.0000
  H   H246      1.0  0.9601748492052276  0.38581113240563597  0.8468719539291955  1.0000
  H   H247      1.0  0.9446915808750409  0.368066828437755  0.7950362485966238  1.0000
  H   H248      1.0  0.9596946337027177  0.41554785365051033  0.7992773169773006  1.0000
  N   N11       1.0  0.4235515608261193  0.6161587297982092  0.17504701989930968  1.0000
  C   C233      1.0  0.4033843501814357  0.6509986827472001  0.16358995482323238  1.0000
  C   C234      1.0  0.4565513677816822  0.6248323672534503  0.20306244594510656  1.0000
  C   C235      1.0  0.4366308661792908  0.5979550683083075  0.13480904233866745  1.0000
  C   C236      1.0  0.39768210304412  0.5907144564444183  0.1986723858078913  1.0000
  H   H249      1.0  0.37753221718585905  0.6453724321613662  0.14372300397404053  1.0000
  H   H250      1.0  0.42172115897555457  0.6704436954466246  0.14461354681477653  1.0000
  H   H251      1.0  0.39428717967023197  0.6661677680669226  0.19326260691560007  1.0000
  H   H252      1.0  0.44809989521536353  0.6405015441800231  0.2326376934692369  1.0000
  H   H253      1.0  0.4714193517949635  0.5990360823716314  0.21391022980589672  1.0000
  H   H254      1.0  0.4776036376657104  0.6424058688531497  0.18542505427610367  1.0000
  H   H255      1.0  0.4524044541415848  0.5718065874792447  0.14232666166764715  1.0000
  H   H256      1.0  0.4559015204927453  0.6165355679616502  0.1158859889948577  1.0000
  H   H257      1.0  0.41247900526913367  0.5903398233049049  0.1131546776269393  1.0000
  H   H258      1.0  0.41172105300330614  0.5639261972653177  0.20746043976856185  1.0000
  H   H259      1.0  0.3724453536420536  0.5837779591859628  0.17847931249359844  1.0000
  H   H260      1.0  0.38716512740679765  0.6035094208151291  0.22924438972086572  1.0000
  N   N12       1.0  0.10167803509229612  0.7684163426231034  0.7239154203440228  1.0000
  C   C237      1.0  0.06924235715580185  0.7672872352272929  0.7541014341903343  1.0000
  C   C238      1.0  0.08782269542103704  0.7667508551042829  0.6783631327716292  1.0000
  C   C239      1.0  0.12660759891925255  0.736160588156774  0.7325894138446389  1.0000
  C   C240      1.0  0.12314533038191722  0.8034249319796405  0.7305304432330609  1.0000
  H   H261      1.0  0.07882574839670231  0.7684064357540029  0.7887117795646279  1.0000
  H   H262      1.0  0.05214564667099597  0.741431685791434  0.749892078085101  1.0000
  H   H263      1.0  0.050004758433960905  0.7914427633484991  0.7483955229459621  1.0000
  H   H264      1.0  0.11161911378892553  0.7681670183527617  0.6547459818568329  1.0000
  H   H265      1.0  0.07179786771595986  0.7405446941029832  0.6721402750874012  1.0000
  H   H266      1.0  0.06866171507561103  0.7904135113452461  0.6705377046920625  1.0000
  H   H267      1.0  0.1499898763103511  0.7350446095243415  0.7085177997076221  1.0000
  H   H268      1.0  0.11095643314670367  0.7092561598453281  0.7304088851558729  1.0000
  H   H269      1.0  0.1399319572224771  0.737568630539582  0.7655524947942549  1.0000
  H   H270      1.0  0.10496404819683192  0.8283862283420659  0.7256760163173979  1.0000
  H   H271      1.0  0.14679710119519962  0.8060084767117923  0.7071410563762843  1.0000
  H   H272      1.0  0.13545265545644636  0.8049384031925374  0.763953067588011  1.0000
  N   N13       1.0  0.414147602580733  0.363502150984049  0.08476363179013523  1.0000
  C   C241      1.0  0.42100353625908293  0.3605042378029148  0.13227535286270353  1.0000
  C   C242      1.0  0.3737666130678323  0.3561648805507679  0.07531818168193802  1.0000
  C   C243      1.0  0.4378157789163782  0.3361072576375383  0.06174433717609486  1.0000
  C   C244      1.0  0.4241335614013248  0.40147061300497344  0.06967535436504538  1.0000
  H   H273      1.0  0.4513330850925427  0.36563014397066645  0.14045099829447527  1.0000
  H   H274      1.0  0.41328658521682743  0.33234901037351505  0.144999768194841  1.0000
  H   H275      1.0  0.4038969054659977  0.3812365966699226  0.1504856168368781  1.0000
  H   H276      1.0  0.3551696257941341  0.3761378976677863  0.09268034829862362  1.0000
  H   H277      1.0  0.36753687834954823  0.3588122425422393  0.03977522642998976  1.0000
  H   H278      1.0  0.36523704393904016  0.3276180058450286  0.08599518569886701  1.0000
  H   H279      1.0  0.4315420897234458  0.3070672694902108  0.07258895336021128  1.0000
  H   H280      1.0  0.4685264061760481  0.341469204067169  0.06742681935017032  1.0000
  H   H281      1.0  0.43308414848040394  0.33754188358803805  0.02580504668818429  1.0000
  H   H282      1.0  0.4073405911229939  0.42300407359944986  0.08666281695679158  1.0000
  H   H283      1.0  0.4192930864804845  0.40498262197682167  0.03398010574275979  1.0000
  H   H284      1.0  0.454422433109549  0.40766995053603744  0.07617571104563896  1.0000
  N   N14       1.0  0.8946356716472453  0.07514872528087355  0.5267253726745916  1.0000
  C   C245      1.0  0.9131661409265871  0.10454935213002019  0.5002392031505611  1.0000
  C   C246      1.0  0.9236081361580726  0.055831642422467284  0.5533961048329963  1.0000
  C   C247      1.0  0.8756568123424311  0.04806320209489421  0.4976829125970706  1.0000
  C   C248      1.0  0.8662108863090653  0.09217900930142704  0.5555343124180122  1.0000
  H   H285      1.0  0.9296309396372391  0.12426116976471985  0.5208749223037488  1.0000
  H   H286      1.0  0.8921344292022999  0.12131554015746143  0.4817653596615021  1.0000
  H   H287      1.0  0.9328867150597748  0.09245052532405287  0.47599832707709583  1.0000
  H   H288      1.0  0.9109174964428142  0.03339992952511661  0.5737764825849081  1.0000
  H   H289      1.0  0.9455753658423339  0.04277864232929633  0.5326824143326837  1.0000
  H   H290      1.0  0.937966341520483  0.07530810466084958  0.57632229715691  1.0000
  H   H291      1.0  0.8592288259733107  0.02685728217263295  0.5165227327518199  1.0000
  H   H292      1.0  0.8963723777991451  0.032741019239715945  0.4775029592255504  1.0000
  H   H293      1.0  0.8555259093590759  0.06210877279558978  0.47488708823207965  1.0000
  H   H294      1.0  0.8524515801662738  0.07079047321788194  0.576815827725281  1.0000
  H   H295      1.0  0.8433460500160512  0.10603918226865065  0.5363359191330935  1.0000
  H   H296      1.0  0.8792705613075256  0.11322850913601566  0.5774670764129254  1.0000
  N   N15       1.0  0.6716849347470336  0.5651740014323655  0.025424752158772938  1.0000
  C   C249      1.0  0.6851716012037811  0.594329618423432  0.05554899312059726  1.0000
  C   C250      1.0  0.7040286636866376  0.5420747364793492  0.012028507035144466  1.0000
  C   C251      1.0  0.6542589255821448  0.5831633887789918  0.9867337960512941  1.0000
  C   C252      1.0  0.6434576986581955  0.5411722851401154  0.04752529895206551  1.0000
  H   H297      1.0  0.7010400206564303  0.5820732913141794  0.08343069474516152  1.0000
  H   H298      1.0  0.6612107685847617  0.6103186310432965  0.06930238749211672  1.0000
  H   H299      1.0  0.7045739751319872  0.6144381659302788  0.03906230078200923  1.0000
  H   H300      1.0  0.6948451544459836  0.5198336603122519  0.9891325880514178  1.0000
  H   H301      1.0  0.7260576924171094  0.55929877855556  0.9956281245298708  1.0000
  H   H302      1.0  0.7176917520949508  0.5282633388546043  0.040685583545104764  1.0000
  H   H303      1.0  0.6749572987317645  0.6013161066728581  0.969221517360968  1.0000
  H   H304      1.0  0.6298437260443137  0.6007970282498767  0.9960516178554734  1.0000
  H   H305      1.0  0.6436512353757131  0.5621005215269526  0.9631390834352177  1.0000
  H   H306      1.0  0.6316777706818127  0.5196927022481832  0.02505835517716748  1.0000
  H   H307      1.0  0.6194210761557012  0.5577209986714132  0.06028325924520415  1.0000
  H   H308      1.0  0.6562500182644562  0.5260756978998566  0.07573052696882154  1.0000
  N   N16       1.0  0.8921619403694896  0.8711062068839295  0.5309858385931714  1.0000
  C   C253      1.0  0.8652417502175268  0.852719586391159  0.500956510678201  1.0000
  C   C254      1.0  0.923859338419311  0.8875919356561187  0.5060811026277837  1.0000
  C   C255      1.0  0.9069684699350922  0.843274029192042  0.5625153141751861  1.0000
  C   C256      1.0  0.8724629879478778  0.9009799867308886  0.5545336321862577  1.0000
  H   H309      1.0  0.8794346270304539  0.830865496872451  0.48135134599243107  1.0000
  H   H310      1.0  0.8522922698703356  0.8731680520861299  0.4778982712657224  1.0000
  H   H311      1.0  0.8418450142281896  0.8388852476412579  0.5191483269751852  1.0000
  H   H312      1.0  0.94431392770838  0.9020631128298777  0.5279458368310089  1.0000
  H   H313      1.0  0.9398300859799817  0.8658731958968547  0.488395999046864  1.0000
  H   H314      1.0  0.9136639829062996  0.9083207388930876  0.48152664028520414  1.0000
  H   H315      1.0  0.9292652085346751  0.8554896615161001  0.583910685768078  1.0000
  H   H316      1.0  0.9195324737630658  0.8189958692976899  0.5454985575237642  1.0000
  H   H317      1.0  0.8842403902539127  0.8324701665673823  0.5843078757407644  1.0000
  H   H318      1.0  0.8914626921226972  0.9139650472426416  0.5791756685965357  1.0000
  H   H319      1.0  0.8473213002363345  0.8899758201158943  0.5722463107373049  1.0000
  H   H320      1.0  0.8623638174376017  0.9233467335100145  0.5319481978559941  1.0000
  N   N17       1.0  0.2271265516504814  0.010960429059929888  0.6593295073266512  1.0000
  C   C257      1.0  0.26500038661615816  0.9962784335445066  0.6703900891882894  1.0000
  C   C258      1.0  0.20005702043631413  0.9998914551359472  0.6936854150844044  1.0000
  C   C259      1.0  0.2145963442560304  0.9955970512754724  0.6170074821749686  1.0000
  C   C260      1.0  0.22884766257255248  0.05208493510779855  0.6563219856779124  1.0000
  H   H321      1.0  0.28602140418001487  0.003902307081697476  0.6448851821198491  1.0000
  H   H322      1.0  0.2644951570510327  0.9652470925929151  0.673234882738659  1.0000
  H   H323      1.0  0.27540866183863755  0.007529344667529303  0.7020160686788133  1.0000
  H   H324      1.0  0.17099464416030957  0.009235364155941506  0.6854782246520832  1.0000
  H   H325      1.0  0.19879890579471776  0.969094589879407  0.6979378711776341  1.0000
  H   H326      1.0  0.20780402390634278  0.012139196653291995  0.7257740653746724  1.0000
  H   H327      1.0  0.2334165304868507  0.004670238014724104  0.5898580445719915  1.0000
  H   H328      1.0  0.18538679464099012  0.0047392446140808175  0.6084177108766552  1.0000
  H   H329      1.0  0.2145857474692939  0.9645559679707907  0.6176746772234244  1.0000
  H   H330      1.0  0.2009748386398991  0.06391864694559235  0.6468279925019061  1.0000
  H   H331      1.0  0.24981905726537929  0.06158970889432469  0.6316052574209617  1.0000
  H   H332      1.0  0.23692533456531287  0.06472091418807313  0.6881171235092999  1.0000
  N   N18       1.0  0.6626472456274831  0.9760034013685893  0.6387970317363015  1.0000
  C   C261      1.0  0.6418357154296163  0.9897582476258894  0.6771269517412608  1.0000
  C   C262      1.0  0.6365414477235237  0.9729049854755835  0.6011844496563524  1.0000
  C   C263      1.0  0.678734181557722  0.9389129478876621  0.6490057988146483  1.0000
  C   C264      1.0  0.6935041100174734  0.002393409095487575  0.6278704027646611  1.0000
  H   H333      1.0  0.660828642393807  0.9924769601563626  0.7060408715464253  1.0000
  H   H334      1.0  0.6186003944497154  0.9703453711446082  0.6866654422354235  1.0000
  H   H335      1.0  0.6293441266760789  0.01773426600661487  0.6707907689702362  1.0000
  H   H336      1.0  0.6515600071708634  0.9628826850056434  0.5716767601192118  1.0000
  H   H337      1.0  0.6130613296218923  0.9529786436657001  0.608179668998832  1.0000
  H   H338      1.0  0.6237230914498516  0.00037708788693024877  0.5927491913381624  1.0000
  H   H339      1.0  0.6945179578537651  0.9274710941890228  0.6208347556294329  1.0000
  H   H340      1.0  0.6564121289632828  0.9184003069224826  0.6583164457223258  1.0000
  H   H341      1.0  0.69888527297091  0.9403940592509923  0.6768885304905325  1.0000
  H   H342      1.0  0.7103517707094067  0.9926064113257846  0.5995826632578514  1.0000
  H   H343      1.0  0.7133380452517577  0.005835487541802076  0.6558599689179041  1.0000
  H   H344      1.0  0.6824504511607813  0.03058548783833892  0.6194773683158773  1.0000
  N   N19       1.0  0.4894596033454136  0.6241098888736792  0.8125057666098462  1.0000
  C   C265      1.0  0.4728686537572241  0.5957444254437166  0.8420859127138046  1.0000
  C   C266      1.0  0.5308284176746892  0.6188235711385832  0.8105466078118435  1.0000
  C   C267      1.0  0.481141030663962  0.6618450643613322  0.829023557959921  1.0000
  C   C268      1.0  0.47306299684919717  0.6198861739879797  0.7683544618221814  1.0000
  H   H345      1.0  0.44174466984601846  0.5993414930843266  0.8449336955492187  1.0000
  H   H346      1.0  0.48525618134188303  0.5975262052717814  0.8754210859805559  1.0000
  H   H347      1.0  0.477927053970251  0.5669579461660204  0.8300061678836794  1.0000
  H   H348      1.0  0.5438767754919074  0.6201053603929433  0.8435935876285744  1.0000
  H   H349      1.0  0.537996828938373  0.5912747308568929  0.7964409270028935  1.0000
  H   H350      1.0  0.5447000739668402  0.6408227238484112  0.7902860890208533  1.0000
  H   H351      1.0  0.4932089494005969  0.6839619482954958  0.8074304887579946  1.0000
  H   H352      1.0  0.4935414532523828  0.6661044506957132  0.8620851839473063  1.0000
  H   H353      1.0  0.45006132921048975  0.666672255439663  0.8310912745558073  1.0000
  H   H354      1.0  0.4855965856617095  0.6402635908832767  0.7449403119564405  1.0000
  H   H355      1.0  0.44194735883197805  0.6245237406817645  0.7684378376672464  1.0000
  H   H356      1.0  0.4779017739247957  0.5912997305369437  0.7554849907483625  1.0000
  N   N20       1.0  0.7770974253533098  0.43117750912420644  0.029783349168558185  1.0000
  C   C269      1.0  0.797562455726684  0.42524127625102026  0.9885297408927954  1.0000
  C   C270      1.0  0.7910235849202416  0.46585725550516943  0.050342620031007514  1.0000
  C   C271      1.0  0.7838232857016864  0.39916025007091077  0.05950615477054645  1.0000
  C   C272      1.0  0.7361137282433975  0.4344286122926154  0.020616312211402702  1.0000
  H   H357      1.0  0.82843028431093  0.42168140759497286  0.9943561649230186  1.0000
  H   H358      1.0  0.7943344339831647  0.4495525400900065  0.9660415313500471  1.0000
  H   H359      1.0  0.7869224162515301  0.4000649302434351  0.9712338478480574  1.0000
  H   H360      1.0  0.8220335380047525  0.4648333189873147  0.05652374774225379  1.0000
  H   H361      1.0  0.7854657160880842  0.4906970564933889  0.029347832021791257  1.0000
  H   H362      1.0  0.7771037860661474  0.4708452072358406  0.08216614370566792  1.0000
  H   H363      1.0  0.773539997498093  0.37254657112925393  0.04507905926563622  1.0000
  H   H364      1.0  0.7688171231122938  0.4026707451309775  0.09101597638127984  1.0000
  H   H365      1.0  0.814393398390304  0.39595142137751926  0.06735200960207544  1.0000
  H   H366      1.0  0.7198210903457635  0.4392798934813837  0.05096773025665945  1.0000
  H   H367      1.0  0.7244826383674677  0.40858470639260996  0.005555614123075482  1.0000
  H   H368      1.0  0.7300572899145553  0.4580312407689583  0.9979625417599021  1.0000
  N   N21       1.0  0.13120852188371535  0.13368713664661308  0.4496183248478253  1.0000
  C   C273      1.0  0.10749248524854838  0.15894588882157465  0.4756901480129395  1.0000
  C   C274      1.0  0.12044709908617923  0.13712019383710486  0.40309261423762105  1.0000
  C   C275      1.0  0.12537481807784245  0.09471935673372897  0.464436694402622  1.0000
  C   C276      1.0  0.17145478197406727  0.14404823202509986  0.4553680859160743  1.0000
  H   H369      1.0  0.11454724850970499  0.15681351403285806  0.5110667327898615  1.0000
  H   H370      1.0  0.07686257364941707  0.15237469061427802  0.47167664785234137  1.0000
  H   H371      1.0  0.11152566272263442  0.18863030231755898  0.4655490204080894  1.0000
  H   H372      1.0  0.09001547901253337  0.13034808109164112  0.3976686652038597  1.0000
  H   H373      1.0  0.12517760492081753  0.16594817880498347  0.390636235790972  1.0000
  H   H374      1.0  0.13707954660925337  0.11804982156486372  0.3823115248300437  1.0000
  H   H375      1.0  0.1422308886389385  0.07482689693122395  0.4448664556837316  1.0000
  H   H376      1.0  0.09518379236470675  0.0861941243161339  0.4618309382478884  1.0000
  H   H377      1.0  0.1345151055729621  0.09067847503532568  0.4989033250694874  1.0000
  H   H378      1.0  0.17733767553965007  0.17289692997886277  0.44374633596225893  1.0000
  H   H379      1.0  0.19043780456441306  0.12523565475361198  0.4370643377210629  1.0000
  H   H380      1.0  0.18019905112452617  0.1424567292865521  0.4902329969316384  1.0000
  N   N22       1.0  0.3103014584001431  0.7651989918287443  0.004042298131173849  1.0000
  C   C277      1.0  0.30755868949721943  0.7259324116449635  0.018956613526673886  1.0000
  C   C278      1.0  0.30407135908946237  0.7902322930682364  0.04129857847181207  1.0000
  C   C279      1.0  0.2812278157940638  0.7723575298634954  0.9702846787183939  1.0000
  C   C280      1.0  0.3482414764075127  0.7724013376386967  0.9856599056471527  1.0000
  H   H381      1.0  0.31163605276988  0.7061862866235479  0.9915823605938521  1.0000
  H   H382      1.0  0.2792348707039682  0.7196948352814855  0.03312602566922518  1.0000
  H   H383      1.0  0.3289604877826205  0.7195178979740449  0.04463729738187205  1.0000
  H   H384      1.0  0.2758169817222698  0.7854372187340954  0.056247198665016464  1.0000
  H   H385      1.0  0.32545153572180907  0.7853081852758873  0.06729276425169149  1.0000
  H   H386      1.0  0.3063250356419004  0.8200968388441559  0.03133601257985075  1.0000
  H   H387      1.0  0.28285871360259945  0.8015217615455195  0.9576263144936572  1.0000
  H   H388      1.0  0.25221542440971567  0.7671815664766263  0.9829891906220506  1.0000
  H   H389      1.0  0.28496026646131073  0.7535976538581701  0.9420786951758512  1.0000
  H   H390      1.0  0.35119561133639504  0.8018439118648739  0.9740896103322064  1.0000
  H   H391      1.0  0.35393153401083344  0.754279403147563  0.9572084901558372  1.0000
  H   H392      1.0  0.3709521015916128  0.7676266324318893  0.010266253897773803  1.0000
  N   N23       1.0  0.7733658014324013  0.5191074509079329  0.6899640325433574  1.0000
  C   C281      1.0  0.7430225113529293  0.49529366006791176  0.7082096531389643  1.0000
  C   C282      1.0  0.8105499302487926  0.5049768228847087  0.704802349593632  1.0000
  C   C283      1.0  0.7683945968276962  0.5578836768395623  0.7050274562561368  1.0000
  C   C284      1.0  0.7714478499956507  0.5181765971517593  0.6418218533746677  1.0000
  H   H393      1.0  0.7145021498002784  0.504946026632832  0.6976765155155529  1.0000
  H   H394      1.0  0.7435227622287782  0.4955199759200983  0.744423453953754  1.0000
  H   H395      1.0  0.7461493599902497  0.4656395800671065  0.6982029986680235  1.0000
  H   H396      1.0  0.8131890896897683  0.5058216025390834  0.7409537057185754  1.0000
  H   H397      1.0  0.8149199150851499  0.47543759246321765  0.6949214233692651  1.0000
  H   H398      1.0  0.8342545613131459  0.5218045433091337  0.6911127727944285  1.0000
  H   H399      1.0  0.7702056203282359  0.5596897844840467  0.7412155504225549  1.0000
  H   H400      1.0  0.7402135200097262  0.5692107455135956  0.6954690083304825  1.0000
  H   H401      1.0  0.7904153002457738  0.5768767125785869  0.6914476870986443  1.0000
  H   H402      1.0  0.7940155011604246  0.5357922470925667  0.626896454658752  1.0000
  H   H403      1.0  0.743733448645  0.5286524619216983  0.6295135833741563  1.0000
  H   H404      1.0  0.7750653967717033  0.4892435364838001  0.6295176651743666  1.0000
  N   N24       1.0  0.06867880090294401  0.9591555029124043  0.44673494820090154  1.0000
  C   C285      1.0  0.07452128655299027  0.9327785705676311  0.4106420343503227  1.0000
  C   C286      1.0  0.10401483415972403  0.9627031350011281  0.4723676515763435  1.0000
  C   C287      1.0  0.038182571726432135  0.9449550880891879  0.47524437736534764  1.0000
  C   C288      1.0  0.05793183689869869  0.9960266890990909  0.4287732792814463  1.0000
  H   H405      1.0  0.048235284017342714  0.928868742335403  0.39124284060731546  1.0000
  H   H406      1.0  0.08315678491530744  0.9048180597982004  0.423092584148479  1.0000
  H   H407      1.0  0.09670059410728493  0.9428665704092909  0.38783277553035445  1.0000
  H   H408      1.0  0.12745897088981845  0.9744863238559208  0.45263401560096894  1.0000
  H   H409      1.0  0.1004778447409224  0.9814018957877462  0.5007833270951897  1.0000
  H   H410      1.0  0.1135936444620347  0.9351617093340778  0.4850394142340175  1.0000
  H   H411      1.0  0.04452475838522463  0.9162183249896285  0.4872916872862969  1.0000
  H   H412      1.0  0.010606625636932154  0.943784921916417  0.4576015113581633  1.0000
  H   H413      1.0  0.03438948140941056  0.9631127974346311  0.5041912709379494  1.0000
  H   H414      1.0  0.031024213094701825  0.994284689124486  0.4097532782784668  1.0000
  H   H415      1.0  0.0800665906470258  0.007217854848129646  0.4064051271092245  1.0000
  H   H416      1.0  0.05378297479935674  0.0166050104876454  0.4552774227558543  1.0000
  N   N25       1.0  0.37171669463769463  0.5211073795852004  0.9526299599158542  1.0000
  C   C289      1.0  0.3560744280458189  0.5465408630062906  0.9855288841423756  1.0000
  C   C290      1.0  0.34091619483450813  0.4978011714295629  0.9344664845409213  1.0000
  C   C291      1.0  0.40048279564825395  0.4968874950181144  0.973516281033136  1.0000
  C   C292      1.0  0.3891393666158546  0.5434253557942862  0.9172816948502597  1.0000
  H   H417      1.0  0.3785397489387447  0.5638862199957523  0.0009159732987191749  1.0000
  H   H418      1.0  0.3417839623053894  0.5305693656636725  0.011884194224285993  1.0000
  H   H419      1.0  0.33457681837756975  0.5656222112344111  0.970942876675049  1.0000
  H   H420      1.0  0.31834037190839304  0.5152193995924279  0.9192922180535495  1.0000
  H   H421      1.0  0.35139338052596797  0.4786071945887972  0.9089164659257138  1.0000
  H   H422      1.0  0.32715523019108605  0.48045615411523074  0.9602027615423034  1.0000
  H   H423      1.0  0.424352071173374  0.5134486879397614  0.9873039214040037  1.0000
  H   H424      1.0  0.41255132184562704  0.4767015105614116  0.9501397006298978  1.0000
  H   H425      1.0  0.3882073248989166  0.48031286038679155  0.0008570283835560577  1.0000
  H   H426      1.0  0.3681671969533959  0.5626353944956735  0.9019258832706805  1.0000
  H   H427      1.0  0.40008085939678273  0.5253711516187384  0.8909564307522098  1.0000
  H   H428      1.0  0.4130413757484129  0.5606629096041561  0.9296183795286864  1.0000
  N   N26       1.0  0.23628017482980543  0.4859880077644613  0.28255727984062057  1.0000
  C   C293      1.0  0.21440853754566247  0.49848034933825847  0.24391674888087478  1.0000
  C   C294      1.0  0.24314062052170074  0.5180586633197002  0.31160801935669896  1.0000
  C   C295      1.0  0.27285833323542524  0.47051991072607313  0.26833142170526075  1.0000
  C   C296      1.0  0.2147198335086839  0.456921227204849  0.3063392544863269  1.0000
  H   H429      1.0  0.20914539488556794  0.4750545913493507  0.22100228565852117  1.0000
  H   H430      1.0  0.22973560112674  0.5207862143796637  0.22554303667075  1.0000
  H   H431      1.0  0.18640388826715615  0.5098782146464585  0.253246247029014  1.0000
  H   H432      1.0  0.21611173550500828  0.5303885807564204  0.32291145349299166  1.0000
  H   H433      1.0  0.25986494814726524  0.509730432913619  0.34092336830985237  1.0000
  H   H434      1.0  0.2591950321944486  0.5406231632235973  0.294608078480739  1.0000
  H   H435      1.0  0.29006526414764283  0.4604368052042656  0.29648379131086117  1.0000
  H   H436      1.0  0.28992357169178307  0.49180552361646723  0.25049081788758426  1.0000
  H   H437      1.0  0.2687215599353058  0.4464866852243348  0.24601976427249758  1.0000
  H   H438      1.0  0.2302583691764364  0.446844470172149  0.3357741542028096  1.0000
  H   H439      1.0  0.20938209089383764  0.43224277548355267  0.28553060165426375  1.0000
  H   H440      1.0  0.18661093696921716  0.4672598020957596  0.3169058666393195  1.0000
  N   N27       1.0  0.5953256621762738  0.3008114794324227  0.2658839914224329  1.0000
  C   C297      1.0  0.5867685122687833  0.2899957849386455  0.22047916833869777  1.0000
  C   C298      1.0  0.5817407494809278  0.3392150267012428  0.2733004192831074  1.0000
  C   C299      1.0  0.6366444413967048  0.29916151195556306  0.2734834404686718  1.0000
  C   C300      1.0  0.576096131331833  0.2747517405895096  0.29614790396473556  1.0000
  H   H441      1.0  0.5559382123308658  0.2912392424975416  0.2132157898883815  1.0000
  H   H442      1.0  0.5968940635138016  0.26128553135591487  0.21337489117212366  1.0000
  H   H443      1.0  0.6010687257224547  0.30896092197358993  0.19695780671416768  1.0000
  H   H444      1.0  0.5875666497697953  0.3484458068512295  0.30723025047607055  1.0000
  H   H445      1.0  0.5956337697673157  0.3595925539818732  0.25090619758608773  1.0000
  H   H446      1.0  0.5507696926337793  0.3416147657666275  0.2671102725391763  1.0000
  H   H447      1.0  0.6521732379490239  0.31827412140752426  0.2510275678077734  1.0000
  H   H448      1.0  0.6478962136216254  0.2706432163340017  0.26756137547761594  1.0000
  H   H449      1.0  0.6443446717598736  0.3070651289173982  0.3073920582769954  1.0000
  H   H450      1.0  0.5820022791897979  0.2820121939567456  0.33076152011989457  1.0000
  H   H451      1.0  0.5857519418247109  0.2455401024994853  0.291179374611209  1.0000
  H   H452      1.0  0.5448779263165805  0.27521463492646614  0.2912369105425789  1.0000
  N   N28       1.0  0.035399366860326964  0.16485580145777967  0.7000236649017137  1.0000
  C   C301      1.0  0.024520820542577097  0.18649216642262156  0.6606939580525307  1.0000
  C   C302      1.0  0.07316565167900194  0.17727677285350696  0.7149971183734318  1.0000
  C   C303      1.0  0.03656841010510403  0.1246761100220275  0.6895269376257659  1.0000
  C   C304      1.0  0.007516615194214538  0.17110650624176071  0.7349477780149417  1.0000
  H   H453      1.0  0.04504202467061935  0.1824127478508457  0.6337767001747644  1.0000
  H   H454      1.0  0.023816362266522395  0.21694541145545543  0.6675378715598228  1.0000
  H   H455      1.0  0.9960314649745039  0.17829728450817672  0.6485788652701389  1.0000
  H   H456      1.0  0.0829893734284325  0.1610274433832024  0.7439966323433578  1.0000
  H   H457      1.0  0.09482101936111002  0.17397426960796314  0.6891217016678619  1.0000
  H   H458      1.0  0.07308287015979054  0.2071884487521758  0.7242203777161309  1.0000
  H   H459      1.0  0.008240216919155108  0.11385080651366186  0.679793654044734  1.0000
  H   H460      1.0  0.046361575517082754  0.10774515452537381  0.7180212813417293  1.0000
  H   H461      1.0  0.056328261079381506  0.11912502722850227  0.66226816949879  1.0000
  H   H462      1.0  0.015161520162733753  0.1554077007331891  0.765181552480864  1.0000
  H   H463      1.0  0.97862890096712  0.16201257462324836  0.7249618651550424  1.0000
  H   H464      1.0  0.005816451898486008  0.2011827160349604  0.7435548635653941  1.0000
  N   N29       1.0  0.6153554743564628  0.38983845447386334  0.8306930566180644  1.0000
  C   C305      1.0  0.6218198005523575  0.39884969941815307  0.8770942359980178  1.0000
  C   C306      1.0  0.5947422821048699  0.4207738744706191  0.8092018792072712  1.0000
  C   C307      1.0  0.5926825288599357  0.3552249917474153  0.8274414802787146  1.0000
  C   C308      1.0  0.6521995555114344  0.3846015686981545  0.8091252675473724  1.0000
  H   H465      1.0  0.6357592343106178  0.375478651353851  0.8950195141900318  1.0000
  H   H466      1.0  0.5948653609905079  0.4048508643248493  0.894169684812691  1.0000
  H   H467      1.0  0.6402079795532037  0.42384384542116715  0.8808041776967073  1.0000
  H   H468      1.0  0.6102189156729818  0.4477057782699906  0.8125437979271446  1.0000
  H   H469      1.0  0.5902807314153965  0.4155506706945532  0.7738274749960654  1.0000
  H   H470      1.0  0.5663164054165766  0.4245527282471493  0.8238421815184784  1.0000
  H   H471      1.0  0.6072615350126859  0.33128090117531434  0.8435537953431369  1.0000
  H   H472      1.0  0.5871562911388578  0.34762799227218083  0.7928513932917651  1.0000
  H   H473      1.0  0.5646987201967588  0.3584207926882916  0.8434608508407304  1.0000
  H   H474      1.0  0.6486761543382074  0.3773311632678023  0.7741295686003175  1.0000
  H   H475      1.0  0.6688731707598377  0.3619596216242819  0.8251039532962826  1.0000
  H   H476      1.0  0.6696821237289702  0.41045209262313365  0.8106062682510866  1.0000
  N   N30       1.0  0.7054411790626735  0.8075722608329884  0.2548172972446796  1.0000
  C   C309      1.0  0.7171595820930095  0.8166196618245471  0.2097563556906631  1.0000
  C   C310      1.0  0.7325186420616269  0.7809090282541784  0.2745775018998794  1.0000
  C   C311      1.0  0.6671509936711492  0.790816022642374  0.25406443107305227  1.0000
  C   C312      1.0  0.7049819749670352  0.8421265422762465  0.28079770236911944  1.0000
  H   H477      1.0  0.7449777362903145  0.8310735507660165  0.20911443767453203  1.0000
  H   H478      1.0  0.6963132975023522  0.8350889779876027  0.19297732661599892  1.0000
  H   H479      1.0  0.719653645590412  0.7909842746788575  0.1897490029168063  1.0000
  H   H480      1.0  0.7237991837057549  0.7721709596347114  0.3079246489085775  1.0000
  H   H481      1.0  0.7351755677488203  0.7551585617959652  0.25471796155054516  1.0000
  H   H482      1.0  0.7613553538928538  0.7932944050858706  0.2772524254616599  1.0000
  H   H483      1.0  0.6571775530112162  0.7836059002020915  0.2874260461878637  1.0000
  H   H484      1.0  0.6664683760866102  0.7648267266662643  0.23452628174236895  1.0000
  H   H485      1.0  0.6461150382856248  0.8100243074799685  0.23877934494951852  1.0000
  H   H486      1.0  0.6962035695593052  0.8363880849244799  0.3150072001160016  1.0000
  H   H487      1.0  0.6850252340359008  0.8629477738626863  0.2665963960723533  1.0000
  H   H488      1.0  0.7335548493786087  0.8554003027604054  0.282012194810391  1.0000
  N   N31       1.0  0.7331642386314855  0.7419430233482696  0.8712511654990543  1.0000
  C   C313      1.0  0.7713334151448957  0.7281455773808344  0.882639946215193  1.0000
  C   C314      1.0  0.7281270888964279  0.7417880166938948  0.8233502512013819  1.0000
  C   C315      1.0  0.7288576317746177  0.7804148311356104  0.8875072852550466  1.0000
  C   C316      1.0  0.7043551034281137  0.7174353308444819  0.8915246060830828  1.0000
  H   H489      1.0  0.7755711431230238  0.7267889885506394  0.918713715833057  1.0000
  H   H490      1.0  0.7937594364911448  0.746593414194991  0.8688791061357243  1.0000
  H   H491      1.0  0.7760148223108853  0.6995872476211578  0.8697991722169541  1.0000
  H   H492      1.0  0.7478973774657933  0.7616483239988292  0.8069995856954688  1.0000
  H   H493      1.0  0.7329108329081915  0.7135454402644222  0.809667677192437  1.0000
  H   H494      1.0  0.6989689644983437  0.7504139476068948  0.8138398180934517  1.0000
  H   H495      1.0  0.7320211589209201  0.7815734844430339  0.9236214016134251  1.0000
  H   H496      1.0  0.700701331963834  0.792037471320377  0.8787692969803795  1.0000
  H   H497      1.0  0.7501568190075499  0.7996826889729887  0.8728404019971251  1.0000
  H   H498      1.0  0.6752259500030432  0.7271405378145879  0.8837540324143269  1.0000
  H   H499      1.0  0.7073934850822723  0.7167213006269932  0.9276707369806776  1.0000
  H   H500      1.0  0.7066960445081226  0.6882264035109227  0.8797347814168424  1.0000
  N   N32       1.0  0.294401657326089  0.34959529389486044  0.751471942102171  1.0000
  C   C317      1.0  0.3296924216847669  0.3665051938495089  0.7346550441703468  1.0000
  C   C318      1.0  0.2994737353242524  0.3398843973194993  0.7980728856153386  1.0000
  C   C319      1.0  0.2853536321484551  0.3154668736535353  0.7266637588923686  1.0000
  C   C320      1.0  0.263123047114516  0.37658180882322617  0.7466197380894155  1.0000
  H   H501      1.0  0.3370047952297079  0.3925989288396761  0.7523890860989626  1.0000
  H   H502      1.0  0.3272418189123598  0.3737009389406356  0.6994076831793113  1.0000
  H   H503      1.0  0.35407143797402885  0.34716403528260614  0.738425105577477  1.0000
  H   H504      1.0  0.2735839500393191  0.32662771722933254  0.8117793122442772  1.0000
  H   H505      1.0  0.32316206534962144  0.3198158110756799  0.8028598759617355  1.0000
  H   H506      1.0  0.30598361351206693  0.36512873621966324  0.8178047663937879  1.0000
  H   H507      1.0  0.2588529638996499  0.3019673827242926  0.73848252526954  1.0000
  H   H508      1.0  0.3083370831713751  0.2944957723229437  0.7297468123496615  1.0000
  H   H509      1.0  0.2812655398943717  0.32165606386156986  0.6913249429904287  1.0000
  H   H510      1.0  0.2360299402319582  0.36470584630802855  0.7589329395506458  1.0000
  H   H511      1.0  0.25849433779810116  0.38441919232268895  0.7117910105856695  1.0000
  H   H512      1.0  0.2691208403031153  0.4027346747974839  0.7649740952137721  1.0000
