data_image0
_chemical_formula_structural       FeS2FeS2FeSFeS3FeS2FeS2FeSFeS3FeS2FeS2FeSFeS3FeS2FeS2FeSFeS3FeS2FeS2FeSFeS3FeS2FeS2FeSFeS3FeS2FeS2FeSFeS3FeS2FeS2FeSFeS3FeS2FeS2FeSFeS3FeS2FeS2FeSFeS3FeS2FeS2FeSFeS3FeS2FeS2FeSFeS3FeS2FeS2FeSFeS3FeS2FeS2FeSFeS3FeS2FeS2FeSFeS3FeS2FeS2FeSFeS3C6H4C6H4C6H4C6H4C6H4C6H4C6H4C6H4C6H4C6H4C6H4C6H4C6H4C6H4C6H4C6H4C6H4C6H4C6H4C6H4C6H4C6H4C6H4C6H4C6H4C6H4C6H4C6H4C6H4C6H4C6H4C6H4NC4H12NC4H12NC4H12NC4H12NC4H12NC4H12NC4H12NC4H12NC4H12NC4H12NC4H12NC4H12NC4H12NC4H12NC4H12NC4H12NC4H12NC4H12NC4H12NC4H12NC4H12NC4H12NC4H12NC4H12NC4H12NC4H12NC4H12NC4H12NC4H12NC4H12NC4H12NC4H12
_chemical_formula_sum              "Fe64 S128 C320 H512 N32"
_cell_length_a       25.838360496390525
_cell_length_b       27.939848636981907
_cell_length_c       33.26138813283789
_cell_angle_alpha    90.10433111890552
_cell_angle_beta     89.27443662336677
_cell_angle_gamma    89.32017045370935

_space_group_name_H-M_alt    "P 1"
_space_group_IT_number       1

loop_
  _space_group_symop_operation_xyz
  'x, y, z'

loop_
  _atom_site_type_symbol
  _atom_site_label
  _atom_site_symmetry_multiplicity
  _atom_site_fract_x
  _atom_site_fract_y
  _atom_site_fract_z
  _atom_site_occupancy
  Fe  Fe1       1.0  0.15791139380538288  0.5703116673306503  0.6290638843990826  1.0000
  S   S1        1.0  0.09281925559684355  0.6100111204816164  0.6602659345439272  1.0000
  S   S2        1.0  0.15656487422873144  0.5532535462382769  0.5631638579665513  1.0000
  Fe  Fe2       1.0  0.21853580695484964  0.556292102442397  0.7060478383179879  1.0000
  S   S3        1.0  0.15853551989143239  0.5939480827827862  0.743719129308238  1.0000
  S   S4        1.0  0.2913407202949198  0.5278945213760665  0.7336786858558535  1.0000
  Fe  Fe3       1.0  0.10157615217088503  0.5531953431701275  0.7072508017553593  1.0000
  S   S5        1.0  0.03675126016724284  0.5121668614125904  0.7355703647622273  1.0000
  Fe  Fe4       1.0  0.15640450204357614  0.6465363282233024  0.693345282418947  1.0000
  S   S6        1.0  0.16025899937443372  0.724250339937382  0.7090048470816939  1.0000
  S   S7        1.0  0.16222211109085052  0.5106419533255542  0.6738009195011359  1.0000
  S   S8        1.0  0.22107811956272858  0.6120758791442257  0.6576564517516106  1.0000
  Fe  Fe5       1.0  0.9447445544714348  0.43108387219357813  0.470400661312843  1.0000
  S   S9        1.0  0.9672775626597866  0.39000243569007276  0.4149910174251623  1.0000
  S   S10       1.0  0.9684468397443814  0.41646345553581116  0.5334671965798516  1.0000
  Fe  Fe6       1.0  0.8763017502006976  0.5007647688381135  0.425995133983986  1.0000
  S   S11       1.0  0.891326656453746  0.4664836931615611  0.3659077501675124  1.0000
  S   S12       1.0  0.828710131623883  0.5665164537903397  0.4388113142174084  1.0000
  Fe  Fe7       1.0  0.8834656890624304  0.39773948608886983  0.3997199437449075  1.0000
  S   S13       1.0  0.8430277179330626  0.3337456784068453  0.37640184731790033  1.0000
  Fe  Fe8       1.0  0.9737023234781184  0.4620933439606042  0.3859476105007935  1.0000
  S   S14       1.0  0.036482812470268966  0.47972379294417583  0.34145210135171866  1.0000
  S   S15       1.0  0.8601685555304569  0.432169454559928  0.4579596200769454  1.0000
  S   S16       1.0  0.9596797420438934  0.5027855644051747  0.4432152592784248  1.0000
  Fe  Fe9       1.0  0.9915661834056969  0.5000298101180488  0.9570913949408312  1.0000
  S   S17       1.0  0.029723041651675386  0.4605218860609812  0.007495394784855058  1.0000
  S   S18       1.0  0.03701219946164591  0.5541379095470726  0.9218254940192633  1.0000
  Fe  Fe10      1.0  0.8868804045832865  0.4546184747501048  0.9728736012265928  1.0000
  S   S19       1.0  0.9162073427807221  0.4117226311433979  0.024912680271743204  1.0000
  S   S20       1.0  0.8049005447986364  0.4479308823433921  0.952372521864182  1.0000
  Fe  Fe11      1.0  0.956892238272884  0.4790611702576731  0.04200241561980822  1.0000
  S   S21       1.0  0.9575351190955649  0.5063231227767767  0.10572613475878923  1.0000
  Fe  Fe12      1.0  0.9853748445883862  0.39742754556076615  0.9851231060703586  1.0000
  S   S22       1.0  0.0156767841041221  0.3226137223380695  0.9742697728739503  1.0000
  S   S23       1.0  0.921613459186144  0.5233365815932882  0.9929970039224437  1.0000
  S   S24       1.0  0.9527251166289065  0.4355848177911688  0.9317922400614497  1.0000
  Fe  Fe13      1.0  0.07906068059181659  0.8263608435895922  0.21254129201988697  1.0000
  S   S25       1.0  0.11267774932229271  0.793338132236107  0.2675389906673783  1.0000
  S   S26       1.0  0.0608076563889588  0.9048150560682324  0.21678681795942878  1.0000
  Fe  Fe14      1.0  0.09051324142577699  0.7345322574918207  0.1651087229743504  1.0000
  S   S27       1.0  0.12597439751287579  0.6936911177642365  0.2160078963104373  1.0000
  S   S28       1.0  0.07846928726260272  0.701222583049597  0.10474406894618042  1.0000
  Fe  Fe15      1.0  0.06412771130003492  0.7302769146870961  0.25310787205309504  1.0000
  S   S29       1.0  0.016227641145908134  0.6999039648320596  0.30333684814747863  1.0000
  Fe  Fe16      1.0  0.17090313496745727  0.7607612434409934  0.22570337690198242  1.0000
  S   S30       1.0  0.25389441566470605  0.7613119419246709  0.24371992269768517  1.0000
  S   S31       1.0  0.02462841502968116  0.7660957524757327  0.20137207657104023  1.0000
  S   S32       1.0  0.14157335011853706  0.7985412702762731  0.17120981713554156  1.0000
  Fe  Fe17      1.0  0.17809033461037727  0.08064620025444666  0.998425225942727  1.0000
  S   S33       1.0  0.1618129897307569  0.0022204089255377646  0.0010188421220989063  1.0000
  S   S34       1.0  0.16052812068650404  0.13191759515938864  0.048578900995121854  1.0000
  Fe  Fe18      1.0  0.22227811068046457  0.0751016266309466  0.9141718545414903  1.0000
  S   S35       1.0  0.21018556469218544  0.9960797559509699  0.9088863776786252  1.0000
  S   S36       1.0  0.25263989486852334  0.12136082600274697  0.8645269136477363  1.0000
  Fe  Fe19      1.0  0.13336946796827095  0.011918324018306725  0.9380914608358009  1.0000
  S   S37       1.0  0.06250577003254354  0.9743981404835825  0.9168517722698452  1.0000
  Fe  Fe20      1.0  0.24004910988010733  0.9936441571389658  0.9719499741539251  1.0000
  S   S38       1.0  0.29557818613462894  0.9404846376123923  0.9986074140837019  1.0000
  S   S39       1.0  0.14275880643288516  0.09144217425863986  0.938254093384669  1.0000
  S   S40       1.0  0.2589850250060603  0.07172968708095695  0.9746251998775607  1.0000
  Fe  Fe21      1.0  0.9286212877012514  0.20868584763297487  0.2398081052351351  1.0000
  S   S41       1.0  0.8934436532123643  0.137408005961873  0.22803051097932736  1.0000
  S   S42       1.0  0.9756752057098382  0.22379337680356118  0.2939119677054776  1.0000
  Fe  Fe22      1.0  0.8751884898954865  0.25666324762524095  0.1704872793873448  1.0000
  S   S43       1.0  0.8336853339144327  0.19014647674309557  0.15236460945588834  1.0000
  S   S44       1.0  0.867839554466941  0.3296361801071647  0.1437524071311891  1.0000
  Fe  Fe23      1.0  0.8206415393825595  0.1797178253578228  0.21839248291191418  1.0000
  S   S45       1.0  0.7464209384062138  0.1548959828678737  0.24606823391258378  1.0000
  Fe  Fe24      1.0  0.910401053916375  0.15387776316482646  0.16343974548119766  1.0000
  S   S46       1.0  0.9377349202716161  0.09592573754332401  0.12121009848247032  1.0000
  S   S47       1.0  0.8543926754574996  0.24981897890722965  0.23560034566892663  1.0000
  S   S48       1.0  0.9529769229462988  0.22185148840672397  0.17602014292641216  1.0000
  Fe  Fe25      1.0  0.005223379396581906  0.24387892749027051  0.7582291712574625  1.0000
  S   S49       1.0  0.9222140040990717  0.22119509621669323  0.7596764120614788  1.0000
  S   S50       1.0  0.03504324328827879  0.3111346309582149  0.7857910868555652  1.0000
  Fe  Fe26      1.0  0.039289857639438486  0.16471788151207267  0.7018152036123746  1.0000
  S   S51       1.0  0.9597633507279636  0.13467394437713412  0.6974381197334961  1.0000
  S   S52       1.0  0.10758574400732002  0.1311994797054096  0.6701730791311793  1.0000
  Fe  Fe27      1.0  0.9331310366844527  0.21097488028518954  0.6932870556214662  1.0000
  S   S53       1.0  0.8730923119558179  0.23408612714967175  0.6491562074229917  1.0000
  Fe  Fe28      1.0  0.9558787478074345  0.14695693045824085  0.7639047817815148  1.0000
  S   S54       1.0  0.9173626908903935  0.08893835229007908  0.7992588352856178  1.0000
  S   S55       1.0  0.013122276488173323  0.2401674480111846  0.6912679093053276  1.0000
  S   S56       1.0  0.03829708275467825  0.1705613230270614  0.7689038835406712  1.0000
  Fe  Fe29      1.0  0.1140603052804845  0.004299614388906914  0.41524230730849454  1.0000
  S   S57       1.0  0.1921047823991792  0.0042019563686546135  0.38584226557524426  1.0000
  S   S58       1.0  0.06229092942882808  0.9424211082194455  0.40346438475821494  1.0000
  Fe  Fe30      1.0  0.12642860217944185  0.10407782823497369  0.44950765897213013  1.0000
  S   S59       1.0  0.20569184354683467  0.11355767670742023  0.42202050946493963  1.0000
  S   S60       1.0  0.07997358985403813  0.1595344456136898  0.48341157287431685  1.0000
  Fe  Fe31      1.0  0.1718992075946109  0.07877001632215164  0.367679649084777  1.0000
  S   S61       1.0  0.1793927926054475  0.09949914060422294  0.30302242319673983  1.0000
  Fe  Fe32      1.0  0.21869376463417683  0.03796118582669794  0.4428758782449437  1.0000
  S   S62       1.0  0.2950799576871957  0.009896469294295773  0.46464968527695577  1.0000
  S   S63       1.0  0.09153451888763042  0.07658713047419097  0.3931051130276779  1.0000
  S   S64       1.0  0.1418354925315192  0.03085700499485844  0.47465693713965706  1.0000
  Fe  Fe33      1.0  0.6488597462450163  0.5616445098167935  0.16766433326898297  1.0000
  S   S65       1.0  0.6007691869311609  0.5014687030423316  0.19011942438139148  1.0000
  S   S66       1.0  0.6490847603023188  0.573566570447731  0.10087309783936942  1.0000
  Fe  Fe34      1.0  0.6734972586785576  0.5938988680853243  0.2519358912963434  1.0000
  S   S67       1.0  0.6242158485714879  0.5378937274721682  0.2815482627984672  1.0000
  S   S68       1.0  0.7168255650124641  0.6492436721276786  0.2861778804994742  1.0000
  Fe  Fe35      1.0  0.6621609443455857  0.48966930269440984  0.23551812095209299  1.0000
  S   S69       1.0  0.6845971988776661  0.41373715181520204  0.24915564865090575  1.0000
  Fe  Fe36      1.0  0.5672887767791633  0.5556262780169018  0.2330364303772641  1.0000
  S   S70       1.0  0.4806064629929573  0.5552708228666354  0.22990103281151744  1.0000
  S   S71       1.0  0.7149603150475569  0.5446397422563719  0.20869817249170433  1.0000
  S   S72       1.0  0.6127941544200664  0.6169030541994439  0.2084077086317006  1.0000
  Fe  Fe37      1.0  0.34828256957299786  0.6015926920820477  0.9340291778070946  1.0000
  S   S73       1.0  0.3937197505091217  0.6357026153515452  0.8841498242243339  1.0000
  S   S74       1.0  0.27905997994281523  0.5565122933581677  0.9209330462416863  1.0000
  Fe  Fe38      1.0  0.4100929637122526  0.6508956948809536  0.9983863132954045  1.0000
  S   S75       1.0  0.45951646094146714  0.6907047664375005  0.9541703430000364  1.0000
  S   S76       1.0  0.42496649805101266  0.653382083503623  0.06442947779128438  1.0000
  Fe  Fe39      1.0  0.385294730705713  0.7021111471471254  0.9212298263583102  1.0000
  S   S77       1.0  0.36154833777289486  0.7670124266275691  0.8867112463798612  1.0000
  Fe  Fe40      1.0  0.46318189409141847  0.6203748377205005  0.9217784304147003  1.0000
  S   S78       1.0  0.5396829368388393  0.5889934188549926  0.9020807178504873  1.0000
  S   S79       1.0  0.33494303185037  0.6694285163509647  0.9687695948545232  1.0000
  S   S80       1.0  0.41853974581579734  0.5795275153065763  0.9682967514013334  1.0000
  Fe  Fe41      1.0  0.7168068985066773  0.45993199019563913  0.6676362090530666  1.0000
  S   S81       1.0  0.6739512556635918  0.41256287131576147  0.6253735486443309  1.0000
  S   S82       1.0  0.8021994157716986  0.44862314669642506  0.679172162190178  1.0000
  Fe  Fe42      1.0  0.6193411446522054  0.5178092490249538  0.6892088477630827  1.0000
  S   S83       1.0  0.5695919815533721  0.47306392218945426  0.6496455629569264  1.0000
  S   S84       1.0  0.5762105150572135  0.5818885682535108  0.7143037778596063  1.0000
  Fe  Fe43      1.0  0.6139530575761124  0.41089426544613755  0.6742776057681426  1.0000
  S   S85       1.0  0.5798824209348473  0.33955391485872627  0.6894268736468815  1.0000
  Fe  Fe44      1.0  0.6347317888379406  0.47980073535165363  0.6052878059148977  1.0000
  S   S86       1.0  0.6153265385926683  0.4964031452761329  0.5413806534838211  1.0000
  S   S87       1.0  0.6586469722598484  0.4545885900712882  0.718236598905034  1.0000
  S   S88       1.0  0.6825094189763543  0.5280661525215854  0.6431147283621484  1.0000
  Fe  Fe45      1.0  0.3287901053876869  0.7451719335886586  0.46450031347356013  1.0000
  S   S89       1.0  0.40569974993889457  0.756218629900154  0.4927186402458924  1.0000
  S   S90       1.0  0.25851357479825804  0.7886566440563711  0.48009248042341357  1.0000
  Fe  Fe46      1.0  0.3648148104481177  0.6599925817179347  0.41654221461406704  1.0000
  S   S91       1.0  0.4458291226021192  0.662227368709224  0.4401527064220823  1.0000
  S   S92       1.0  0.3318780218961064  0.6048139176719562  0.3757590111511839  1.0000
  Fe  Fe47      1.0  0.4072329697181014  0.6766906737326742  0.4996278588059268  1.0000
  S   S93       1.0  0.43510681723391625  0.6491574466361844  0.5587012968128532  1.0000
  Fe  Fe48      1.0  0.43778907643338366  0.7413467938773199  0.4312399355298091  1.0000
  S   S94       1.0  0.5043031883847395  0.7856881766541458  0.4101100845018658  1.0000
  S   S95       1.0  0.32692768550973483  0.6667392662719426  0.47706253775428026  1.0000
  S   S96       1.0  0.3600975404768437  0.738181098282229  0.4018222742224458  1.0000
  Fe  Fe49      1.0  0.4435811259963555  0.9450780904859961  0.20146926000155937  1.0000
  S   S97       1.0  0.46737013384826726  0.8890227379596832  0.15620276806925812  1.0000
  S   S98       1.0  0.3586692313170754  0.9609886228119976  0.21050302074239646  1.0000
  Fe  Fe50      1.0  0.5525823377892143  0.9568451517092083  0.23159590832575572  1.0000
  S   S99       1.0  0.5846761341177169  0.9004014921929245  0.1903636961174322  1.0000
  S   S100      1.0  0.6104436209590812  0.9921798170848608  0.2705331181507213  1.0000
  Fe  Fe51      1.0  0.5354245461291607  0.9362868333396428  0.14414882176511074  1.0000
  S   S101      1.0  0.5767312246801182  0.9472647394093285  0.08503924992603044  1.0000
  Fe  Fe52      1.0  0.5140078630267682  0.8594178238738645  0.20681804032182924  1.0000
  S   S102      1.0  0.5125322315806972  0.7811467243004059  0.221180857863593  1.0000
  S   S103      1.0  0.507384047120699  0.995842737478833  0.18457878464701835  1.0000
  S   S104      1.0  0.48651887026067187  0.9126576069223894  0.2530483079216511  1.0000
  Fe  Fe53      1.0  0.6752239580565776  0.2141744477171313  0.9356424483766143  1.0000
  S   S105      1.0  0.601052511514054  0.24346839739198622  0.9619815371155974  1.0000
  S   S106      1.0  0.7554573960591022  0.22764201116931412  0.9575885459974145  1.0000
  Fe  Fe54      1.0  0.6222573547303356  0.16505937920164085  0.8668799005278012  1.0000
  S   S107      1.0  0.5430187622985723  0.18937529588864213  0.8866490716146146  1.0000
  S   S108      1.0  0.6371339747278837  0.12457286955572405  0.8095156434542227  1.0000
  Fe  Fe55      1.0  0.580868224510493  0.25978356983638706  0.8980148805528219  1.0000
  S   S109      1.0  0.5497782607703883  0.3309415088615724  0.8778683377457819  1.0000
  Fe  Fe56      1.0  0.5697423875341276  0.17033764835425827  0.9487196418354537  1.0000
  S   S110      1.0  0.5130970722944801  0.13566755129843142  0.9915056350581427  1.0000
  S   S111      1.0  0.6578945958464489  0.23702528425908342  0.8728861317835238  1.0000
  S   S112      1.0  0.646086440195577  0.1394917397352315  0.9278685590384024  1.0000
  Fe  Fe57      1.0  0.3601561443790316  0.9434914983423413  0.7190163731781034  1.0000
  S   S113      1.0  0.3813979300886937  0.896311885568615  0.7707327686650458  1.0000
  S   S114      1.0  0.29159323135752113  0.9922444310059048  0.7110903443687242  1.0000
  Fe  Fe58      1.0  0.4553510589200422  0.9181629052760101  0.6707658241995689  1.0000
  S   S115      1.0  0.4878431183101255  0.8685978058159893  0.7171928258954696  1.0000
  S   S116      1.0  0.4841986197601366  0.9328191435879427  0.6084009415194671  1.0000
  Fe  Fe59      1.0  0.40652257560915106  0.8431389362208319  0.723784346520024  1.0000
  S   S117      1.0  0.39503356555885377  0.7646629076528677  0.7328600631847776  1.0000
  Fe  Fe60      1.0  0.46151903707419106  0.9244652396989659  0.7616075491961469  1.0000
  S   S118      1.0  0.5056303905928223  0.9363168665791616  0.818238429745227  1.0000
  S   S119      1.0  0.3761676606952397  0.8868762757291265  0.6727050649386548  1.0000
  S   S120      1.0  0.43796499741427847  0.9774946830946628  0.7145160336722733  1.0000
  Fe  Fe61      1.0  0.635401255949386  0.21361157959982907  0.48233173842838417  1.0000
  S   S121      1.0  0.7009081376912584  0.17943899926469248  0.5152539027169052  1.0000
  S   S122      1.0  0.6391272171134953  0.29308162718848485  0.4755007902702125  1.0000
  Fe  Fe62      1.0  0.587700658099031  0.11810116517626854  0.46102066973530326  1.0000
  S   S123      1.0  0.6517534355342982  0.0760115445161314  0.4900086852333904  1.0000
  S   S124      1.0  0.5211711334536057  0.08172686927966911  0.4310702236902306  1.0000
  Fe  Fe63      1.0  0.6408395534972346  0.13009052158674844  0.5396338624894201  1.0000
  S   S125      1.0  0.633937795333817  0.10929473266419276  0.6044743880330624  1.0000
  Fe  Fe64      1.0  0.7047129185976997  0.13017415465603346  0.4620717469325303  1.0000
  S   S126      1.0  0.7824039040439406  0.12169899618512364  0.43137731735528256  1.0000
  S   S127      1.0  0.5741191828383806  0.16949577025626733  0.5121074209316908  1.0000
  S   S128      1.0  0.6414151176234996  0.16684579247531922  0.42788262111912506  1.0000
  C   C1        1.0  0.524446384534315  0.9826957868861284  0.6085184375021834  1.0000
  C   C2        1.0  0.5308566608703472  0.008847180882545658  0.5731257212114066  1.0000
  C   C3        1.0  0.5633584029073754  0.04850861432462427  0.5723625039796986  1.0000
  C   C4        1.0  0.5902999898325673  0.061727627335359796  0.6068153781787112  1.0000
  C   C5        1.0  0.5829983548437382  0.03619171712315531  0.6425841292700766  1.0000
  C   C6        1.0  0.5498110952199888  0.996728775993591  0.643488407079641  1.0000
  H   H1        1.0  0.5103777822010349  0.9987240222208545  0.5463766295138791  1.0000
  H   H2        1.0  0.5673899018499755  0.06885521297372316  0.5450319665706731  1.0000
  H   H3        1.0  0.6035932211094037  0.04635407390516666  0.6693321055293174  1.0000
  H   H4        1.0  0.5449710515294219  0.9764937171246066  0.6709374219840106  1.0000
  C   C7        1.0  0.6017478736076586  0.07155072093935841  0.8114619513174064  1.0000
  C   C8        1.0  0.5882462675415057  0.05181222991551477  0.8487003241726013  1.0000
  C   C9        1.0  0.5602953576529528  0.009263137926890153  0.8504484277118202  1.0000
  C   C10       1.0  0.5438109263341555  0.9874883954197086  0.8150550976528474  1.0000
  C   C11       1.0  0.5571005153608268  0.0072166060578677796  0.7777510166149697  1.0000
  C   C12       1.0  0.5867918661688549  0.048921380272110536  0.7759492066892348  1.0000
  H   H5        1.0  0.5996724523070815  0.06899212953311717  0.876212977011131  1.0000
  H   H6        1.0  0.5507829761460041  0.9935870535548927  0.8792349397642777  1.0000
  H   H7        1.0  0.5449290584375583  0.9901774402193925  0.7502947373499208  1.0000
  H   H8        1.0  0.5971013945918284  0.06410403689449791  0.7470915592164742  1.0000
  C   C13       1.0  0.5842708483694086  0.014287139383468261  0.315675274715182  1.0000
  C   C14       1.0  0.6178910930921628  0.030071163517338514  0.3452902342060684  1.0000
  C   C15       1.0  0.5981968861848013  0.05019515765299664  0.38090636891345936  1.0000
  C   C16       1.0  0.5448656325231517  0.054528191222135036  0.38707644679911124  1.0000
  C   C17       1.0  0.5109355657626913  0.037226896794603184  0.3581071058774781  1.0000
  C   C18       1.0  0.5306621157269867  0.017181051673790915  0.3222061493914814  1.0000
  H   H9        1.0  0.6593061552255113  0.02702253271541255  0.3405025844249846  1.0000
  H   H10       1.0  0.6243394516787013  0.062479927198619056  0.40362886985021607  1.0000
  H   H11       1.0  0.4696711366855343  0.040129794597003436  0.3632158714835867  1.0000
  H   H12       1.0  0.5046166982656263  0.00483985073518145  0.2993450740405465  1.0000
  C   C19       1.0  0.5595717787361651  0.00024648446182462536  0.05978430607578322  1.0000
  C   C20       1.0  0.5904113564605962  0.016209332549352418  0.0276415908757901  1.0000
  C   C21       1.0  0.577287306466841  0.05845328994422264  0.007100205138222737  1.0000
  C   C22       1.0  0.53296610404687  0.0846345975415072  0.01840607427689389  1.0000
  C   C23       1.0  0.5020822054899743  0.06852968024645062  0.050470235763341975  1.0000
  C   C24       1.0  0.5155024538753713  0.02660867367473796  0.0712932017919965  1.0000
  H   H13       1.0  0.6244143536827026  0.9957743386513668  0.018522143820165926  1.0000
  H   H14       1.0  0.6008566965529331  0.07012413160363945  0.9820645845847853  1.0000
  H   H15       1.0  0.4674169186020801  0.08835210946600221  0.05905711573719308  1.0000
  H   H16       1.0  0.49105801571822294  0.014194050445810236  0.09565383785462854  1.0000
  C   C25       1.0  0.5104533512969113  0.7810501291736299  0.35780819042923223  1.0000
  C   C26       1.0  0.4836459973677001  0.7458249624641395  0.33688443444020066  1.0000
  C   C27       1.0  0.48654945752001316  0.7439216474620154  0.2947605532837916  1.0000
  C   C28       1.0  0.5153417053430422  0.7780171857887822  0.27366366586517277  1.0000
  C   C29       1.0  0.5433541265332558  0.8122743038806882  0.29472680831330705  1.0000
  C   C30       1.0  0.5413008898512922  0.813526154330125  0.3368021064589591  1.0000
  H   H17       1.0  0.45992338146161116  0.7206458404094914  0.3530855232696514  1.0000
  H   H18       1.0  0.4647924127293478  0.717404308989827  0.2786057362536863  1.0000
  H   H19       1.0  0.5662076071531923  0.8382817173278121  0.278521963769417  1.0000
  H   H20       1.0  0.562453590926414  0.8405435964519151  0.3528596273539366  1.0000
  C   C31       1.0  0.5667945082751561  0.3372174865149244  0.7412368552758285  1.0000
  C   C32       1.0  0.5599443950088525  0.37941715141019555  0.7634406341486675  1.0000
  C   C33       1.0  0.5526749770225384  0.37737878678704795  0.8052579198468112  1.0000
  C   C34       1.0  0.5537990962299649  0.33321091435880246  0.8251106402570039  1.0000
  C   C35       1.0  0.5596082877865077  0.2909614261830851  0.8027054806978858  1.0000
  C   C36       1.0  0.5650273364079296  0.2929607170060888  0.7607273784727674  1.0000
  H   H21       1.0  0.5598395138320579  0.413687567071288  0.7484067812788164  1.0000
  H   H22       1.0  0.5470353634512061  0.4101460463041881  0.8220367848204836  1.0000
  H   H23       1.0  0.5595729601982111  0.25667393789841086  0.8176551717516343  1.0000
  H   H24       1.0  0.5686808065296801  0.2602770340303982  0.7434792483609527  1.0000
  C   C37       1.0  0.5686861587773088  0.5424161121372172  0.5434902165109884  1.0000
  C   C38       1.0  0.565289976524573  0.5718972563924472  0.5774584631063145  1.0000
  C   C39       1.0  0.5256385584073803  0.6062224999763209  0.5810145226908632  1.0000
  C   C40       1.0  0.48829718244687553  0.6103780046486962  0.5511380658121106  1.0000
  C   C41       1.0  0.4922040463633517  0.581598562587794  0.5166728997255351  1.0000
  C   C42       1.0  0.5327808077733802  0.5479517223247545  0.5126312143424275  1.0000
  H   H25       1.0  0.5930792882645868  0.5682204481130315  0.601261107344417  1.0000
  H   H26       1.0  0.5234622107378205  0.6288262929269567  0.6074194177590355  1.0000
  H   H27       1.0  0.46269352469666103  0.5836172860584471  0.49401961896302615  1.0000
  H   H28       1.0  0.5349262303113365  0.5247695159863582  0.486560686481656  1.0000
  C   C43       1.0  0.5495448688519866  0.5870423539138173  0.8498901641319087  1.0000
  C   C44       1.0  0.5874305544908153  0.5561276022448064  0.8335715324378395  1.0000
  C   C45       1.0  0.5954335288328032  0.5537589543464514  0.7918230137569318  1.0000
  C   C46       1.0  0.5665683768069395  0.5833326395171592  0.7665030260428716  1.0000
  C   C47       1.0  0.5294104207269844  0.6149413050125127  0.7829045893412673  1.0000
  C   C48       1.0  0.5203708294276869  0.6163053191388518  0.8245212553268687  1.0000
  H   H29       1.0  0.6104589109639075  0.5337908786234534  0.8531212453916845  1.0000
  H   H30       1.0  0.6244672731583811  0.5296707811732232  0.7793105427791917  1.0000
  H   H31       1.0  0.507247629505001  0.6380246141111955  0.7633551102078182  1.0000
  H   H32       1.0  0.49133995433811256  0.6403334691406265  0.8369661259678005  1.0000
  C   C49       1.0  0.4427547666874599  0.5668599338989438  0.27278005912598513  1.0000
  C   C50       1.0  0.45745481932520027  0.6005191367753204  0.3015201452476396  1.0000
  C   C51       1.0  0.42325817153032624  0.612454996711646  0.3332933145416483  1.0000
  C   C52       1.0  0.37514891904112835  0.5901355566333136  0.33661191610645663  1.0000
  C   C53       1.0  0.3607969061093729  0.5564296954681043  0.30792957851689  1.0000
  C   C54       1.0  0.39434724821704215  0.5451545666046651  0.27588457167272407  1.0000
  H   H33       1.0  0.4940894649124581  0.6185662203971205  0.298317960466578  1.0000
  H   H34       1.0  0.43345648617319077  0.6394922071915347  0.3547966562915895  1.0000
  H   H35       1.0  0.3235319175286865  0.5393273340387312  0.3102600856087113  1.0000
  H   H36       1.0  0.3827252334023965  0.519544933834536  0.2533714212772557  1.0000
  C   C55       1.0  0.5853881797514392  0.590567961809671  0.08876431126474953  1.0000
  C   C56       1.0  0.5729148124637613  0.6051859398407872  0.04979681253398627  1.0000
  C   C57       1.0  0.5229318610279385  0.6228798755351376  0.04171041432625744  1.0000
  C   C58       1.0  0.4857842696432027  0.626749161331725  0.07272185133705  1.0000
  C   C59       1.0  0.4978389305300174  0.6103569330470637  0.11106580910488695  1.0000
  C   C60       1.0  0.5471322899056441  0.5918664525901586  0.11885496607230488  1.0000
  H   H37       1.0  0.6020204122896647  0.603822028450433  0.026131817089062315  1.0000
  H   H38       1.0  0.5137956567125981  0.6345922682221771  0.011734542650824187  1.0000
  H   H39       1.0  0.46907175835754344  0.6111902559160997  0.13487961853275518  1.0000
  H   H40       1.0  0.5550083600422092  0.5785762419240309  0.14842293779222213  1.0000
  C   C61       1.0  0.28733479236841186  0.9484657597439219  0.47224975464427527  1.0000
  C   C62       1.0  0.32799717015407964  0.9162914424257421  0.46381555972305805  1.0000
  C   C63       1.0  0.31989448062754283  0.8668366733261108  0.4670476267967413  1.0000
  C   C64       1.0  0.27138261050412144  0.849904063889248  0.4792674703028718  1.0000
  C   C65       1.0  0.23164426049490422  0.882186583004886  0.4892354563742257  1.0000
  C   C66       1.0  0.2395210716202738  0.9313353730667102  0.4854369824002818  1.0000
  H   H41       1.0  0.3650810100321507  0.9294770004550096  0.45355383705991315  1.0000
  H   H42       1.0  0.3506824484615422  0.841944358386703  0.4590290581606313  1.0000
  H   H43       1.0  0.19422983123031115  0.8692229052788607  0.49904277243310136  1.0000
  H   H44       1.0  0.20843505708535534  0.9558980228962516  0.4929404425193566  1.0000
  C   C67       1.0  0.8563620445148834  0.2945164255056665  0.6559605647280669  1.0000
  C   C68       1.0  0.8825692084753675  0.3231515057159291  0.6834721352241974  1.0000
  C   C69       1.0  0.8669774937421004  0.3710092629336316  0.6895548687325983  1.0000
  C   C70       1.0  0.8244145657042297  0.38988721462143083  0.6689061997031227  1.0000
  C   C71       1.0  0.7998281344036956  0.3615306383109737  0.6403962509861502  1.0000
  C   C72       1.0  0.8156663436522569  0.314051616978595  0.6339170503492476  1.0000
  H   H45       1.0  0.9146734769910757  0.3084260248617093  0.7001242646831997  1.0000
  H   H46       1.0  0.8874632106487895  0.3930550511571936  0.7106190102708168  1.0000
  H   H47       1.0  0.7693409264046288  0.3762067791208647  0.6225205087667827  1.0000
  H   H48       1.0  0.7959957897916288  0.29233885581059843  0.6120312389215945  1.0000
  C   C73       1.0  0.10039466123684937  0.13916177117726897  0.6182531547372216  1.0000
  C   C74       1.0  0.05710070045234894  0.16371993076737273  0.6035899383254064  1.0000
  C   C75       1.0  0.051560210636945714  0.17076145162304157  0.5621927165941755  1.0000
  C   C76       1.0  0.08867777422717915  0.15228203395292045  0.5352263866120439  1.0000
  C   C77       1.0  0.13195232100266055  0.1275046483399796  0.5498042919174606  1.0000
  C   C78       1.0  0.13793061943528628  0.12112845280793222  0.5913574326638124  1.0000
  H   H49       1.0  0.027514977341265512  0.17697760660075756  0.6240206987586833  1.0000
  H   H50       1.0  0.018045779091120595  0.189782026858348  0.5511407407975927  1.0000
  H   H51       1.0  0.16108464614013862  0.11376766629614042  0.5290911675573365  1.0000
  H   H52       1.0  0.17147346581612938  0.10219598480180223  0.6026164317885142  1.0000
  C   C79       1.0  0.8156918661145721  0.35511970074950927  0.17016881902959272  1.0000
  C   C80       1.0  0.8173140152588958  0.4025519502755331  0.183593891482428  1.0000
  C   C81       1.0  0.7766053828380481  0.42122309414922554  0.20745406331254077  1.0000
  C   C82       1.0  0.7343641300184319  0.3924575519446262  0.217469773256377  1.0000
  C   C83       1.0  0.7326899544616086  0.3453474130956731  0.20334801374149183  1.0000
  C   C84       1.0  0.7734374467208768  0.32660328805891503  0.18002567617194215  1.0000
  H   H53       1.0  0.8506117245755729  0.42427567361256197  0.17653249452120176  1.0000
  H   H54       1.0  0.7786109677114765  0.4572587978969234  0.2191088745444616  1.0000
  H   H55       1.0  0.6999336697659551  0.3231323978214057  0.21034008497617435  1.0000
  H   H56       1.0  0.7721280816020879  0.28990294717935544  0.1696732570114585  1.0000
  C   C85       1.0  0.7577047174945555  0.14413569880378158  0.29719632972362153  1.0000
  C   C86       1.0  0.8024505949980709  0.16129598595999695  0.3154028961217176  1.0000
  C   C87       1.0  0.8104660732304116  0.15394711656636065  0.35657467965030637  1.0000
  C   C88       1.0  0.7736483971349339  0.12960391832608822  0.3796425387857336  1.0000
  C   C89       1.0  0.7291838441185967  0.1123678785976723  0.3614183320107047  1.0000
  C   C90       1.0  0.7212084081408179  0.11941146187231881  0.3202377486016407  1.0000
  H   H57       1.0  0.8306632606635426  0.1808811686023597  0.29805692240731424  1.0000
  H   H58       1.0  0.8444495144420218  0.16825353057041664  0.3706747880737885  1.0000
  H   H59       1.0  0.7011922741759922  0.09312697321658604  0.3791702534369315  1.0000
  H   H60       1.0  0.6865807104747125  0.10597670671015787  0.3063905216399319  1.0000
  C   C91       1.0  0.03457059762016712  0.1923719660062276  0.2937571585672736  1.0000
  C   C92       1.0  0.050186977481551986  0.1641737507771465  0.2607984470124427  1.0000
  C   C93       1.0  0.09646602580173314  0.13731789666568311  0.2624376885201738  1.0000
  C   C94       1.0  0.12655485726008164  0.1385307048963703  0.2971512230646855  1.0000
  C   C95       1.0  0.11125768378133016  0.16755511783589028  0.3295555815439565  1.0000
  C   C96       1.0  0.06541753266045247  0.19447001230046168  0.32784691385665504  1.0000
  H   H61       1.0  0.026326803889589634  0.16243876016842868  0.23437058505395916  1.0000
  H   H62       1.0  0.10794433306871687  0.11448784398613931  0.23749550245070075  1.0000
  H   H63       1.0  0.1344416072804826  0.16875259680392563  0.3563950001669922  1.0000
  H   H64       1.0  0.053449410331004366  0.2162313167814398  0.353351569140764  1.0000
  C   C97       1.0  0.31391369047957557  0.892533148259091  0.967161618651844  1.0000
  C   C98       1.0  0.33681358277881573  0.8516208008638544  0.9839369980855861  1.0000
  C   C99       1.0  0.35146868825918737  0.8127876013588086  0.9593489321574049  1.0000
  C   C100      1.0  0.3439569740972292  0.8152243630738903  0.9178532445162277  1.0000
  C   C101      1.0  0.3220544604299777  0.8564338377865135  0.9009297926946256  1.0000
  C   C102      1.0  0.30676602948694515  0.8949479888643813  0.9255967327075102  1.0000
  H   H65       1.0  0.342672803727143  0.8497766672037969  0.016061608661865234  1.0000
  H   H66       1.0  0.3686380315753844  0.7811126417648165  0.9725391486723546  1.0000
  H   H67       1.0  0.31657223143992025  0.8584922006519637  0.8687646559550807  1.0000
  H   H68       1.0  0.29005670816442763  0.926593179473975  0.9123191444954507  1.0000
  C   C103      1.0  0.2671402194043639  0.08648701420531518  0.8218791544861  1.0000
  C   C104      1.0  0.28538575103896924  0.03943966800413  0.8260128546772537  1.0000
  C   C105      1.0  0.29441216831783285  0.010865410967118681  0.7918910296242396  1.0000
  C   C106      1.0  0.28388451458931013  0.028895691782441005  0.7536215603148362  1.0000
  C   C107      1.0  0.26554528213521217  0.07593906443723905  0.7494328762006685  1.0000
  C   C108      1.0  0.25820210178620984  0.10504949972387387  0.7834996833918448  1.0000
  H   H69       1.0  0.29288473484208255  0.025055608883614244  0.855473134469577  1.0000
  H   H70       1.0  0.3081385462514495  0.9744345625106099  0.7953328936659682  1.0000
  H   H71       1.0  0.25718897368946786  0.08997340603979012  0.7198758816845575  1.0000
  H   H72       1.0  0.2439723824426809  0.14138942204207355  0.7801522383011328  1.0000
  C   C109      1.0  0.02219343579494648  0.007609620812918605  0.8851132254874606  1.0000
  C   C110      1.0  0.9768612275401428  0.9868544738886489  0.8710756201275061  1.0000
  C   C111      1.0  0.9447218372883758  0.012163461697391353  0.8447902981187486  1.0000
  C   C112      1.0  0.9577776834710998  0.05835884712954173  0.8325388234396403  1.0000
  C   C113      1.0  0.00284218590029095  0.07934313731265083  0.8467187199810479  1.0000
  C   C114      1.0  0.03525287396422616  0.05379644535324471  0.872707880118493  1.0000
  H   H73       1.0  0.9668398435121164  0.9509764829613714  0.8803348569535218  1.0000
  H   H74       1.0  0.9101355426613794  0.995586868702124  0.8335512480262066  1.0000
  H   H75       1.0  0.012557858892578544  0.11533719722090285  0.838012255952106  1.0000
  H   H76       1.0  0.07046840847880853  0.06971397382847526  0.8826932986075386  1.0000
  C   C115      1.0  0.09859309071970626  0.12204768309691065  0.06854147356184437  1.0000
  C   C116      1.0  0.06497871529758315  0.09053371940532517  0.04958937853769663  1.0000
  C   C117      1.0  0.015960682709583063  0.08185635529645467  0.06641486313213707  1.0000
  C   C118      1.0  0.0003975098615012218  0.10482462576798517  0.10207315856975449  1.0000
  C   C119      1.0  0.034358368815950335  0.13573728097310125  0.12128938049610148  1.0000
  C   C120      1.0  0.08327754406718646  0.1446163289750117  0.10440050655688503  1.0000
  H   H77       1.0  0.07655858598841836  0.0729106161653878  0.021885454149348282  1.0000
  H   H78       1.0  0.9899217842114334  0.05764183162358462  0.051570023893673156  1.0000
  H   H79       1.0  0.02351855731476382  0.15204577701710006  0.14959986153955346  1.0000
  H   H80       1.0  0.10957198492779227  0.16836959730404422  0.11949050957273194  1.0000
  C   C121      1.0  0.2816126203091401  0.8175379174414042  0.23555805787875111  1.0000
  C   C122      1.0  0.2509893388001646  0.8581400614333501  0.2276512135937812  1.0000
  C   C123      1.0  0.2744950540559799  0.9026167441871162  0.22081227386181237  1.0000
  C   C124      1.0  0.3285264505126747  0.9060850831692173  0.22051741131169134  1.0000
  C   C125      1.0  0.35867008514449394  0.8653637264925426  0.22831004169748276  1.0000
  C   C126      1.0  0.33536814528022435  0.8215630965848636  0.2366082151520653  1.0000
  H   H81       1.0  0.20930863925295565  0.8553605100235251  0.2269628240421816  1.0000
  H   H82       1.0  0.2510722651645295  0.9340499464554608  0.21504386243262086  1.0000
  H   H83       1.0  0.4001640451761876  0.8671080462137787  0.2278057931229537  1.0000
  H   H84       1.0  0.3594289776573697  0.7906810143469858  0.24306671878538866  1.0000
  C   C127      1.0  0.055056232074795375  0.9183636864904237  0.2681247011967276  1.0000
  C   C128      1.0  0.07684584112369919  0.9601903831196282  0.2832355666537678  1.0000
  C   C129      1.0  0.07820176541181323  0.9680607211965622  0.32481675762376994  1.0000
  C   C130      1.0  0.05680941130774886  0.934666215674755  0.3513871569223371  1.0000
  C   C131      1.0  0.03286595998509112  0.8939396647072965  0.3362027823531056  1.0000
  C   C132      1.0  0.032388367112108345  0.8855927409972052  0.29460544957252377  1.0000
  H   H85       1.0  0.09446096813658134  0.9856977432716737  0.2630271807989205  1.0000
  H   H86       1.0  0.09671052564440608  0.9996466578192292  0.3361044350042791  1.0000
  H   H87       1.0  0.01608243143935928  0.8680706253122512  0.35658773569281443  1.0000
  H   H88       1.0  0.015021264608500173  0.8533888889045945  0.28302509047858215  1.0000
  C   C133      1.0  0.7908269496463599  0.3868423597399714  0.9512502240427346  1.0000
  C   C134      1.0  0.830832960414188  0.35314322975341544  0.9550350170766925  1.0000
  C   C135      1.0  0.8197059945213433  0.304343574379003  0.9564193983460002  1.0000
  C   C136      1.0  0.7686108439891796  0.28890584543865055  0.9539546700567764  1.0000
  C   C137      1.0  0.7285945783295715  0.32252184136681417  0.9488183004333625  1.0000
  C   C138      1.0  0.739732747102217  0.37158015951553874  0.9475575733297077  1.0000
  H   H89       1.0  0.8705389274124767  0.36446269819175775  0.9566824727502254  1.0000
  H   H90       1.0  0.8508480412617108  0.27866279533954014  0.9589740477613222  1.0000
  H   H91       1.0  0.6890554890402292  0.3108016282824777  0.9463498984857183  1.0000
  H   H92       1.0  0.7088251462684619  0.39756995252904903  0.9441885271495837  1.0000
  C   C139      1.0  0.02572170662960782  0.31694937674732326  0.9222936332379805  1.0000
  C   C140      1.0  0.01483445900085667  0.27402903665567596  0.9023992743297917  1.0000
  C   C141      1.0  0.01797269335597229  0.2716546355494045  0.8602635927128625  1.0000
  C   C142      1.0  0.033600154161129714  0.31175343213111867  0.838321991236132  1.0000
  C   C143      1.0  0.0475699826684306  0.3535117843419802  0.8584333388672662  1.0000
  C   C144      1.0  0.04326404125126193  0.3562356107057436  0.9003237833625501  1.0000
  H   H93       1.0  0.002476513485941245  0.24310563778143407  0.9192060078934916  1.0000
  H   H94       1.0  0.0077006589729762265  0.23910646782083153  0.8447602892153592  1.0000
  H   H95       1.0  0.06097686712091677  0.38411079114379443  0.8415730248315255  1.0000
  H   H96       1.0  0.05357679295952832  0.3888813942253319  0.9156606894295498  1.0000
  C   C145      1.0  0.9889509803536221  0.5617104438094201  0.10660385310376452  1.0000
  C   C146      1.0  4.595695697329205e-07  0.585150901403008  0.07050498456223142  1.0000
  C   C147      1.0  0.025146988741834964  0.6291289915974213  0.07067935763444178  1.0000
  C   C148      1.0  0.04144009737299603  0.6491399253258473  0.10674606493098107  1.0000
  C   C149      1.0  0.02999150655607541  0.6262415761088742  0.14318504855892125  1.0000
  C   C150      1.0  0.003456579200776577  0.582539338673272  0.14310233727945515  1.0000
  H   H97       1.0  0.9893175593932547  0.5695728513263641  0.0422667954421625  1.0000
  H   H98       1.0  0.03199211505315147  0.6477988953881455  0.04277009442192514  1.0000
  H   H99       1.0  0.04234689944600678  0.6416831434897952  0.17123595225314447  1.0000
  H   H100      1.0  0.9955471716339906  0.5642870488404461  0.1710939244476749  1.0000
  C   C151      1.0  0.788381145948843  0.3235375838510542  0.406419386138608  1.0000
  C   C152      1.0  0.7589101888849931  0.3616660737974854  0.42232544196522387  1.0000
  C   C153      1.0  0.713619756586829  0.35253008870182223  0.4447291150495314  1.0000
  C   C154      1.0  0.6983062621851439  0.30528738033537517  0.45144329686911533  1.0000
  C   C155      1.0  0.7291600677815965  0.2674965675438304  0.4367545147072656  1.0000
  C   C156      1.0  0.7735198924560599  0.27655562801691846  0.41374812796535076  1.0000
  H   H101      1.0  0.7696194310302141  0.398167529556855  0.4158796643940624  1.0000
  H   H102      1.0  0.689914911189803  0.38197673534294796  0.45592618337707513  1.0000
  H   H103      1.0  0.7185428183170338  0.23100618313028298  0.4420985261732094  1.0000
  H   H104      1.0  0.7960620122554263  0.24701976571816028  0.4013747127524961  1.0000
  C   C157      1.0  0.7983282228131275  0.5885354901290821  0.3957425689892044  1.0000
  C   C158      1.0  0.7819446405748098  0.5575277750582632  0.36543519531831803  1.0000
  C   C159      1.0  0.7563831891580929  0.5758909655838518  0.33166880435275203  1.0000
  C   C160      1.0  0.7481876497031962  0.6252965180756886  0.32798330888690763  1.0000
  C   C161      1.0  0.7652290592426699  0.6562286820048292  0.3579843098854222  1.0000
  C   C162      1.0  0.7896658173966761  0.6378191243889749  0.3920524154031593  1.0000
  H   H105      1.0  0.7878754898154652  0.5193270455064516  0.36848301728960486  1.0000
  H   H106      1.0  0.7431935343602196  0.5518176631096033  0.30853395214980767  1.0000
  H   H107      1.0  0.7591133813766852  0.6944607628970485  0.3551019330173512  1.0000
  H   H108      1.0  0.8024202126613182  0.6618436657319986  0.4153988288588717  1.0000
  C   C163      1.0  0.031688595315887635  0.5408055646489713  0.3303917229734759  1.0000
  C   C164      1.0  0.9939497286578851  0.5690353696027077  0.34973100257717166  1.0000
  C   C165      1.0  0.9909985688907745  0.6181711359810755  0.3422608750642567  1.0000
  C   C166      1.0  0.024591234627584502  0.6391280028524922  0.31432010276684164  1.0000
  C   C167      1.0  0.0620982444514111  0.6109061830900441  0.2945305609917578  1.0000
  C   C168      1.0  0.06590765407223032  0.5617263672394155  0.3028045671588224  1.0000
  H   H109      1.0  0.9668223725331236  0.5532381715663105  0.37053341968739356  1.0000
  H   H110      1.0  0.9619604684893542  0.6398163644029595  0.3577596982921824  1.0000
  H   H111      1.0  0.08806316877237252  0.6267858357393474  0.27286879426646593  1.0000
  H   H112      1.0  0.09505978414310579  0.5399178734185935  0.2876377486558527  1.0000
  C   C169      1.0  0.22382267930922276  0.7359208818133508  0.7229428399914858  1.0000
  C   C170      1.0  0.24080216254676787  0.7830967166392497  0.7254856285703336  1.0000
  C   C171      1.0  0.29343887387854284  0.7922241605119713  0.7308751652796046  1.0000
  C   C172      1.0  0.32868330045107275  0.7541261697896536  0.7345431449358065  1.0000
  C   C173      1.0  0.31109271723947024  0.7070950784971353  0.7350849323729474  1.0000
  C   C174      1.0  0.25866338477681633  0.6979938516645393  0.7291192022565165  1.0000
  H   H113      1.0  0.21376519745674147  0.8125020210900463  0.7212676743750223  1.0000
  H   H114      1.0  0.306831026611826  0.828707618306969  0.7307938179618494  1.0000
  H   H115      1.0  0.33818947515367315  0.6776787038388823  0.7387676738496036  1.0000
  H   H116      1.0  0.24546711045237407  0.6615386599740835  0.7288426421960947  1.0000
  C   C175      1.0  0.2876248994992833  0.5280411591921748  0.7864235722281432  1.0000
  C   C176      1.0  0.3330831306489874  0.531464068590073  0.8085766084264584  1.0000
  C   C177      1.0  0.3305041661916821  0.537188675579952  0.850385736928571  1.0000
  C   C178      1.0  0.2825341760508245  0.5393977746992576  0.870211394136554  1.0000
  C   C179      1.0  0.23718145871376123  0.5323503392755018  0.8485235698530318  1.0000
  C   C180      1.0  0.23974181231083322  0.5268513811422593  0.8065795272568512  1.0000
  H   H117      1.0  0.3703497886219655  0.5307909670507542  0.7934826833596097  1.0000
  H   H118      1.0  0.36578488689554955  0.5401368369011007  0.8672583344170064  1.0000
  H   H119      1.0  0.199985416607212  0.5325752343674435  0.863850022463645  1.0000
  H   H120      1.0  0.20467774821329565  0.5214845486033968  0.7899379757274552  1.0000
  C   C181      1.0  0.03785855769252566  0.5236965976288678  0.7872432514741767  1.0000
  C   C182      1.0  0.04679361800538717  0.5699981615466501  0.8014061849360936  1.0000
  C   C183      1.0  0.047370387762084125  0.5790380356277963  0.842871850207683  1.0000
  C   C184      1.0  0.03894607667395977  0.5417871377442867  0.870153600403404  1.0000
  C   C185      1.0  0.031526636907970085  0.4952747451763397  0.8559254740580468  1.0000
  C   C186      1.0  0.030601071259222845  0.4862920415415754  0.8144741980194672  1.0000
  H   H121      1.0  0.05196100185045637  0.5990831558118321  0.780367216421256  1.0000
  H   H122      1.0  0.05301770594112143  0.6150793841221684  0.8537421071939542  1.0000
  H   H123      1.0  0.02752886331000437  0.4660739122001636  0.8767789947899568  1.0000
  H   H124      1.0  0.025427424538155385  0.4502819537955279  0.8034622801837493  1.0000
  C   C187      1.0  0.021605232222834392  0.4530726387542597  0.542076289188163  1.0000
  C   C188      1.0  0.056501505472468905  0.4629771742640177  0.5107480154042249  1.0000
  C   C189      1.0  0.09820557183749434  0.4935540492291853  0.5173175061329078  1.0000
  C   C190      1.0  0.10443183852027228  0.5150007863746997  0.5549391481564545  1.0000
  C   C191      1.0  0.06913844457000895  0.505421028965543  0.5860818698694588  1.0000
  C   C192      1.0  0.02804022206780199  0.4740822514229029  0.5798005132704215  1.0000
  H   H125      1.0  0.051781675844834396  0.44647624334635555  0.4815893467670416  1.0000
  H   H126      1.0  0.1258458809990215  0.5001681361426659  0.4934445512525205  1.0000
  H   H127      1.0  0.07333661203358759  0.5222130482004286  0.6150749565883663  1.0000
  H   H128      1.0  0.000735737800459324  0.46693428285373684  0.6039290718061504  1.0000
  N   N1        1.0  0.9024522867637087  0.2406291603882266  0.4951495850347241  1.0000
  C   C193      1.0  0.8947691553797044  0.29007014233770395  0.4803561710620235  1.0000
  C   C194      1.0  0.8605092667790001  0.2100255008519152  0.4801521854817401  1.0000
  C   C195      1.0  0.9015742182766923  0.2406509677580324  0.539639171488521  1.0000
  C   C196      1.0  0.9529687452919693  0.2217944530049325  0.48035691444037054  1.0000
  H   H129      1.0  0.9252960251940239  0.31441163008220546  0.4915655779043058  1.0000
  H   H130      1.0  0.8565778700662943  0.3051391558640093  0.49022506620192646  1.0000
  H   H131      1.0  0.8959446871935104  0.29140708885961353  0.4468813867791316  1.0000
  H   H132      1.0  0.8645399699919927  0.17249668684277128  0.4910115108159035  1.0000
  H   H133      1.0  0.8216681417948688  0.22345271872734238  0.49013821588329803  1.0000
  H   H134      1.0  0.8603840745674023  0.20866209668135768  0.4467005465354238  1.0000
  H   H135      1.0  0.9075683315757446  0.2039775168504533  0.5519600193059975  1.0000
  H   H136      1.0  0.8639364302761737  0.2543550566562287  0.5519380452235246  1.0000
  H   H137      1.0  0.9325032641323721  0.2636173764701389  0.5520644411016239  1.0000
  H   H138      1.0  0.9600235293527911  0.1843366518752426  0.4905407842059714  1.0000
  H   H139      1.0  0.9857133171840059  0.2436264687892674  0.49138141609945246  1.0000
  H   H140      1.0  0.9553145680990617  0.2217470977993149  0.44690939796865653  1.0000
  N   N2        1.0  0.1588801618071836  0.9804984901114744  0.13696666141384609  1.0000
  C   C197      1.0  0.11798770355028627  0.9485765083600336  0.12218270832811526  1.0000
  C   C198      1.0  0.21022672963823008  0.9615344231508052  0.12420951801808193  1.0000
  C   C199      1.0  0.15595403274928143  0.9829762183407417  0.18131827384145094  1.0000
  C   C200      1.0  0.15105183773771255  0.02898362360801121  0.12026076889728193  1.0000
  H   H141      1.0  0.07872966293805365  0.9616240313188443  0.1316151316296081  1.0000
  H   H142      1.0  0.12248028973759176  0.911682900001091  0.13443430125575676  1.0000
  H   H143      1.0  0.11873352835066056  0.9460027221766153  0.08876437805081862  1.0000
  H   H144      1.0  0.24209536341088322  0.9845281804831775  0.13509074500927512  1.0000
  H   H145      1.0  0.21720472687215878  0.924824861542299  0.136154285794433  1.0000
  H   H146      1.0  0.2138842226570056  0.9595028662170187  0.09079818075732485  1.0000
  H   H147      1.0  0.1175757661755649  0.9971094455320813  0.19174738156491192  1.0000
  H   H148      1.0  0.1862214851576865  0.006661953159045497  0.1936988022217604  1.0000
  H   H149      1.0  0.1608398753767992  0.9468781803913973  0.19498062819405979  1.0000
  H   H150      1.0  0.18101462018758252  0.05427665732573428  0.13074746790752034  1.0000
  H   H151      1.0  0.11250829774865247  0.044160934254874995  0.12914484186863281  1.0000
  H   H152      1.0  0.15302157494319707  0.02869304774369974  0.08685786453887942  1.0000
  N   N3        1.0  0.9441468244653168  0.06387269206161185  0.3423535105183745  1.0000
  C   C201      1.0  0.982217233232378  0.06322252485745287  0.3087608303697124  1.0000
  C   C202      1.0  0.956082790179099  0.024580736094595542  0.37060571910793844  1.0000
  C   C203      1.0  0.8915137494297066  0.057325273709833965  0.3264750806425843  1.0000
  C   C204      1.0  0.9465317884258697  0.11034522500402691  0.363568464635888  1.0000
  H   H153      1.0  0.9740808252509818  0.09227929456991485  0.2867960221206319  1.0000
  H   H154      1.0  0.9819504976042884  0.028544826335447304  0.2922023848838408  1.0000
  H   H155      1.0  0.022324245530952247  0.0686154031777321  0.3196353952069132  1.0000
  H   H156      1.0  0.9952914769493253  0.028206027588871807  0.38349117132730354  1.0000
  H   H157      1.0  0.9280130974269274  0.02386619292338299  0.39625981103473906  1.0000
  H   H158      1.0  0.9551712271307351  0.9890037374033842  0.355483311400878  1.0000
  H   H159      1.0  0.880836475402002  0.08652488033042895  0.30538257812929037  1.0000
  H   H160      1.0  0.8618355523627669  0.057497204773021726  0.3511008855525036  1.0000
  H   H161      1.0  0.8883751555113231  0.022834735689827967  0.3099353587571274  1.0000
  H   H162      1.0  0.9185823607327662  0.11198581924248553  0.3893121815301343  1.0000
  H   H163      1.0  0.9373123941936468  0.14069804328659574  0.3430567340957286  1.0000
  H   H164      1.0  0.9858656915755529  0.11685127662849812  0.3755576861197227  1.0000
  N   N4        1.0  0.16354645672425638  0.579222265284352  0.41096174211118847  1.0000
  C   C205      1.0  0.11114064486017039  0.592741307214125  0.42572310958086185  1.0000
  C   C206      1.0  0.20106158367152815  0.5841244410978016  0.44392068912102683  1.0000
  C   C207      1.0  0.1785519646508047  0.6109486978062951  0.3773433244703536  1.0000
  C   C208      1.0  0.16348350129599942  0.5290627800677197  0.3967095992403226  1.0000
  H   H165      1.0  0.08188771150874219  0.5892071996329764  0.4016205333860131  1.0000
  H   H166      1.0  0.10964389268377439  0.6304487694797157  0.43655626444121387  1.0000
  H   H167      1.0  0.09858762998946546  0.5696181298801196  0.4511973922398779  1.0000
  H   H168      1.0  0.24110293930731008  0.574382976568278  0.43369900578106835  1.0000
  H   H169      1.0  0.20213759523010832  0.6215429075626729  0.4553992872347488  1.0000
  H   H170      1.0  0.19103840997916133  0.5607613325549826  0.4699434447650411  1.0000
  H   H171      1.0  0.1794951424321678  0.6490591133616789  0.3870319231008133  1.0000
  H   H172      1.0  0.15093359197784784  0.6083810238022419  0.35201378584434495  1.0000
  H   H173      1.0  0.21785294151140477  0.6015065702943755  0.3653298695265899  1.0000
  H   H174      1.0  0.20249207923037038  0.5176571327017536  0.38541930191973045  1.0000
  H   H175      1.0  0.13567938418282321  0.5241252829067791  0.37174193784602255  1.0000
  H   H176      1.0  0.15199500066108218  0.5040474562412567  0.4211520413199629  1.0000
  N   N5        1.0  0.6754941855376403  0.28311499512745025  0.31443121764460213  1.0000
  C   C209      1.0  0.7297290788358985  0.2862488444385489  0.29997835571807174  1.0000
  C   C210      1.0  0.6683654930135223  0.23754381048155007  0.33617977952205635  1.0000
  C   C211      1.0  0.6400662564091011  0.28494656478744845  0.27992545642507427  1.0000
  C   C212      1.0  0.663692199503073  0.3237437334526273  0.3416256259283089  1.0000
  H   H177      1.0  0.7396455340919922  0.2569716023757939  0.27836827721444274  1.0000
  H   H178      1.0  0.7575078651545437  0.2835394343369617  0.32523459700893104  1.0000
  H   H179      1.0  0.7370306662371504  0.32101337737438534  0.28481824420366  1.0000
  H   H180      1.0  0.6729836577231345  0.2064587902763201  0.31552547616982834  1.0000
  H   H181      1.0  0.697241153227596  0.23295055240861295  0.36045362241993734  1.0000
  H   H182      1.0  0.6292230480578573  0.23541696209262597  0.35034452523313675  1.0000
  H   H183      1.0  0.5991624073281011  0.2799957503258749  0.2897456500002838  1.0000
  H   H184      1.0  0.6499008612979821  0.25658341295267867  0.25742979811028877  1.0000
  H   H185      1.0  0.6419232056851373  0.32015369342026795  0.26442665616477873  1.0000
  H   H186      1.0  0.6688763590331349  0.3587237267730003  0.3261012570641816  1.0000
  H   H187      1.0  0.6897783717281382  0.32346053371252753  0.36771792147915944  1.0000
  H   H188      1.0  0.6232916645487111  0.3225453404107756  0.35350346066715815  1.0000
  N   N6        1.0  0.08865552361939644  0.37526054552659455  0.6798264963831191  1.0000
  C   C213      1.0  0.10704795971640801  0.3253005515155645  0.6749667686840298  1.0000
  C   C214      1.0  0.10275439722142732  0.4029933495372636  0.6436508166422256  1.0000
  C   C215      1.0  0.11315909544289182  0.3964842131150484  0.7155172388642141  1.0000
  C   C216      1.0  0.03171366006373333  0.37648143200597295  0.6851162473400311  1.0000
  H   H189      1.0  0.14958857618450683  0.32345805908352093  0.669434999944415  1.0000
  H   H190      1.0  0.08805103079401388  0.3074032081040549  0.6491967343531245  1.0000
  H   H191      1.0  0.09889710865439971  0.30399988033812875  0.7025639110022707  1.0000
  H   H192      1.0  0.14542565771950788  0.4040574192480351  0.6388539019216023  1.0000
  H   H193      1.0  0.08532173066291326  0.3877285386221446  0.6160381434279315  1.0000
  H   H194      1.0  0.08855948465886376  0.4405447200756631  0.6464443340121788  1.0000
  H   H195      1.0  0.10074452417454127  0.4343008168900306  0.7199853422670516  1.0000
  H   H196      1.0  0.15611246641022603  0.3960436212857173  0.7126893844536204  1.0000
  H   H197      1.0  0.10248955131525239  0.3769143349603476  0.7434882941843998  1.0000
  H   H198      1.0  0.017063052504366905  0.413790746337286  0.689892300902655  1.0000
  H   H199      1.0  0.01926845860079829  0.3551742701679622  0.7115973228208726  1.0000
  H   H200      1.0  0.011869387565215606  0.3616697193663773  0.6583710937704822  1.0000
  N   N7        1.0  0.10726181346161479  0.02125367463171912  0.7575644229906084  1.0000
  C   C217      1.0  0.1034542951114043  0.9810930413821934  0.786309484100584  1.0000
  C   C218      1.0  0.14268801728148778  0.007707781037589179  0.7240853084246237  1.0000
  C   C219      1.0  0.12767747879446528  0.06371497275028744  0.7783248902267389  1.0000
  C   C220      1.0  0.05543596740562062  0.03255975358966888  0.7415239579768199  1.0000
  H   H201      1.0  0.1418178142572672  0.9720679994544179  0.799426307925256  1.0000
  H   H202      1.0  0.08868766866217978  0.9482496497863973  0.7716218650166066  1.0000
  H   H203      1.0  0.07670932028969943  0.9899747697414968  0.8117920465041746  1.0000
  H   H204      1.0  0.14756336276238696  0.037736139679617794  0.7023718801586136  1.0000
  H   H205      1.0  0.18184394190488587  0.9980453959350982  0.7352365794876476  1.0000
  H   H206      1.0  0.12812857705580055  0.9764513509052929  0.7070575679968601  1.0000
  H   H207      1.0  0.13322060411274658  0.09412427377098712  0.7570938454159625  1.0000
  H   H208      1.0  0.16573882741935123  0.05566737180304184  0.792177830524341  1.0000
  H   H209      1.0  0.10111828373329336  0.07614798321753023  0.8028126119475212  1.0000
  H   H210      1.0  0.038788994200921856  0.001311923417532279  0.7257059458428747  1.0000
  H   H211      1.0  0.05703463502724815  0.06258852894438253  0.7196428597922891  1.0000
  H   H212      1.0  0.027726930975982885  0.04329416762647089  0.7658639951508556  1.0000
  N   N8        1.0  0.8396747585834698  0.5117961098961848  0.5658280027889122  1.0000
  C   C221      1.0  0.833145234917016  0.5387973067438319  0.6038375238273072  1.0000
  C   C222      1.0  0.7952068776289375  0.5218636600799462  0.539423928057426  1.0000
  C   C223      1.0  0.8422808022345567  0.4600120222396947  0.574697513011093  1.0000
  C   C224      1.0  0.8881074697029119  0.5264697317403847  0.5454748515078184  1.0000
  H   H213      1.0  0.83132440893956  0.5780587204708901  0.5984163468537813  1.0000
  H   H214      1.0  0.8656737134536533  0.5314176850065728  0.624696825808305  1.0000
  H   H215      1.0  0.7969435502965213  0.5285775533719259  0.6199577596506831  1.0000
  H   H216      1.0  0.7986454997192557  0.5017587418526823  0.5105786052144942  1.0000
  H   H217      1.0  0.7578255716968432  0.5117265004575825  0.5539493200330555  1.0000
  H   H218      1.0  0.792602855684445  0.5605127753346055  0.5314756169471446  1.0000
  H   H219      1.0  0.8058795976079708  0.4476521240860449  0.5892691641179818  1.0000
  H   H220      1.0  0.8746749184048848  0.45123580164225197  0.5953329777153167  1.0000
  H   H221      1.0  0.8486876442417363  0.43840641166075234  0.5469506971468523  1.0000
  H   H222      1.0  0.8943658512526265  0.506452812227827  0.516931950920209  1.0000
  H   H223      1.0  0.9224827672112259  0.5193062166404679  0.5645091785704244  1.0000
  H   H224      1.0  0.8873610329381623  0.5652299775469208  0.5377917866198557  1.0000
  N   N9        1.0  0.155938373763805  0.5891421785609521  0.0023529463405036477  1.0000
  C   C225      1.0  0.15809991974098078  0.545967780717798  0.9765616650988824  1.0000
  C   C226      1.0  0.1148873734571597  0.6219067065163311  0.9879949818071365  1.0000
  C   C227      1.0  0.20630335327168348  0.613643204306402  0.0005225949666807228  1.0000
  C   C228      1.0  0.14429871810674957  0.5751719629991228  0.04433689308733069  1.0000
  H   H225      1.0  0.18965479065774044  0.5209583923063663  0.985697547777022  1.0000
  H   H226      1.0  0.16537893916300872  0.5553052720587167  0.9444662102139635  1.0000
  H   H227      1.0  0.12096354933732552  0.5261878919495778  0.9777751919552643  1.0000
  H   H228      1.0  0.0762188317038347  0.6048121548715162  0.9899224383028656  1.0000
  H   H229      1.0  0.1129200159052094  0.6554401455695654  0.006186172644952581  1.0000
  H   H230      1.0  0.12117013843839912  0.6318563135040436  0.9559725901906788  1.0000
  H   H231      1.0  0.20636230474064826  0.6458857408297868  0.0202731813747572  1.0000
  H   H232      1.0  0.2157715894721781  0.6253463464409682  0.9693689457584349  1.0000
  H   H233      1.0  0.23847576236635232  0.5895292658293952  0.010127312529133237  1.0000
  H   H234      1.0  0.14110827765172487  0.6071003036490012  0.06445381155953656  1.0000
  H   H235      1.0  0.17487528193421087  0.5510525940973174  0.05646011316392796  1.0000
  H   H236      1.0  0.10681453488288782  0.5559909102295499  0.046678658629745406  1.0000
  N   N10       1.0  0.6000151001939973  0.6334958244548591  0.3912999648219419  1.0000
  C   C229      1.0  0.5529800744888632  0.605679602710206  0.3832726123948403  1.0000
  C   C230      1.0  0.6434752735134311  0.6002904196190685  0.39982441849698114  1.0000
  C   C231      1.0  0.5906178186426772  0.6651504231085398  0.42637857201000173  1.0000
  C   C232      1.0  0.6127613478454659  0.6628852033920855  0.35567093424046775  1.0000
  H   H237      1.0  0.5199971895083804  0.6297444317501437  0.3757776391144632  1.0000
  H   H238      1.0  0.5412046182467568  0.5839601238426372  0.40983455283937553  1.0000
  H   H239      1.0  0.558903314919502  0.5807612666348603  0.35739434351826493  1.0000
  H   H240      1.0  0.6794300401870521  0.6200337584938131  0.40677725474785026  1.0000
  H   H241      1.0  0.6346817688315872  0.5769376359171272  0.42609954058390836  1.0000
  H   H242      1.0  0.6524213223756302  0.5766270772855528  0.37359962955726034  1.0000
  H   H243      1.0  0.6255312167550553  0.6863903347043092  0.4334399649443723  1.0000
  H   H244      1.0  0.5800320817315522  0.6442756666339279  0.45374310285500424  1.0000
  H   H245      1.0  0.558487113076526  0.6911221751156361  0.42070935312633523  1.0000
  H   H246      1.0  0.6490336764665868  0.6832883946049044  0.3599546857452683  1.0000
  H   H247      1.0  0.5813928786587488  0.6892952755929224  0.3490232050387719  1.0000
  H   H248      1.0  0.6184708002358336  0.640321165786389  0.3283255294837419  1.0000
  N   N11       1.0  0.8828299078952504  0.6345907703513489  0.24703041063090503  1.0000
  C   C233      1.0  0.9086560150774596  0.669664407346372  0.2204968121720116  1.0000
  C   C234      1.0  0.8742176509275928  0.6559961754918251  0.2873000866995571  1.0000
  C   C235      1.0  0.9159327962104098  0.5912940099891801  0.2504234056773434  1.0000
  C   C236      1.0  0.8324523733702807  0.6213520004886173  0.22991841378081346  1.0000
  H   H249      1.0  0.9161020496530254  0.6547033846629411  0.18986769862922503  1.0000
  H   H250      1.0  0.9467755972208628  0.6804564886844564  0.23276168311199988  1.0000
  H   H251      1.0  0.8848718608899447  0.7028864462610019  0.21730609706463078  1.0000
  H   H252      1.0  0.8584809072473716  0.6294641924104876  0.3090301236019834  1.0000
  H   H253      1.0  0.9107552312029061  0.6697703327066449  0.2999521988730285  1.0000
  H   H254      1.0  0.846268366506055  0.6866138010092168  0.28629304227953084  1.0000
  H   H255      1.0  0.8988932796893135  0.5648941246372232  0.27169145744134304  1.0000
  H   H256      1.0  0.9549776925208749  0.6003246740663686  0.26160959193196826  1.0000
  H   H257      1.0  0.9215498760955455  0.5733142080880522  0.22077109317971477  1.0000
  H   H258      1.0  0.806333590232219  0.6531565249725868  0.22703225845326877  1.0000
  H   H259      1.0  0.8119061114951414  0.5952732957628512  0.24953858577683402  1.0000
  H   H260      1.0  0.8371961287405317  0.6050145436009339  0.19954382131733706  1.0000
  N   N12       1.0  0.780156594872429  0.09488407454238655  0.8609336543499927  1.0000
  C   C237      1.0  0.785850624070835  0.09031355762411143  0.8168058375776656  1.0000
  C   C238      1.0  0.7627439366522807  0.1440091186085077  0.8710420615088378  1.0000
  C   C239      1.0  0.8303475587271815  0.08522462850621491  0.8803235486069946  1.0000
  C   C240      1.0  0.7415618703944302  0.06018526797301494  0.8756404915608248  1.0000
  H   H261      1.0  0.8023009620103959  0.0547244875392335  0.808043992426004  1.0000
  H   H262      1.0  0.8122890456338095  0.11789558155611819  0.8043623295273802  1.0000
  H   H263      1.0  0.7479365409823998  0.09472382080920723  0.8016043006757932  1.0000
  H   H264      1.0  0.7913312619747803  0.17110893503605393  0.8609569536920406  1.0000
  H   H265      1.0  0.7253752670265922  0.15281776305043723  0.8564960186210278  1.0000
  H   H266      1.0  0.7573953854135871  0.14859865504608663  0.9040408253550342  1.0000
  H   H267      1.0  0.8601063657205231  0.11134738923899887  0.8704628855107504  1.0000
  H   H268      1.0  0.8454996850954032  0.0488791716058979  0.8726198588515743  1.0000
  H   H269      1.0  0.8270169235878716  0.08771393255784216  0.9136508297358353  1.0000
  H   H270      1.0  0.7031228805331751  0.06663364206075688  0.8617588493949658  1.0000
  H   H271      1.0  0.7360124415225504  0.06271175349644152  0.9088198017834427  1.0000
  H   H272      1.0  0.7535415988371251  0.02277312488126748  0.8682218096421651  1.0000
  N   N13       1.0  0.3668682171453707  0.6692161231380933  0.19456745907043355  1.0000
  C   C241      1.0  0.4215294345901297  0.6840000352498852  0.19267237864813447  1.0000
  C   C242      1.0  0.3487984885701385  0.6695158407126239  0.23691440765757632  1.0000
  C   C243      1.0  0.362271168075311  0.6204763957296872  0.1777336917491366  1.0000
  C   C244      1.0  0.33504940327248917  0.7029190852669295  0.17084022438422067  1.0000
  H   H273      1.0  0.43591445547433677  0.6851790314332933  0.16108394986128038  1.0000
  H   H274      1.0  0.4470232277292107  0.6588080658586066  0.20953793746859917  1.0000
  H   H275      1.0  0.4264427307385042  0.7202881845296836  0.20582983084941428  1.0000
  H   H276      1.0  0.3073961950169179  0.6593260915497655  0.2396213106752565  1.0000
  H   H277      1.0  0.37178138279712375  0.644254706890467  0.25547629254587084  1.0000
  H   H278      1.0  0.35236761967374886  0.7055865498238613  0.25071475480968564  1.0000
  H   H279      1.0  0.3748969712883412  0.6192018988218918  0.14558233445478416  1.0000
  H   H280      1.0  0.32167310091589085  0.607812203610424  0.17947764456660387  1.0000
  H   H281      1.0  0.3868177216014485  0.5942916619519639  0.19429013019585903  1.0000
  H   H282      1.0  0.2932189737174934  0.6939639570781367  0.17278995452562676  1.0000
  H   H283      1.0  0.3468850567998774  0.7025844391314866  0.1385031854161489  1.0000
  H   H284      1.0  0.33877043150303704  0.7402773393468487  0.18196980557929676  1.0000
  N   N14       1.0  0.5697987921386957  0.4545651541996561  0.9458750641079505  1.0000
  C   C245      1.0  0.6176729151668443  0.4830435940157228  0.9461467277443932  1.0000
  C   C246      1.0  0.5500194230460617  0.4520105709245936  0.9044476399910377  1.0000
  C   C247      1.0  0.5303632867855177  0.47756813185298824  0.9723560176212963  1.0000
  C   C248      1.0  0.581133997344576  0.405569311860329  0.9603289953897094  1.0000
  H   H285      1.0  0.6481824913266733  0.4668875349413099  0.9262705431632706  1.0000
  H   H286      1.0  0.6336113083796331  0.48593338203791214  0.9769488886862925  1.0000
  H   H287      1.0  0.6103631056490821  0.5201377458594334  0.9351975116378095  1.0000
  H   H288      1.0  0.5149707374422594  0.4292960245581269  0.9027348476994334  1.0000
  H   H289      1.0  0.539248295969296  0.4879673992491898  0.8927839465734178  1.0000
  H   H290      1.0  0.5795319475975433  0.43619564508562675  0.883539058390787  1.0000
  H   H291      1.0  0.49346185399616443  0.45740321249200533  0.9723781750278752  1.0000
  H   H292      1.0  0.5212872045630832  0.5147119544118446  0.962276320248253  1.0000
  H   H293      1.0  0.5437917755075842  0.4799992957831461  0.003953276818348783  1.0000
  H   H294      1.0  0.5965272544940698  0.40575821783743  0.9913898883912404  1.0000
  H   H295      1.0  0.6100341038961612  0.3869627635274472  0.9404428362203112  1.0000
  H   H296      1.0  0.5457711732608402  0.3830974623199563  0.9602936930507697  1.0000
  N   N15       1.0  0.21440201847257168  0.6839159555080786  0.8499792129627206  1.0000
  C   C249      1.0  0.18048926094582152  0.6450483383234794  0.8642418379960491  1.0000
  C   C250      1.0  0.2285473264523195  0.7147651111469869  0.884195276474583  1.0000
  C   C251      1.0  0.18672631048253255  0.7129113913375879  0.8197990750719183  1.0000
  C   C252      1.0  0.26195532800306776  0.6630217310054768  0.8316209936117053  1.0000
  H   H297      1.0  0.1698013901768569  0.6207794441221908  0.8391059048755914  1.0000
  H   H298      1.0  0.14382079446733045  0.6593755896660374  0.8776980178211106  1.0000
  H   H299      1.0  0.20003890558838697  0.6226924855801421  0.887301186081974  1.0000
  H   H300      1.0  0.25334028769035966  0.7449842191090863  0.8741454773317986  1.0000
  H   H301      1.0  0.19374045298273407  0.7306561178580132  0.8993302679157215  1.0000
  H   H302      1.0  0.2508808422802636  0.6944155280855039  0.9070276315462492  1.0000
  H   H303      1.0  0.21135779247095968  0.7423618626243882  0.8081128983372466  1.0000
  H   H304      1.0  0.15082662416737877  0.7295719011813863  0.8326127561568152  1.0000
  H   H305      1.0  0.1751285810417441  0.690735998897359  0.7936280951019871  1.0000
  H   H306      1.0  0.28343364621453815  0.640568589729848  0.8535476574954188  1.0000
  H   H307      1.0  0.2887929332804933  0.6914050157337212  0.8210047755112606  1.0000
  H   H308      1.0  0.2529905202526055  0.639685473685108  0.8054938985859379  1.0000
  N   N16       1.0  0.503691828842935  0.7789886729496683  0.8276857312883504  1.0000
  C   C253      1.0  0.45722532993672954  0.8096358178289951  0.8230260973357902  1.0000
  C   C254      1.0  0.4966057535187808  0.7476305297773052  0.8629753441007437  1.0000
  C   C255      1.0  0.5492697796113392  0.809614909331113  0.8334582412218992  1.0000
  C   C256      1.0  0.5113275382097583  0.7492436524451263  0.7912323223001688  1.0000
  H   H309      1.0  0.4623615413694204  0.8350963641805218  0.7978751745945414  1.0000
  H   H310      1.0  0.4486801385102294  0.8311748265770199  0.8505848120817165  1.0000
  H   H311      1.0  0.422285420079425  0.7881049766644563  0.8166079786840601  1.0000
  H   H312      1.0  0.4621023418989471  0.7245908219451621  0.8594154662058076  1.0000
  H   H313      1.0  0.5307453610744883  0.7236251946504839  0.8674865535375006  1.0000
  H   H314      1.0  0.4901386757928804  0.768970092555263  0.8909336147469264  1.0000
  H   H315      1.0  0.5851291101195921  0.787857027421278  0.8375950754946739  1.0000
  H   H316      1.0  0.5439918974767827  0.8333352389917895  0.8601948281766133  1.0000
  H   H317      1.0  0.5555967994622818  0.833593309179275  0.8071324529039741  1.0000
  H   H318      1.0  0.5463329636127974  0.7258289170887893  0.7934674154218859  1.0000
  H   H319      1.0  0.5156300625367359  0.7717647863439966  0.7638367060180852  1.0000
  H   H320      1.0  0.47752001122808146  0.7256720163162901  0.7862531040816662  1.0000
  N   N17       1.0  0.4202470471323245  0.039479516286016196  0.9202804304209277  1.0000
  C   C257      1.0  0.42691686873285767  0.03728170460594318  0.8760891549049307  1.0000
  C   C258      1.0  0.46900262451791336  0.02472311023154128  0.9397109273633736  1.0000
  C   C259      1.0  0.3785188410759363  0.006855734665096813  0.9329495979050911  1.0000
  C   C260      1.0  0.40659114933410573  0.0889847006594216  0.9325178933883951  1.0000
  H   H321      1.0  0.43631023283819254  0.00021921015160719615  0.8657157810998719  1.0000
  H   H322      1.0  0.45894656858398103  0.06068422787105792  0.8655845837551135  1.0000
  H   H323      1.0  0.39114077435008826  0.04906381211649999  0.8604423478242401  1.0000
  H   H324      1.0  0.5011885372487644  0.049250646892642545  0.931670173172176  1.0000
  H   H325      1.0  0.4648993655559788  0.0252167121514153  0.9730813884750347  1.0000
  H   H326      1.0  0.48086719867050287  0.9877744591226204  0.9307111582669321  1.0000
  H   H327      1.0  0.3410463605464679  0.01662645875203239  0.9189137926851261  1.0000
  H   H328      1.0  0.37237735368479774  0.007725404535660729  0.966169942391516  1.0000
  H   H329      1.0  0.38770200325828924  0.9690795463987362  0.9245232972048326  1.0000
  H   H330      1.0  0.4021586984432538  0.09206540028445183  0.9657992782020638  1.0000
  H   H331      1.0  0.36963619998837494  0.10118820331714423  0.9187590642389392  1.0000
  H   H332      1.0  0.43731967171086666  0.1145542060111185  0.9233325988252883  1.0000
  N   N18       1.0  0.17910898288835386  0.23917720344023352  0.9227934267918011  1.0000
  C   C261      1.0  0.15344950461466045  0.2810193314999725  0.9420634817715151  1.0000
  C   C262      1.0  0.22307536010250573  0.2553436799773907  0.8975943223408177  1.0000
  C   C263      1.0  0.14159727616080486  0.21407297138598635  0.8972709469088261  1.0000
  C   C264      1.0  0.19833273491822356  0.20627300179026142  0.9541689427331281  1.0000
  H   H333      1.0  0.18038092966752606  0.3006244975606984  0.96187891128984  1.0000
  H   H334      1.0  0.11968790236329396  0.27011409330893654  0.9609721723455061  1.0000
  H   H335      1.0  0.13887165126440837  0.3068189594080075  0.9192697198526963  1.0000
  H   H336      1.0  0.2523286123712378  0.2742986716203384  0.9158089434357524  1.0000
  H   H337      1.0  0.24317902342056907  0.22451340886517168  0.8825410226084123  1.0000
  H   H338      1.0  0.20996812266470766  0.28018904390764754  0.8735394643829446  1.0000
  H   H339      1.0  0.10796216061221364  0.20115756281602493  0.9152775789949205  1.0000
  H   H340      1.0  0.1598065911854445  0.18239976366286625  0.8820890946288108  1.0000
  H   H341      1.0  0.12623429524379315  0.23798459345661382  0.8733434925706886  1.0000
  H   H342      1.0  0.21857440007270612  0.1746073280305689  0.9406550719544933  1.0000
  H   H343      1.0  0.16615352127741145  0.19286289105557497  0.9735513163020085  1.0000
  H   H344      1.0  0.2262830285863484  0.2241139280719111  0.9743082056309934  1.0000
  N   N19       1.0  0.3017560136408958  0.7546178112124219  0.601875825466783  1.0000
  C   C265      1.0  0.34147352051215624  0.7425550111405089  0.6318825314676013  1.0000
  C   C266      1.0  0.29894486971624523  0.7154378560497908  0.5721729619732752  1.0000
  C   C267      1.0  0.3159121053723613  0.7996650633448317  0.5815112393712525  1.0000
  C   C268      1.0  0.25073872767626093  0.7608236096069576  0.621891141982228  1.0000
  H   H345      1.0  0.34638530163964876  0.7723246756881467  0.6536657333273846  1.0000
  H   H346      1.0  0.37998293419518514  0.7356800224054276  0.6173726634802414  1.0000
  H   H347      1.0  0.3309927603581074  0.7100157448498393  0.6492303529001224  1.0000
  H   H348      1.0  0.27027062621327264  0.7237349749905797  0.5483836540246442  1.0000
  H   H349      1.0  0.3371244868654151  0.7090085665255936  0.5572339485705046  1.0000
  H   H350      1.0  0.2872812464429528  0.6811965877463719  0.5865630221779573  1.0000
  H   H351      1.0  0.2861610336282619  0.8105598741142841  0.559391876182457  1.0000
  H   H352      1.0  0.3535677482568132  0.7960465942230962  0.565178339050343  1.0000
  H   H353      1.0  0.3194128419310353  0.829609218134415  0.6033724593791301  1.0000
  H   H354      1.0  0.2198452958342116  0.768985941425805  0.5997907445860315  1.0000
  H   H355      1.0  0.25099560173627244  0.790721087186662  0.6439672860879279  1.0000
  H   H356      1.0  0.2390160001178681  0.7278639804288088  0.6382409060663916  1.0000
  N   N20       1.0  0.5650047289023903  0.7640936451231815  0.10175714359573451  1.0000
  C   C269      1.0  0.5978704540389579  0.7744625906273186  0.1366858355325291  1.0000
  C   C270      1.0  0.5902009740629288  0.7265475440046305  0.07674744781889253  1.0000
  C   C271      1.0  0.5578581459019779  0.8081133314111035  0.07771313654346135  1.0000
  C   C272      1.0  0.5140686970532337  0.7470361127229922  0.1160281341896312  1.0000
  H   H357      1.0  0.5804449537715899  0.803251416222477  0.15574800730241023  1.0000
  H   H358      1.0  0.6370604526453275  0.7864077153650494  0.1271834180849163  1.0000
  H   H359      1.0  0.6025713578594681  0.7424392399435386  0.1563187425636532  1.0000
  H   H360      1.0  0.5964979178010205  0.6930923484804615  0.09431107132887262  1.0000
  H   H361      1.0  0.5660505498775884  0.7171968641341866  0.050445327804289786  1.0000
  H   H362      1.0  0.6286111805006772  0.7381156848388494  0.06512863660193835  1.0000
  H   H363      1.0  0.5955007036547877  0.8222465270661967  0.06658205051554456  1.0000
  H   H364      1.0  0.5390586191809128  0.8372276099614637  0.09579774024297216  1.0000
  H   H365      1.0  0.5329942432886738  0.8016426823829965  0.05120650330698551  1.0000
  H   H366      1.0  0.49359202053706686  0.7746298578033066  0.13469157530353915  1.0000
  H   H367      1.0  0.5183632896404577  0.7143633708781724  0.13487880608180158  1.0000
  H   H368      1.0  0.4884673083855492  0.7378932293561541  0.09050288063693412  1.0000
  N   N21       1.0  0.9300110121971354  0.21914725366978696  0.03276353032508306  1.0000
  C   C273      1.0  0.9275600767976843  0.21185415679085928  0.9888408128973023  1.0000
  C   C274      1.0  0.984635752692837  0.21850861200240673  0.04555452802933879  1.0000
  C   C275      1.0  0.9019382662014682  0.18028052172496437  0.053177634665628526  1.0000
  C   C276      1.0  0.9057665250660099  0.26569683162644714  0.04362046313541268  1.0000
  H   H369      1.0  0.8869404691497291  0.20717105437547623  0.9789048950264386  1.0000
  H   H370      1.0  0.949877147422479  0.17938780458581444  0.9792421352446933  1.0000
  H   H371      1.0  0.9436211924254182  0.24305197277917306  0.972417988421994  1.0000
  H   H372      1.0  0.9877816511036065  0.22360902714099415  0.07864039894237207  1.0000
  H   H373      1.0  0.004167251038777797  0.18388678254265686  0.03795823797229514  1.0000
  H   H374      1.0  0.0070687722194942015  0.24745012788242232  0.030807980377834943  1.0000
  H   H375      1.0  0.9049224959210297  0.18365490017284447  0.08629313315687526  1.0000
  H   H376      1.0  0.9181688542934052  0.14449001150554322  0.044737513921442096  1.0000
  H   H377      1.0  0.860070565877978  0.18067574422142077  0.04564877602281214  1.0000
  H   H378      1.0  0.9259550707700736  0.29595872795966965  0.028630596461613145  1.0000
  H   H379      1.0  0.907198023683224  0.27227422754886854  0.07660198930835227  1.0000
  H   H380      1.0  0.8643793724024382  0.26739309503112013  0.03474247593739044  1.0000
  N   N22       1.0  0.5433503309232777  0.33732520755578316  0.5658654649065316  1.0000
  C   C277      1.0  0.5854650100704711  0.30767490638733835  0.5828955890513614  1.0000
  C   C278      1.0  0.5139384888436253  0.30848882537713207  0.5369080543254564  1.0000
  C   C279      1.0  0.5656743712983038  0.3792115533662031  0.5451544792646147  1.0000
  C   C280      1.0  0.5083320039086988  0.3540210683288121  0.598605076691924  1.0000
  H   H381      1.0  0.6085538359932554  0.3283887956744001  0.6047210143616087  1.0000
  H   H382      1.0  0.6126457740235705  0.29445592137871346  0.5590282899205473  1.0000
  H   H383      1.0  0.5700473182767216  0.2759728752215658  0.5990995023330118  1.0000
  H   H384      1.0  0.5393080526327377  0.29533208172654274  0.5118387180215337  1.0000
  H   H385      1.0  0.49672018057897216  0.27653010721573174  0.5515730243016765  1.0000
  H   H386      1.0  0.4820717360341043  0.3298044159461184  0.5232541332094398  1.0000
  H   H387      1.0  0.5352484123841095  0.4028079248434955  0.5321271443992907  1.0000
  H   H388      1.0  0.5924318936691375  0.36833249325332634  0.5202268073440245  1.0000
  H   H389      1.0  0.5883440169011518  0.40146815157546134  0.566123895656029  1.0000
  H   H390      1.0  0.4752881795465107  0.3754021078344015  0.5867959196323479  1.0000
  H   H391      1.0  0.5290353777807503  0.37714794351658226  0.6202329849989451  1.0000
  H   H392      1.0  0.4924635683670803  0.3235018741562765  0.6161561277240988  1.0000
  N   N23       1.0  0.9584063616001414  0.37102055263068556  0.26725303887684254  1.0000
  C   C281      1.0  0.9729511061991271  0.3419965810539398  0.23158806921306382  1.0000
  C   C282      1.0  0.9966882002200312  0.36301723570544153  0.29928061114877347  1.0000
  C   C283      1.0  0.9066183485892838  0.3567597456537818  0.28195929778223183  1.0000
  C   C284      1.0  0.9573588607107967  0.4222601674653726  0.25623850820383176  1.0000
  H   H393      1.0  0.9447774245414117  0.34704894213880394  0.20683735279827395  1.0000
  H   H394      1.0  0.9740996245884238  0.3031838000761183  0.2389586800574513  1.0000
  H   H395      1.0  0.011895325478883612  0.3516323039494556  0.21972587590776577  1.0000
  H   H396      1.0  0.9866133921021698  0.3841841220162893  0.3266566971219948  1.0000
  H   H397      1.0  0.9986667379971687  0.32465168428548047  0.3082971018415847  1.0000
  H   H398      1.0  0.03620957781879608  0.373807957132269  0.2895137760424813  1.0000
  H   H399      1.0  0.8934783515495024  0.37918046188177557  0.30786958727770325  1.0000
  H   H400      1.0  0.9067771450404493  0.3189063119977734  0.2925433227138267  1.0000
  H   H401      1.0  0.8769754487732506  0.36019628356036026  0.2580920173469559  1.0000
  H   H402      1.0  0.9470604247686846  0.44518000968577376  0.2826449651644384  1.0000
  H   H403      1.0  0.9287083072924954  0.4295360757001193  0.2322116262241816  1.0000
  H   H404      1.0  0.9959350132626914  0.43414527674742637  0.24507617867176176  1.0000
  N   N24       1.0  0.6898795488583784  0.20015814109646  0.7000494847656428  1.0000
  C   C285      1.0  0.7406222186469169  0.21826189382757033  0.6861944427168808  1.0000
  C   C286      1.0  0.6493246227550498  0.21596991937358084  0.671896839206756  1.0000
  C   C287      1.0  0.6778083288488184  0.21915129251802026  0.7406571603583568  1.0000
  C   C288      1.0  0.6915688325606951  0.14726300099380082  0.7014039120705533  1.0000
  H   H405      1.0  0.7724270075689426  0.20679940013910103  0.7064230984197178  1.0000
  H   H406      1.0  0.7407668302936823  0.2580880065605225  0.684961253206273  1.0000
  H   H407      1.0  0.7508904487990449  0.20480420507869776  0.6555165945944698  1.0000
  H   H408      1.0  0.6105871087920183  0.20253415068616937  0.6812212681128584  1.0000
  H   H409      1.0  0.6465617083523413  0.2557231758712559  0.6704317060760198  1.0000
  H   H410      1.0  0.657322832415219  0.2023512634893096  0.6409154833594464  1.0000
  H   H411      1.0  0.6402796913413612  0.20523939895580742  0.7522851691950649  1.0000
  H   H412      1.0  0.6748361778532519  0.25897627348796276  0.7406370079886087  1.0000
  H   H413      1.0  0.7078446015310826  0.20846211180720645  0.7626597458841355  1.0000
  H   H414      1.0  0.6535090848217698  0.13244511750381707  0.7110100798768366  1.0000
  H   H415      1.0  0.720999839366967  0.13397061908585944  0.722909282911419  1.0000
  H   H416      1.0  0.7011491964083  0.13169228441815464  0.671318413505687  1.0000
  N   N25       1.0  0.41981039757516364  0.58822832791168  0.678253358080646  1.0000
  C   C289      1.0  0.44893444476625155  0.5550708155361761  0.6514441063429318  1.0000
  C   C290      1.0  0.3657092133614312  0.5920550440983312  0.6645986849961865  1.0000
  C   C291      1.0  0.4437309975091393  0.6360381333805859  0.6771324375329009  1.0000
  C   C292      1.0  0.4209387500000642  0.5695026873910952  0.7197483844212259  1.0000
  H   H417      1.0  0.49099308032469374  0.5546971577300568  0.6584314521446812  1.0000
  H   H418      1.0  0.44473819128351955  0.5654093071985141  0.6194132365360395  1.0000
  H   H419      1.0  0.4348319903271414  0.5177600377963829  0.6543730012917153  1.0000
  H   H420      1.0  0.34164651227673537  0.6144126972902207  0.6854689755560333  1.0000
  H   H421      1.0  0.36353962691434616  0.6080200666983557  0.6339912103315216  1.0000
  H   H422      1.0  0.34740742877807873  0.5562243923196688  0.6631470958987603  1.0000
  H   H423      1.0  0.4229641579928949  0.6618307435975771  0.6973503997477736  1.0000
  H   H424      1.0  0.4435262142032418  0.651208016901142  0.6462386440338939  1.0000
  H   H425      1.0  0.48483812542583765  0.6343309381157504  0.6867642371483241  1.0000
  H   H426      1.0  0.4613700389603469  0.5650915108039083  0.7304081818637097  1.0000
  H   H427      1.0  0.40247632413988077  0.5337701273739333  0.7217435096844657  1.0000
  H   H428      1.0  0.3998356516618193  0.5936917079639422  0.7411048483035346  1.0000
  N   N26       1.0  0.34629516213265266  0.020871273531447576  0.5885477731519755  1.0000
  C   C293      1.0  0.3740645918202758  0.026792094699114255  0.6267616100866756  1.0000
  C   C294      1.0  0.2920800065052322  0.007455303352779774  0.5971330711081932  1.0000
  C   C295      1.0  0.37202610591205304  0.9827919792187971  0.5644428295492783  1.0000
  C   C296      1.0  0.34713106788111436  0.06629777723780306  0.5658611117281619  1.0000
  H   H429      1.0  0.4153280963714234  0.0364571988448994  0.6215538957995278  1.0000
  H   H430      1.0  0.3739274235946766  0.9930309643558921  0.6443538376458412  1.0000
  H   H431      1.0  0.35560544926516624  0.054883238599300554  0.6461428992323973  1.0000
  H   H432      1.0  0.29011694894061224  0.9734970586357691  0.6145496861649896  1.0000
  H   H433      1.0  0.2715913778821829  0.03536735873532537  0.6154972604070102  1.0000
  H   H434      1.0  0.2700185501828928  0.002544625978420756  0.568857314388032  1.0000
  H   H435      1.0  0.41295386637149006  0.9918762699961361  0.5574046885119456  1.0000
  H   H436      1.0  0.3521567864416752  0.9772256311941351  0.5354269826501936  1.0000
  H   H437      1.0  0.3725690371416647  0.9480617760890395  0.5807989484461401  1.0000
  H   H438      1.0  0.32647040019446644  0.06293292502778924  0.5367924468535346  1.0000
  H   H439      1.0  0.38749917946833556  0.07730820277007044  0.5587344248639446  1.0000
  H   H440      1.0  0.3280079225550399  0.09582806484978401  0.5832053923338206  1.0000
  N   N27       1.0  0.8750317829371103  0.43756666166059577  0.8147688360769527  1.0000
  C   C297      1.0  0.8954179219032401  0.48388749698123557  0.8286800252791401  1.0000
  C   C298      1.0  0.9185423809417974  0.406179850155866  0.8015335789271614  1.0000
  C   C299      1.0  0.8398151009324339  0.4460348411363173  0.780757528189942  1.0000
  C   C300      1.0  0.8463092702636533  0.4143444311908266  0.8480193130482104  1.0000
  H   H441      1.0  0.8637122934473194  0.5085134650961994  0.838911110528613  1.0000
  H   H442      1.0  0.9175078823454421  0.5023155936327526  0.8043325208831708  1.0000
  H   H443      1.0  0.9220904594728816  0.4790649443015152  0.8543500010595833  1.0000
  H   H444      1.0  0.9047346579559974  0.3708385738558637  0.7908045953576415  1.0000
  H   H445      1.0  0.9410010909467567  0.4226384793744123  0.7764115462805545  1.0000
  H   H446      1.0  0.946049129017068  0.3991808373836568  0.8264508349208208  1.0000
  H   H447      1.0  0.8063581746789861  0.4693797426124165  0.7896135119513364  1.0000
  H   H448      1.0  0.8238342249953876  0.41197882672663555  0.7690289708063981  1.0000
  H   H449      1.0  0.8600818700174188  0.46392500137763365  0.7552162909880373  1.0000
  H   H450      1.0  0.8296630691813797  0.3796534103398975  0.8384225876706065  1.0000
  H   H451      1.0  0.8138071847943082  0.4374249526151755  0.859356297291559  1.0000
  H   H452      1.0  0.8717627474113896  0.406847884297439  0.874046467013705  1.0000
  N   N28       1.0  0.3335646016987599  0.04106930539980147  0.31561442787193317  1.0000
  C   C301      1.0  0.29330959472884044  0.013292257390202789  0.29505155319012427  1.0000
  C   C302      1.0  0.3431439918095439  0.02033773381797843  0.35576130298322  1.0000
  C   C303      1.0  0.31583824551944023  0.09131303927247417  0.32020905734071103  1.0000
  C   C304      1.0  0.3819203769198789  0.03936443690615435  0.29136552905706786  1.0000
  H   H453      1.0  0.28620222223425684  0.02730220070441214  0.2642399079510861  1.0000
  H   H454      1.0  0.2556828848421785  0.015162609861582906  0.3115987026126396  1.0000
  H   H455      1.0  0.30489212247144715  0.9749702007037492  0.29173688429591227  1.0000
  H   H456      1.0  0.30733817312316375  0.020638769866900608  0.3747262644612849  1.0000
  H   H457      1.0  0.3571279649590105  0.9825907395123737  0.3535178917097113  1.0000
  H   H458      1.0  0.37264014618632774  0.040976944293488894  0.3724159308429793  1.0000
  H   H459      1.0  0.34590316165066215  0.11383731604755105  0.334276965407341  1.0000
  H   H460      1.0  0.28043558364008564  0.09396804046245703  0.33957450036190157  1.0000
  H   H461      1.0  0.30582794635345334  0.1074613970952091  0.290662036333004  1.0000
  H   H462      1.0  0.41298170171531284  0.06074070986468047  0.30535902888756733  1.0000
  H   H463      1.0  0.3756798864401482  0.05361153830717571  0.26050928338747764  1.0000
  H   H464      1.0  0.39668321510580573  0.0019456040350103174  0.28774793319752323  1.0000
  N   N29       1.0  0.6651634233936695  0.062452876557332386  0.1678078271127828  1.0000
  C   C305      1.0  0.6433643529781177  0.08500217501768934  0.20464510314399512  1.0000
  C   C306      1.0  0.6658229992796301  0.00990104196742192  0.1726617835639454  1.0000
  C   C307      1.0  0.7185859112076786  0.0793547784474672  0.16112389721353207  1.0000
  C   C308      1.0  0.6328545884156384  0.07536378615579889  0.1329677874487162  1.0000
  H   H465      1.0  0.6430992708285345  0.12472910837274899  0.20248916852064053  1.0000
  H   H466      1.0  0.666540135868445  0.07533154843284506  0.23156954627433132  1.0000
  H   H467      1.0  0.603046916368485  0.0731378682974877  0.21076175188118798  1.0000
  H   H468      1.0  0.6261053160817387  0.9962579525243981  0.17784740260649365  1.0000
  H   H469      1.0  0.6817915786978407  0.9914492589691404  0.14544716232767183  1.0000
  H   H470      1.0  0.6892354589152345  0.9987455957201683  0.19902578677228386  1.0000
  H   H471      1.0  0.7364551846015113  0.06313458835806267  0.1336251390777862  1.0000
  H   H472      1.0  0.7437502923398593  0.07013283647337297  0.18703926922724054  1.0000
  H   H473      1.0  0.7196041788550545  0.1189953824204653  0.15783868439678894  1.0000
  H   H474      1.0  0.5922961059869912  0.06300078772166667  0.1371430038371023  1.0000
  H   H475      1.0  0.6478857503691936  0.05845493363749236  0.10472586395153878  1.0000
  H   H476      1.0  0.6314419442645514  0.1147664211377464  0.12820877201993883  1.0000
  N   N30       1.0  0.5500577366345418  0.922329916133024  0.45621503626150656  1.0000
  C   C309      1.0  0.5704224922252321  0.9682660328188583  0.4709687261226177  1.0000
  C   C310      1.0  0.5253387477430651  0.9297878684471668  0.4168185809959065  1.0000
  C   C311      1.0  0.5114425542809766  0.903905373029719  0.48534078991929136  1.0000
  C   C312      1.0  0.5931015979984702  0.887348028015684  0.4516738753203632  1.0000
  H   H477      1.0  0.5991589112159439  0.9835455407918121  0.44948811436146807  1.0000
  H   H478      1.0  0.5897089089212986  0.9640880249645406  0.5005378083621685  1.0000
  H   H479      1.0  0.5389530889366724  0.9954581337864183  0.47493026551873185  1.0000
  H   H480      1.0  0.5088438269416695  0.8959014743239909  0.40506954090556435  1.0000
  H   H481      1.0  0.4934348469378881  0.9568515642397408  0.41893683691214356  1.0000
  H   H482      1.0  0.5536216256157106  0.9429276972957599  0.3939182002377361  1.0000
  H   H483      1.0  0.49592668630755987  0.868803817571562  0.4753713815851809  1.0000
  H   H484      1.0  0.4780907275071996  0.9291731873770085  0.48906052840968356  1.0000
  H   H485      1.0  0.5285161253815315  0.8986409176706891  0.5156642599074468  1.0000
  H   H486      1.0  0.6124894508256188  0.8806748962013766  0.4808658063281699  1.0000
  H   H487      1.0  0.6229167772774359  0.9001989180359018  0.42989793383648406  1.0000
  H   H488      1.0  0.5791117944995878  0.852308403772199  0.4403829450930567  1.0000
  N   N31       1.0  0.1976549353574645  0.8433012772957482  0.36509111346408557  1.0000
  C   C313      1.0  0.2529191935061518  0.8527574269164907  0.3723330744441729  1.0000
  C   C314      1.0  0.17951163793885436  0.8735139677442489  0.33158048023487147  1.0000
  C   C315      1.0  0.16673217885527294  0.8545867842080873  0.4016628792460043  1.0000
  C   C316      1.0  0.1914212297379961  0.7922307390472122  0.35473474430756924  1.0000
  H   H489      1.0  0.25889540753016077  0.8903598184459518  0.382220947405714  1.0000
  H   H490      1.0  0.27686571623141826  0.8461999809545443  0.3447172110654554  1.0000
  H   H491      1.0  0.26842612225720874  0.8289030433375006  0.3961762505626551  1.0000
  H   H492      1.0  0.13795105520343937  0.8674197387705228  0.3254591870436411  1.0000
  H   H493      1.0  0.1834867048827765  0.9122342139315475  0.33845348488163957  1.0000
  H   H494      1.0  0.20147240599537675  0.865659560799155  0.30333533307427835  1.0000
  H   H495      1.0  0.12460787636691886  0.8492998472397834  0.39668061126511933  1.0000
  H   H496      1.0  0.17138868996059206  0.8925270933431481  0.41113353184459406  1.0000
  H   H497      1.0  0.17813106502923182  0.8313823367962032  0.42727680121091016  1.0000
  H   H498      1.0  0.149969315870262  0.7834253438193466  0.3503143763588599  1.0000
  H   H499      1.0  0.20625217043660163  0.7685524105188765  0.37901862861648333  1.0000
  H   H500      1.0  0.21293387532642039  0.7827108849232266  0.3265163457528665  1.0000
  N   N32       1.0  0.7720641522133295  0.46899662590130325  0.0773171507144157  1.0000
  C   C317      1.0  0.8105050553933741  0.5017610172708015  0.059528409155118256  1.0000
  C   C318      1.0  0.7938244818352752  0.4198255751787236  0.07817417278022165  1.0000
  C   C319      1.0  0.7246603249273871  0.4697294409423621  0.05289832178918519  1.0000
  C   C320      1.0  0.7592932264260848  0.4848932591981973  0.11866456353169519  1.0000
  H   H501      1.0  0.847168878098466  0.501569285070172  0.07684221965792859  1.0000
  H   H502      1.0  0.7955664656265905  0.5392879296346301  0.058816472070346126  1.0000
  H   H503      1.0  0.8204009546968206  0.4913372562507568  0.02812196409332568  1.0000
  H   H504      1.0  0.8021066764018773  0.40614366451399175  0.04725092643750739  1.0000
  H   H505      1.0  0.8308004254095122  0.4182548416843973  0.09504969228900806  1.0000
  H   H506      1.0  0.7667385429256207  0.3944327333326139  0.09296331455588303  1.0000
  H   H507      1.0  0.732872897123445  0.4572749305287912  0.021613215534157293  1.0000
  H   H508      1.0  0.707864527005899  0.5065399413888314  0.05099248021337055  1.0000
  H   H509      1.0  0.6944091448267318  0.4462778832654259  0.06612315370060107  1.0000
  H   H510      1.0  0.7307031926432294  0.460846322726992  0.13340011960812004  1.0000
  H   H511      1.0  0.742242244003115  0.5216423572493564  0.11887195856583488  1.0000
  H   H512      1.0  0.7944193699735549  0.4856585486064351  0.13761105430848852  1.0000
