data_image0
_chemical_formula_structural       FeS2FeS2FeSFeS3FeS2FeS2FeSFeS3FeS2FeS2FeSFeS3FeS2FeS2FeSFeS3FeS2FeS2FeSFeS3FeS2FeS2FeSFeS3FeS2FeS2FeSFeS3FeS2FeS2FeSFeS3FeS2FeS2FeSFeS3FeS2FeS2FeSFeS3FeS2FeS2FeSFeS3FeS2FeS2FeSFeS3FeS2FeS2FeSFeS3FeS2FeS2FeSFeS3FeS2FeS2FeSFeS3FeS2FeS2FeSFeS3C6H4C6H4C6H4C6H4C6H4C6H4C6H4C6H4C6H4C6H4C6H4C6H4C6H4C6H4C6H4C6H4C6H4C6H4C6H4C6H4C6H4C6H4C6H4C6H4C6H4C6H4C6H4C6H4C6H4C6H4C6H4C6H4NC4H12NC4H12NC4H12NC4H12NC4H12NC4H12NC4H12NC4H12NC4H12NC4H12NC4H12NC4H12NC4H12NC4H12NC4H12NC4H12NC4H12NC4H12NC4H12NC4H12NC4H12NC4H12NC4H12NC4H12NC4H12NC4H12NC4H12NC4H12NC4H12NC4H12NC4H12NC4H12
_chemical_formula_sum              "Fe64 S128 C320 H512 N32"
_cell_length_a       26.51020824100977
_cell_length_b       26.040645895738614
_cell_length_c       25.519426645502236
_cell_angle_alpha    90.29059011297316
_cell_angle_beta     89.88827170614766
_cell_angle_gamma    87.40361829644094

_space_group_name_H-M_alt    "P 1"
_space_group_IT_number       1

loop_
  _space_group_symop_operation_xyz
  'x, y, z'

loop_
  _atom_site_type_symbol
  _atom_site_label
  _atom_site_symmetry_multiplicity
  _atom_site_fract_x
  _atom_site_fract_y
  _atom_site_fract_z
  _atom_site_occupancy
  Fe  Fe1       1.0  0.30611311517122036  0.753309579392943  0.7951137300482336  1.0000
  S   S1        1.0  0.2309047420478916  0.7470289042674627  0.8346171247046863  1.0000
  S   S2        1.0  0.3653256555308532  0.6888087890034847  0.7967195775263606  1.0000
  Fe  Fe2       1.0  0.28073430165120833  0.8596776976727468  0.7520317573219929  1.0000
  S   S3        1.0  0.20408342067754506  0.8624992444515307  0.7886575369180813  1.0000
  S   S4        1.0  0.2940554538693285  0.9290525462802935  0.7027546274470386  1.0000
  Fe  Fe3       1.0  0.24223776940852723  0.8286031299988225  0.8591966262212994  1.0000
  S   S5        1.0  0.22476146209432504  0.8633181975009419  0.9383619964581936  1.0000
  Fe  Fe4       1.0  0.19984533770773186  0.7816572747159147  0.7605349915313296  1.0000
  S   S6        1.0  0.1305869277406768  0.7613617041226417  0.7162351137281106  1.0000
  S   S7        1.0  0.3201888566886792  0.8326648527602362  0.8253081750862652  1.0000
  S   S8        1.0  0.27393274302940973  0.780798807461946  0.7183596762566357  1.0000
  Fe  Fe5       1.0  0.5150606797620783  0.07140467966309005  0.09376129687422878  1.0000
  S   S9        1.0  0.43682787606207873  0.042876011907493794  0.08908303341213569  1.0000
  S   S10       1.0  0.5453938658062091  0.12577739827489764  0.15317966965934582  1.0000
  Fe  Fe6       1.0  0.5509821988775762  0.010596311868465769  0.9984297107265688  1.0000
  S   S11       1.0  0.4756331156316374  0.9770420019342219  0.9840948386488859  1.0000
  S   S12       1.0  0.6176444336028292  0.9956589977907733  0.944968932823759  1.0000
  Fe  Fe7       1.0  0.4438263271966209  0.0563874702102261  0.0026427683590710682  1.0000
  S   S13       1.0  0.374925283336301  0.09027615619193692  0.9618192337246696  1.0000
  Fe  Fe8       1.0  0.4747651159951104  0.9661832672314761  0.0710595514086965  1.0000
  S   S14       1.0  0.4472570169446382  0.8954546413033957  0.10945182002203287  1.0000
  S   S15       1.0  0.5193643684124168  0.09138894078677456  0.008801899742836738  1.0000
  S   S16       1.0  0.5525446083162505  0.9933022845709155  0.08434077283420809  1.0000
  Fe  Fe9       1.0  0.7536996170611002  0.7902074119116819  0.36078637299676086  1.0000
  S   S17       1.0  0.6700111366263163  0.8048087015475403  0.3680237584557827  1.0000
  S   S18       1.0  0.7921983572316674  0.772436018083701  0.43802812799749796  1.0000
  Fe  Fe10      1.0  0.753871686663063  0.8220003581826069  0.24551076657134707  1.0000
  S   S19       1.0  0.6706694414451676  0.8414441370176569  0.24466375132923285  1.0000
  S   S20       1.0  0.8045589984385705  0.8283685277327818  0.1744591741628233  1.0000
  Fe  Fe11      1.0  0.6829016134243445  0.8765079717325882  0.3236240456054867  1.0000
  S   S21       1.0  0.6431040578556638  0.9482428247747051  0.3540493058014947  1.0000
  Fe  Fe12      1.0  0.6648327759539328  0.7680283113038585  0.28908215835703477  1.0000
  S   S22       1.0  0.6039536540284411  0.7161810907775957  0.2632376763718219  1.0000
  S   S23       1.0  0.7671060884527077  0.8649654340520047  0.32085953460308225  1.0000
  S   S24       1.0  0.7477163335251978  0.7456120518225363  0.2853429367078401  1.0000
  Fe  Fe13      1.0  0.7297708679858743  0.21228825095031742  0.2782677835946336  1.0000
  S   S25       1.0  0.6738199418122022  0.2616235139613261  0.23263618606842967  1.0000
  S   S26       1.0  0.7510968231390405  0.13231138622165547  0.25029952312304066  1.0000
  Fe  Fe14      1.0  0.7607582581414588  0.30103129144516727  0.3470947016570784  1.0000
  S   S27       1.0  0.7096853504724054  0.3569749038064764  0.3052255314214904  1.0000
  S   S28       1.0  0.8067942700167299  0.33573347648322704  0.41083820608283267  1.0000
  Fe  Fe15      1.0  0.6531552601858523  0.29605194466223467  0.3110189034836794  1.0000
  S   S29       1.0  0.5784387257564958  0.3256120816784193  0.34348980925138567  1.0000
  Fe  Fe16      1.0  0.7355072657482481  0.31750794904527024  0.23184450966976886  1.0000
  S   S30       1.0  0.752615759231736  0.3621849875661481  0.15964526149310468  1.0000
  S   S31       1.0  0.7032330024238401  0.24130938561492585  0.35726473717968027  1.0000
  S   S32       1.0  0.7927879485761902  0.26652402467090486  0.27278870390817805  1.0000
  Fe  Fe17      1.0  0.7719975510566544  0.3873518419549457  0.8043875492951685  1.0000
  S   S33       1.0  0.8421356634988955  0.35097399629096526  0.8389153023109718  1.0000
  S   S34       1.0  0.7322981370188402  0.4592781206511051  0.8364995953694696  1.0000
  Fe  Fe18      1.0  0.7787560883494686  0.3188749032727958  0.7076732212330316  1.0000
  S   S35       1.0  0.851177805873093  0.2775930979219848  0.7325050690866154  1.0000
  S   S36       1.0  0.7277086230230024  0.2995527681461436  0.6408941016492298  1.0000
  Fe  Fe19      1.0  0.8133551956080692  0.27562716280906185  0.8112397913498405  1.0000
  S   S37       1.0  0.8170768969109968  0.20588359046121804  0.8635702675874498  1.0000
  Fe  Fe20      1.0  0.874773535483031  0.35584531899295574  0.7581088734105428  1.0000
  S   S38       1.0  0.9496162353756215  0.39383438453382835  0.7556154926552903  1.0000
  S   S39       1.0  0.7394030777621965  0.31179288594276855  0.7850108146204835  1.0000
  S   S40       1.0  0.8058524981374305  0.3972003052039622  0.7249035066305752  1.0000
  Fe  Fe21      1.0  0.032068295856727325  0.5990064821534512  0.09878653392792772  1.0000
  S   S41       1.0  0.06486334535717614  0.5805842698396724  0.01893352077788446  1.0000
  S   S42       1.0  0.025527963855562996  0.6727233659109779  0.14469014718143436  1.0000
  Fe  Fe22      1.0  0.9982501272559854  0.4920017895561775  0.11765687810284217  1.0000
  S   S43       1.0  0.026050347146947542  0.4629197789269244  0.03990933842210609  1.0000
  S   S44       1.0  0.9715162481625058  0.44438563080555277  0.1840165311264574  1.0000
  Fe  Fe23      1.0  0.09457621830496943  0.5071199531902294  0.056691400609232855  1.0000
  S   S45       1.0  0.1660947007742242  0.4587957164676287  0.04423314082585561  1.0000
  Fe  Fe24      1.0  0.994453841899294  0.5373487187193288  0.007124369748643611  1.0000
  S   S46       1.0  0.9528188388432222  0.530041751576692  0.9305521781867783  1.0000
  S   S47       1.0  0.06932931217469579  0.5304039326748706  0.1372918498592557  1.0000
  S   S48       1.0  0.9587131967912752  0.5618575229870234  0.08396058220138114  1.0000
  Fe  Fe25      1.0  0.26010063559269586  0.7261177481754717  0.1966908124880626  1.0000
  S   S49       1.0  0.3168428473380061  0.6927387429996671  0.25351096985681654  1.0000
  S   S50       1.0  0.2561896898101201  0.6963304952617002  0.11435519693051656  1.0000
  Fe  Fe26      1.0  0.20386484571235688  0.7898533215208934  0.2787491286794938  1.0000
  S   S51       1.0  0.25509375305498794  0.7623041870724593  0.3432085167552967  1.0000
  S   S52       1.0  0.1343193828951029  0.8415381842675496  0.28986606384303437  1.0000
  Fe  Fe27      1.0  0.31780086431974847  0.7729441512291698  0.2857119768047866  1.0000
  S   S53       1.0  0.38594807477859444  0.8098828944894414  0.31908334439688296  1.0000
  Fe  Fe28      1.0  0.25032594139724285  0.6846992605708303  0.3064368403261677  1.0000
  S   S54       1.0  0.24801278509972413  0.6176068189338674  0.36073417537429314  1.0000
  S   S55       1.0  0.2667471160432411  0.8077539927304397  0.22389355619313692  1.0000
  S   S56       1.0  0.19323688064005126  0.7107866234167309  0.2469101890323698  1.0000
  Fe  Fe29      1.0  0.5202656186406658  0.6184315782346226  0.05880525642357136  1.0000
  S   S57       1.0  0.5516514546054089  0.5492810564777688  0.10240153803190814  1.0000
  S   S58       1.0  0.5635792759318821  0.6889280502305224  0.042340555596010576  1.0000
  Fe  Fe30      1.0  0.42348441381064633  0.5690186336089919  0.030367895351596008  1.0000
  S   S59       1.0  0.44498453350290335  0.4959888242823911  0.07153039904467418  1.0000
  S   S60       1.0  0.35317806554056924  0.587508177025041  0.9845440480373369  1.0000
  Fe  Fe31      1.0  0.4734364408243794  0.5463396685823518  0.1358190598265408  1.0000
  S   S61       1.0  0.45325242148666617  0.5183965136486665  0.21645069930642874  1.0000
  Fe  Fe32      1.0  0.521131325288477  0.5041160353552032  0.03523488849081402  1.0000
  S   S62       1.0  0.5574497761647335  0.431315463221369  0.001770144614962721  1.0000
  S   S63       1.0  0.44424543033098385  0.6192911041833015  0.09763502885207638  1.0000
  S   S64       1.0  0.4972206287543356  0.5732805621992235  0.9884527834402994  1.0000
  Fe  Fe33      1.0  0.06907627573995789  0.021159790112238012  0.5124337300569232  1.0000
  S   S65       1.0  0.0655153388613155  0.07563439635576585  0.5807449550788909  1.0000
  S   S66       1.0  0.14510445153783352  0.9871825051919223  0.4879967901078653  1.0000
  Fe  Fe34      1.0  0.9542801712874412  0.028537824077646826  0.4954184822087667  1.0000
  S   S67       1.0  0.9424110290167261  0.08523385850739688  0.561386894789065  1.0000
  S   S68       1.0  0.8895084318552754  0.9995021772689365  0.4471070230766389  1.0000
  Fe  Fe35      1.0  0.011003655193796869  0.12208369086672993  0.5302150524439274  1.0000
  S   S69       1.0  0.018562490737039194  0.20386468033464886  0.5039231440354738  1.0000
  Fe  Fe36      1.0  0.9972798093810097  0.03301018472216888  0.6051106993127451  1.0000
  S   S70       1.0  0.9779570613082232  0.9913415282262616  0.6791661321489051  1.0000
  S   S71       1.0  0.01888907533969686  0.06936749533953723  0.4604116360228725  1.0000
  S   S72       1.0  0.005770810513551661  0.9745732766205357  0.5403939216809205  1.0000
  Fe  Fe37      1.0  0.5190213191660122  0.007496881505735908  0.5473769182847309  1.0000
  S   S73       1.0  0.4598055062586284  0.06304174183119653  0.5166041241783743  1.0000
  S   S74       1.0  0.5053300123722819  0.9324370352560979  0.5874922821149157  1.0000
  Fe  Fe38      1.0  0.6034037542648233  0.0767707901743027  0.5185326766712846  1.0000
  S   S75       1.0  0.5508044500849648  0.13865585999478033  0.4850365044385834  1.0000
  S   S76       1.0  0.683760834988766  0.0898719280869918  0.5413313458093255  1.0000
  Fe  Fe39      1.0  0.5028422797123442  0.12414298128293004  0.555196282686931  1.0000
  S   S77       1.0  0.4571159435085949  0.1843274691310338  0.5999345816360802  1.0000
  Fe  Fe40      1.0  0.5116422792519318  0.07261692659553988  0.4485317668171343  1.0000
  S   S78       1.0  0.461411763049415  0.07599825351859457  0.37759979270915534  1.0000
  S   S79       1.0  0.5578695896907808  0.06808647762628145  0.5920602853810951  1.0000
  S   S80       1.0  0.5684098329446908  0.011296000412343465  0.47607098792167163  1.0000
  Fe  Fe41      1.0  0.275227083919465  0.410429481794161  0.769112383146969  1.0000
  S   S81       1.0  0.350276194958433  0.387100743401748  0.7345430657083015  1.0000
  S   S82       1.0  0.253242832823231  0.4811169811759125  0.8156955857466535  1.0000
  Fe  Fe42      1.0  0.22830451872664925  0.3104694450360059  0.7399550983818618  1.0000
  S   S83       1.0  0.29997911514165937  0.2766286185848344  0.7038615089232957  1.0000
  S   S84       1.0  0.1575607880578447  0.26535458498193054  0.7403343796814069  1.0000
  Fe  Fe43      1.0  0.33880820454136384  0.31127327170106095  0.7726491639157977  1.0000
  S   S85       1.0  0.40834417410945534  0.27718639554621377  0.8114814349992335  1.0000
  Fe  Fe44      1.0  0.30594835325804115  0.35440209400477374  0.6685612960504561  1.0000
  S   S86       1.0  0.3315570327867774  0.364695877522426  0.5858624651108112  1.0000
  S   S87       1.0  0.26677182394440935  0.33685315625159995  0.8129229982408985  1.0000
  S   S88       1.0  0.23139421540419844  0.3862383886463898  0.6991516095900328  1.0000
  Fe  Fe45      1.0  0.9892360074509929  0.5642718067844744  0.5199466463719635  1.0000
  S   S89       1.0  0.013540129845289297  0.4808600126389652  0.5135607226874421  1.0000
  S   S90       1.0  0.9677367611276995  0.5992237180949199  0.4415294851401384  1.0000
  Fe  Fe46      1.0  0.014130047366090137  0.5669130898125451  0.637014954707955  1.0000
  S   S91       1.0  0.04045070312780351  0.48412006501631955  0.6385196080171788  1.0000
  S   S92       1.0  0.021241974844936395  0.6151319752201936  0.7105199406495991  1.0000
  Fe  Fe47      1.0  0.07914565985564237  0.5015553677110106  0.5629218839920896  1.0000
  S   S93       1.0  0.15533247151282523  0.4649635457901717  0.5439110691077141  1.0000
  Fe  Fe48      1.0  0.9721217103579436  0.4718032581685133  0.5890890973341585  1.0000
  S   S94       1.0  0.9218472217417799  0.40652901607876196  0.6061762435444222  1.0000
  S   S95       1.0  0.05829532482062557  0.5856905047828448  0.5643312242418369  1.0000
  S   S96       1.0  0.942365661838123  0.553961104488907  0.592544688220051  1.0000
  Fe  Fe49      1.0  0.3190343556199309  0.30849770847851404  0.234548075451454  1.0000
  S   S97       1.0  0.30087325600452797  0.22716427730316252  0.25166900762574806  1.0000
  S   S98       1.0  0.3913127718271327  0.3214043960125923  0.19181940647247914  1.0000
  Fe  Fe50      1.0  0.21445294310425594  0.3500180361575893  0.26833735779583257  1.0000
  S   S99       1.0  0.1876925009080716  0.2716684011690435  0.28680642428133285  1.0000
  S   S100      1.0  0.15811928250314097  0.41711713364679137  0.26673127918078965  1.0000
  Fe  Fe51      1.0  0.26389688909416437  0.2601954153151595  0.32459117825261313  1.0000
  S   S101      1.0  0.2718671050989835  0.21801607203801945  0.4016999309085115  1.0000
  Fe  Fe52      1.0  0.22716384364721337  0.24686076625958775  0.21235057739663768  1.0000
  S   S102      1.0  0.20065999694738393  0.20553199120535506  0.1405815063999417  1.0000
  S   S103      1.0  0.28872129871309077  0.3407599450352705  0.31050477768667234  1.0000
  S   S104      1.0  0.24764506155564786  0.32632971613153  0.1910003740897887  1.0000
  Fe  Fe53      1.0  0.5169699075805481  0.5704765904595268  0.5067995986223051  1.0000
  S   S105      1.0  0.48239801172072333  0.6258574174578055  0.5659576405061546  1.0000
  S   S106      1.0  0.549608099412471  0.5944568175325653  0.42924098349857315  1.0000
  Fe  Fe54      1.0  0.5072608120444487  0.4786037893938696  0.5784216981595622  1.0000
  S   S107      1.0  0.4690116697401836  0.5255973299999945  0.6425022747288333  1.0000
  S   S108      1.0  0.5506389690366797  0.40224385537402046  0.5811376784438116  1.0000
  Fe  Fe55      1.0  0.42563507104668497  0.5648503035127742  0.5768736672733227  1.0000
  S   S109      1.0  0.34561230893532835  0.5994697519171569  0.5778607680815908  1.0000
  Fe  Fe56      1.0  0.5281592208644625  0.5828909861960012  0.626886110752901  1.0000
  S   S110      1.0  0.5708146215188756  0.6084907301154623  0.6986971214202997  1.0000
  S   S111      1.0  0.45826770581384696  0.5118734978090584  0.5140123945794199  1.0000
  S   S112      1.0  0.5682834886508747  0.5343194513405813  0.5666770913612198  1.0000
  Fe  Fe57      1.0  0.9883911670925203  0.028426852984194676  0.08690925989950093  1.0000
  S   S113      1.0  0.02822338209683783  0.0069365583522327245  0.011987747684067518  1.0000
  S   S114      1.0  0.021445505673839623  0.055032448431103394  0.16303162422559947  1.0000
  Fe  Fe58      1.0  0.8883597143777143  0.9920731927643942  0.04804079193112831  1.0000
  S   S115      1.0  0.9184307322555221  0.9666010052381591  0.969266227898511  1.0000
  S   S116      1.0  0.8129183669444603  0.9819913738929016  0.08510812347496222  1.0000
  Fe  Fe59      1.0  0.9852814867955771  0.9348813061921672  0.01473422324187168  1.0000
  S   S117      1.0  0.030135991748929225  0.8624738481428933  0.9932401692221714  1.0000
  Fe  Fe60      1.0  0.9590183394014226  0.040537189847888344  0.9718244142203456  1.0000
  S   S118      1.0  0.9727387597381009  0.09342039314829456  0.9038146122041979  1.0000
  S   S119      1.0  0.951536936368162  0.9533335474496756  0.09299271264550771  1.0000
  S   S120      1.0  0.9228626550530024  0.06902114955392626  0.04721694226284967  1.0000
  Fe  Fe61      1.0  0.8633606175432869  0.8243049941994691  0.830936314894801  1.0000
  S   S121      1.0  0.8258705743264564  0.8923427649128782  0.8722322406273707  1.0000
  S   S122      1.0  0.9391228221762011  0.7963465380962998  0.8614190606642173  1.0000
  Fe  Fe62      1.0  0.7726692923242892  0.8067754782372645  0.7604051503888896  1.0000
  S   S123      1.0  0.727562683945294  0.8719678203286793  0.7974712003330385  1.0000
  S   S124      1.0  0.7447469927868414  0.768108565316436  0.6867387830733238  1.0000
  Fe  Fe63      1.0  0.7983645665067026  0.9156998322426366  0.7921372654093162  1.0000
  S   S125      1.0  0.7962504879557734  0.9912257360299993  0.7486354297748633  1.0000
  Fe  Fe64      1.0  0.7590268326208213  0.8425691674090087  0.8743221556616124  1.0000
  S   S126      1.0  0.7096704909260275  0.8318478742654962  0.9455524401451803  1.0000
  S   S127      1.0  0.8423739806345811  0.8517959724990707  0.7509025075740264  1.0000
  S   S128      1.0  0.7977778606287711  0.7729660649910799  0.8373433759154274  1.0000
  C   C1        1.0  0.6181760113471553  0.6538662759764534  0.6944808372108537  1.0000
  C   C2        1.0  0.6361486672063582  0.6703749393620088  0.6461224957675371  1.0000
  C   C3        1.0  0.6750192421315394  0.7054152846383128  0.6442748386221802  1.0000
  C   C4        1.0  0.6957184253478262  0.7246025035315207  0.6906747909183586  1.0000
  C   C5        1.0  0.6775323508170127  0.7083610475017744  0.739025861718666  1.0000
  C   C6        1.0  0.6391131620202501  0.6728470162863802  0.7408590967300572  1.0000
  H   H1        1.0  0.6204170748256722  0.6557794896241772  0.6101985950260872  1.0000
  H   H2        1.0  0.6891981977126584  0.7175326122626893  0.6067376048192882  1.0000
  H   H3        1.0  0.6933396276516269  0.7228078263423631  0.7749686731733405  1.0000
  H   H4        1.0  0.6254156756554464  0.6601126126492609  0.7783775132854251  1.0000
  C   C7        1.0  0.15093473544336605  0.16385349238819175  0.14777079190174341  1.0000
  C   C8        1.0  0.12937005383846034  0.14293425830416545  0.10283262687021098  1.0000
  C   C9        1.0  0.08921762267690211  0.10992377315273952  0.1072341833476576  1.0000
  C   C10       1.0  0.07079247173465475  0.09738009694257857  0.1566740096126025  1.0000
  C   C11       1.0  0.09236085461533924  0.11831554748790897  0.20167258751797942  1.0000
  C   C12       1.0  0.13227240479175642  0.15175640058148146  0.19725574150967135  1.0000
  H   H5        1.0  0.1437480787971279  0.15221504869096494  0.06447526670826793  1.0000
  H   H6        1.0  0.07266739240273505  0.09409974119495414  0.07236707218694727  1.0000
  H   H7        1.0  0.07819682961628284  0.10861225533997314  0.2400050258485571  1.0000
  H   H8        1.0  0.14880999161745118  0.16773371132986445  0.23209367088962327  1.0000
  C   C13       1.0  0.20835547995201642  0.5030217737325873  0.5488253382429323  1.0000
  C   C14       1.0  0.25562094564528515  0.47892967683356824  0.5582114940487858  1.0000
  C   C15       1.0  0.2985372094462499  0.5078653817347165  0.5655491105274981  1.0000
  C   C16       1.0  0.2941221647735831  0.56145122348912  0.5634531524694556  1.0000
  C   C17       1.0  0.24698119068999128  0.5857138578364233  0.5523547312178031  1.0000
  C   C18       1.0  0.20417040597000607  0.556536649194171  0.5448336791222865  1.0000
  H   H9        1.0  0.2585783258285214  0.4376862670740589  0.5610885916215148  1.0000
  H   H10       1.0  0.33461400289700266  0.48863141893422374  0.5741238656314728  1.0000
  H   H11       1.0  0.24353511432550437  0.6271769353607385  0.5499052642749341  1.0000
  H   H12       1.0  0.16809387671954146  0.575374870890019  0.5359726851035224  1.0000
  C   C19       1.0  0.3074283097676008  0.3236725162567038  0.5384485467991957  1.0000
  C   C20       1.0  0.30714406101780134  0.27050894187124713  0.5462043880797008  1.0000
  C   C21       1.0  0.2941389610164316  0.23799034577895015  0.5046555688446707  1.0000
  C   C22       1.0  0.28075075539382666  0.2587696587070655  0.45574186948967854  1.0000
  C   C23       1.0  0.2773414791880415  0.31205010782420894  0.449626520514807  1.0000
  C   C24       1.0  0.2917102788082794  0.34434431967100976  0.49040584037942603  1.0000
  H   H13       1.0  0.3197030672410328  0.25435154581010994  0.5831759388122354  1.0000
  H   H14       1.0  0.2962605596794924  0.1968064373508169  0.5100037115318535  1.0000
  H   H15       1.0  0.2645541396343207  0.3286386205082503  0.4132428667653855  1.0000
  H   H16       1.0  0.2912625933648611  0.38552427446374027  0.4844516893667956  1.0000
  C   C25       1.0  0.482687351825057  0.24514341411859913  0.5956330122597638  1.0000
  C   C26       1.0  0.5332267446631017  0.24944635546642344  0.5814574994121489  1.0000
  C   C27       1.0  0.553409574092428  0.29806705782162035  0.5775011102750747  1.0000
  C   C28       1.0  0.5229486758255986  0.34262119921128986  0.5866432196765501  1.0000
  C   C29       1.0  0.4722910714199113  0.3384686419032152  0.6005366614736773  1.0000
  C   C30       1.0  0.45233331850151703  0.28960143386916043  0.6055929751585621  1.0000
  H   H17       1.0  0.5569436320530828  0.21533413126097473  0.5740216509120454  1.0000
  H   H18       1.0  0.592729024058712  0.3011720462123101  0.567055882637735  1.0000
  H   H19       1.0  0.4484889256936146  0.3726981023908738  0.6076780005024748  1.0000
  H   H20       1.0  0.41314520597903265  0.2864146446281868  0.6165679862319673  1.0000
  C   C31       1.0  0.9856022838232722  0.25743884852733695  0.5317841104660094  1.0000
  C   C32       1.0  0.9641086521250364  0.2563775606049884  0.5818862834702723  1.0000
  C   C33       1.0  0.9431404075956552  0.30206825447259783  0.6043245014590326  1.0000
  C   C34       1.0  0.94450073210259  0.3486796800536905  0.5770715386637658  1.0000
  C   C35       1.0  0.9644780141794687  0.3490358900513204  0.5264444197300597  1.0000
  C   C36       1.0  0.9844239753818388  0.30351591510189174  0.5037238281992765  1.0000
  H   H21       1.0  0.9650578920144718  0.2209940952831928  0.6039733938625642  1.0000
  H   H22       1.0  0.9275091071772917  0.3017940699136243  0.6434989050411914  1.0000
  H   H23       1.0  0.9639521189837854  0.3844101076087479  0.5045728420251163  1.0000
  H   H24       1.0  6.422600327460158e-05  0.30429134220598564  0.46455855245921424  1.0000
  C   C37       1.0  0.8299581387680431  0.01737117411195488  0.4741667111895468  1.0000
  C   C38       1.0  0.7858035495015038  0.016799034721315387  0.4438673150752267  1.0000
  C   C39       1.0  0.7394435758395735  0.03638829970407051  0.4647161758032485  1.0000
  C   C40       1.0  0.7376778881476715  0.05724676911560647  0.5153937646795516  1.0000
  C   C41       1.0  0.7813520174016285  0.05557650317023116  0.5460169319724847  1.0000
  C   C42       1.0  0.8268770790014288  0.03493861139014198  0.5258197008665827  1.0000
  H   H25       1.0  0.7874859968036222  0.0026433011997484272  0.4039233810108441  1.0000
  H   H26       1.0  0.7057145028920747  0.03718734541207939  0.44097396382477183  1.0000
  H   H27       1.0  0.7802440873996447  0.07072523313869478  0.5855507319696367  1.0000
  H   H28       1.0  0.8595151951443052  0.03254706707711974  0.5506373354014389  1.0000
  C   C43       1.0  0.9688773477974256  0.0255596562790823  0.7384307978610619  1.0000
  C   C44       1.0  0.9924332022188845  0.07172134797507154  0.7476567773557495  1.0000
  C   C45       1.0  0.9910777023443592  0.0938510418567525  0.798089231316747  1.0000
  C   C46       1.0  0.9659982738072872  0.07006086808545513  0.8393421105920781  1.0000
  C   C47       1.0  0.9400860281183383  0.025583892793527685  0.8292307101777815  1.0000
  C   C48       1.0  0.9417773924300895  0.0032548444414493005  0.7789824276980377  1.0000
  H   H29       1.0  0.01356744287438394  0.0890997141777146  0.7166364555291248  1.0000
  H   H30       1.0  0.011716910740297903  0.12793905866880015  0.8056617508972832  1.0000
  H   H31       1.0  0.9194933779135158  0.007715195633809957  0.8602973898606862  1.0000
  H   H32       1.0  0.9225561228560301  0.9680891134560142  0.7718250609957543  1.0000
  C   C49       1.0  0.4821594859111741  0.5391945048814338  0.2744973058358922  1.0000
  C   C50       1.0  0.4699734760911987  0.5155337012337791  0.32182958030007836  1.0000
  C   C51       1.0  0.4910540013938335  0.5316042567743591  0.3692585012620046  1.0000
  C   C52       1.0  0.5242114380514789  0.5718549843612508  0.36987286896558014  1.0000
  C   C53       1.0  0.5369983418577843  0.5950552347999318  0.32239795478170874  1.0000
  C   C54       1.0  0.5160383887298379  0.5788278332487903  0.2747578746403214  1.0000
  H   H33       1.0  0.4440526074666549  0.4845775451015033  0.32183047974126894  1.0000
  H   H34       1.0  0.48145453437973085  0.5127694717452406  0.4052011970939694  1.0000
  H   H35       1.0  0.562631154874669  0.6262619931079887  0.3225113824313904  1.0000
  H   H36       1.0  0.5255880933371191  0.597530863460891  0.23854091670826646  1.0000
  C   C55       1.0  0.13757268016023735  0.8820914436546846  0.34484616141892516  1.0000
  C   C56       1.0  0.18319040468544476  0.88725487001045  0.37138468494993276  1.0000
  C   C57       1.0  0.18514404638595083  0.9193065111396035  0.41559861587017227  1.0000
  C   C58       1.0  0.1416207715056222  0.946731413466569  0.4330633600780287  1.0000
  C   C59       1.0  0.09595165597318477  0.9416017191813535  0.40662931589404744  1.0000
  C   C60       1.0  0.09398723710639693  0.9094167985623324  0.3624347344235449  1.0000
  H   H37       1.0  0.21711645210697608  0.866944490909202  0.3576131738820192  1.0000
  H   H38       1.0  0.22043522447254593  0.9226665487197949  0.43622579429947467  1.0000
  H   H39       1.0  0.062159886149834365  0.962568881229315  0.42000132011847235  1.0000
  H   H40       1.0  0.05863104116233087  0.9056284612750969  0.3419754865508102  1.0000
  C   C61       1.0  0.2199451418091085  0.5627123847129276  0.3365098641079437  1.0000
  C   C62       1.0  0.1863855161525927  0.5658054490428491  0.29427270102344183  1.0000
  C   C63       1.0  0.16608081627345567  0.5209811919993879  0.27416251695644445  1.0000
  C   C64       1.0  0.18091613747773508  0.4729240114046406  0.2948637872795446  1.0000
  C   C65       1.0  0.21407500448230324  0.4698707391627266  0.3373130301412575  1.0000
  C   C66       1.0  0.23291374056961503  0.5148486816459809  0.3586645930708837  1.0000
  H   H41       1.0  0.17636898463917847  0.6025519263538915  0.2768632776717185  1.0000
  H   H42       1.0  0.14026383221433425  0.5233810823407459  0.2413687570756275  1.0000
  H   H43       1.0  0.22484084004425803  0.4329654469126056  0.35418396464780993  1.0000
  H   H44       1.0  0.25845967387675806  0.5123965650528342  0.3917364681416906  1.0000
  C   C67       1.0  0.2177116942908702  0.49375337317387974  0.02465224382268238  1.0000
  C   C68       1.0  0.266352617696121  0.4704087139021093  0.025813462165059194  1.0000
  C   C69       1.0  0.30840879076745487  0.4989667106144697  0.013579316422067887  1.0000
  C   C70       1.0  0.3015542665965547  0.5504268004459012  0.9987693429525438  1.0000
  C   C71       1.0  0.25283078957758887  0.5730578151595446  0.9957062121759278  1.0000
  C   C72       1.0  0.21097308444505536  0.5450639515150092  0.00951018089538369  1.0000
  H   H45       1.0  0.27160402949570245  0.4306202215232623  0.037425274005076226  1.0000
  H   H46       1.0  0.3459616055868521  0.4811395958280628  0.0153418477214442  1.0000
  H   H47       1.0  0.24763196749156105  0.6127805122191401  0.9839522877632648  1.0000
  H   H48       1.0  0.17372586335735096  0.5635354066003457  0.00889662803321789  1.0000
  C   C73       1.0  0.9775350150847573  0.5519353173551814  0.8708294710347212  1.0000
  C   C74       1.0  0.9723642338281702  0.5220483690469406  0.8255107342176521  1.0000
  C   C75       1.0  0.9880473277619569  0.5399054384779362  0.776509667027791  1.0000
  C   C76       1.0  0.007411665772793841  0.5887657035423481  0.7722325827228492  1.0000
  C   C77       1.0  0.014126621059638023  0.6180908706739914  0.817839418812419  1.0000
  C   C78       1.0  0.999852337390494  0.5994468891311866  0.8671489523382067  1.0000
  H   H49       1.0  0.9556371821996444  0.48498420148931687  0.8281718092363879  1.0000
  H   H50       1.0  0.9835418702193808  0.5163751779806386  0.74188239294141  1.0000
  H   H51       1.0  0.029294844225705496  0.6559075712834821  0.8148352674695597  1.0000
  H   H52       1.0  0.004501570706207714  0.622609293276881  0.9019099343632084  1.0000
  C   C79       1.0  0.02982490396300519  0.7267221703336815  0.10477879621413888  1.0000
  C   C80       1.0  0.06107412836116605  0.7251043919675677  0.06060174822045061  1.0000
  C   C81       1.0  0.06184340420504396  0.767651101633766  0.027252391445284685  1.0000
  C   C82       1.0  0.03058337339236683  0.811350431744473  0.03744759677674381  1.0000
  C   C83       1.0  0.9995827630054899  0.8130403150135923  0.08182993468161176  1.0000
  C   C84       1.0  0.9998931262747297  0.7710821180500173  0.11602824944754404  1.0000
  H   H53       1.0  0.08496682301319575  0.69125280681401  0.05229362987110053  1.0000
  H   H54       1.0  0.08615496997699046  0.7663669703576833  0.993065639282179  1.0000
  H   H55       1.0  0.9746116172565296  0.8461011666703341  0.08936068032900951  1.0000
  H   H56       1.0  0.9753189286846035  0.7722294237425927  0.14997640253219807  1.0000
  C   C85       1.0  0.6847140870763007  0.45094063846034643  0.8833943833002718  1.0000
  C   C86       1.0  0.6583073464813974  0.494256766642274  0.9042059466778678  1.0000
  C   C87       1.0  0.6193870548459567  0.4885924626272291  0.9408579940365528  1.0000
  C   C88       1.0  0.6064816715862081  0.4394988332372238  0.9564766252302694  1.0000
  C   C89       1.0  0.6325774132849152  0.39614969513994586  0.9353302650863834  1.0000
  C   C90       1.0  0.6717624895129265  0.4018279709926662  0.8989592629271751  1.0000
  H   H57       1.0  0.6680915884149149  0.5323259117015309  0.89211113589328  1.0000
  H   H58       1.0  0.5995212798703529  0.5222494036485401  0.9569924215452028  1.0000
  H   H59       1.0  0.6227638115642237  0.3580801063112644  0.9473700538106783  1.0000
  H   H60       1.0  0.6920492433311944  0.3682259841350431  0.8831997803687647  1.0000
  C   C91       1.0  0.006487028609484247  0.357709282345837  0.7455312633208605  1.0000
  C   C92       1.0  0.007540404738386686  0.30431721971547493  0.7389754566116918  1.0000
  C   C93       1.0  0.054093856001061764  0.2761516198535145  0.7370659329951809  1.0000
  C   C94       1.0  0.0996507347011231  0.30136521858641124  0.7410400602537807  1.0000
  C   C95       1.0  0.09846517092571237  0.35488211056338037  0.7457156963541929  1.0000
  C   C96       1.0  0.05201798535187585  0.3829357937193937  0.7479364147733585  1.0000
  H   H61       1.0  0.9725176901477953  0.28477348366895544  0.7360571985605739  1.0000
  H   H62       1.0  0.05479313188915649  0.23477236999457327  0.7325432304005263  1.0000
  H   H63       1.0  0.1333075106343861  0.3745899782799204  0.7482429185181554  1.0000
  H   H64       1.0  0.05120806576168624  0.42433255713035467  0.7521841381843183  1.0000
  C   C97       1.0  0.8150697760489244  0.1454093927467711  0.8320180438488134  1.0000
  C   C98       1.0  0.810223666737776  0.10062440299616028  0.8617215501113786  1.0000
  C   C99       1.0  0.8057742735543775  0.05262845447746756  0.8368051102795945  1.0000
  C   C100      1.0  0.8062695107639802  0.04932736489307832  0.7820546282640171  1.0000
  C   C101      1.0  0.812491877683968  0.09387068392328346  0.7525425551120288  1.0000
  C   C102      1.0  0.8169287809288747  0.14165783942675844  0.77738403723444  1.0000
  H   H65       1.0  0.8093480151471156  0.10302166869905818  0.9040476347401021  1.0000
  H   H66       1.0  0.8013984968403915  0.018395599914193594  0.8599170339391314  1.0000
  H   H67       1.0  0.8139715111147409  0.0913472944482967  0.7102504048530413  1.0000
  H   H68       1.0  0.8215570655125423  0.17554592950292025  0.7541302513443445  1.0000
  C   C103      1.0  0.812392646997966  0.3877099702459058  0.16637811402274216  1.0000
  C   C104      1.0  0.8357193985624863  0.41054448140373767  0.12360830250072383  1.0000
  C   C105      1.0  0.8844893170711426  0.42899592647379675  0.1288118793875407  1.0000
  C   C106      1.0  0.9098379813166728  0.4241853365183749  0.1767116462945186  1.0000
  C   C107      1.0  0.886177471401399  0.4021235852052878  0.21953499739674026  1.0000
  C   C108      1.0  0.8373688896981898  0.3844317786333552  0.21451777110414094  1.0000
  H   H69       1.0  0.8163666547709892  0.4133532538063762  0.08636326174675747  1.0000
  H   H70       1.0  0.9026254210849513  0.44619464639578  0.09563459090050612  1.0000
  H   H71       1.0  0.905397296629619  0.39872602782886163  0.25676112225191544  1.0000
  H   H72       1.0  0.8191138801838469  0.3683499232131802  0.24809348853190824  1.0000
  C   C109      1.0  0.5271503087573908  0.32437942332980657  0.30048729395630064  1.0000
  C   C110      1.0  0.4833558916377152  0.354332412106223  0.3120542224410291  1.0000
  C   C111      1.0  0.4411309629473841  0.35277016627694163  0.2792131939316344  1.0000
  C   C112      1.0  0.44321674730886235  0.3222648829821014  0.23400630645379575  1.0000
  C   C113      1.0  0.4873980362081732  0.29303328896786573  0.22183494117557986  1.0000
  C   C114      1.0  0.5291262717581267  0.29350873071206734  0.25548064985964647  1.0000
  H   H73       1.0  0.48202792597534005  0.3788919867430523  0.34642795881172544  1.0000
  H   H74       1.0  0.40739208604562666  0.3761580433008908  0.28817817059683165  1.0000
  H   H75       1.0  0.4890793437390387  0.2691235222539763  0.18703319996354917  1.0000
  H   H76       1.0  0.562444395079727  0.26945978427254347  0.24690595141612565  1.0000
  C   C115      1.0  0.7495613742486503  0.3121350753069045  0.5775487550183325  1.0000
  C   C116      1.0  0.7961250217986509  0.33392113839286763  0.569194729922192  1.0000
  C   C117      1.0  0.8128492637635315  0.34254939564062664  0.5178344735075905  1.0000
  C   C118      1.0  0.7832341505599548  0.3291920900048627  0.47485979211410584  1.0000
  C   C119      1.0  0.7362350213187404  0.3084463713571636  0.48345490059685914  1.0000
  C   C120      1.0  0.7195723816269796  0.2996877033295172  0.5346342711094606  1.0000
  H   H77       1.0  0.819583502061944  0.34373579103683727  0.6021472442986706  1.0000
  H   H78       1.0  0.8492047326720547  0.3588608221614117  0.5115584016254835  1.0000
  H   H79       1.0  0.7129610887489325  0.2983177321244949  0.45076974070241516  1.0000
  H   H80       1.0  0.6835633264980219  0.28271869017199786  0.5409335573062961  1.0000
  C   C121      1.0  0.8402021754770482  0.7234874377267441  0.4384842348864148  1.0000
  C   C122      1.0  0.8584043233725307  0.7010529388680612  0.39184310876332995  1.0000
  C   C123      1.0  0.8972714510458216  0.6625643736044378  0.39326664249721827  1.0000
  C   C124      1.0  0.9179372673081702  0.6462487809756895  0.44128005984425817  1.0000
  C   C125      1.0  0.8996569939681921  0.6685447805943974  0.4879230478273084  1.0000
  C   C126      1.0  0.860960627332668  0.7072248179692509  0.4864780597293391  1.0000
  H   H81       1.0  0.8425761657732821  0.7134540219166053  0.35473665021189366  1.0000
  H   H82       1.0  0.9110859241141308  0.645239141460636  0.35710517084863  1.0000
  H   H83       1.0  0.915549821876069  0.6562781936618848  0.5250613293739235  1.0000
  H   H84       1.0  0.8468690819987438  0.7243493062234694  0.5226551712050579  1.0000
  C   C127      1.0  0.5430536529928651  0.7412006931556645  0.27896266187503205  1.0000
  C   C128      1.0  0.5009655650613734  0.7245888852294221  0.2515342068110553  1.0000
  C   C129      1.0  0.45239210726810597  0.7456162136357486  0.2630811990785047  1.0000
  C   C130      1.0  0.44581823413010463  0.782544921352356  0.302841901359921  1.0000
  C   C131      1.0  0.4877961001836374  0.798241401367617  0.3308684752716983  1.0000
  C   C132      1.0  0.5362794789820761  0.7781142735985239  0.31857997084317113  1.0000
  H   H85       1.0  0.5060136151644788  0.696033463738099  0.22081733800892644  1.0000
  H   H86       1.0  0.4202922760229384  0.7335328432766632  0.2409176812914682  1.0000
  H   H87       1.0  0.48279782643541147  0.8258715237076527  0.36245895177555143  1.0000
  H   H88       1.0  0.5682822384942234  0.7906561354934303  0.3403622048934852  1.0000
  C   C133      1.0  0.6685634976943071  0.0007631739985951569  0.3226614641782038  1.0000
  C   C134      1.0  0.6597566420876605  0.05065483270265658  0.34231240533579144  1.0000
  C   C135      1.0  0.6837791593919208  0.09197968667758354  0.3194029055860148  1.0000
  C   C136      1.0  0.715748264401719  0.08325523211777278  0.276302366128818  1.0000
  C   C137      1.0  0.7218400862882556  0.03386304711440746  0.2547715687405829  1.0000
  C   C138      1.0  0.6989365567651339  0.9925266872564583  0.2783482529634447  1.0000
  H   H89       1.0  0.6357996488311843  0.05708605513237264  0.376303890165659  1.0000
  H   H90       1.0  0.6783851757083992  0.13016069624798277  0.335825876480432  1.0000
  H   H91       1.0  0.7452178449107874  0.027194640282999227  0.2205036865430767  1.0000
  H   H92       1.0  0.7051242585021447  0.9542317932332971  0.2623564376402711  1.0000
  C   C139      1.0  0.7774077324900892  0.8330827552004404  0.11116064056070458  1.0000
  C   C140      1.0  0.7253781339874882  0.8297439087066723  0.10374236563046631  1.0000
  C   C141      1.0  0.7050756686292117  0.8298841503481715  0.05284945986381784  1.0000
  C   C142      1.0  0.7364344122352972  0.83437046223031  0.008904968099840982  1.0000
  C   C143      1.0  0.788301548964219  0.8390924825878463  0.016285678590934216  1.0000
  C   C144      1.0  0.8087624738594603  0.8379736925199796  0.06720288310317724  1.0000
  H   H93       1.0  0.7007259361957664  0.8267972790647629  0.13708591388996177  1.0000
  H   H94       1.0  0.6648271127398568  0.8271475666700815  0.04749992362112421  1.0000
  H   H95       1.0  0.8125131322242425  0.8442895583690418  0.982826039112178  1.0000
  H   H96       1.0  0.8488748075502471  0.8418938177839077  0.07256932963220335  1.0000
  C   C145      1.0  0.3845207201702392  0.14145398590109856  0.9191816411403131  1.0000
  C   C146      1.0  0.34271788603690023  0.16787231078373283  0.8968007849537578  1.0000
  C   C147      1.0  0.3496147583311678  0.20974845624856026  0.8635342254499574  1.0000
  C   C148      1.0  0.39835675603653836  0.22536599702095103  0.8529875053867415  1.0000
  C   C149      1.0  0.44007160114664745  0.19887516312806244  0.8752056931198702  1.0000
  C   C150      1.0  0.433183846235122  0.1568260539274521  0.9080584177921994  1.0000
  H   H97       1.0  0.3049678230862509  0.15597153806901184  0.9052687397201495  1.0000
  H   H98       1.0  0.31726880085694936  0.22996289864825029  0.8462287669138074  1.0000
  H   H99       1.0  0.47783432154679595  0.21075763719940332  0.8668046489724913  1.0000
  H   H100      1.0  0.4655858955060574  0.13623997241104854  0.9244183329250594  1.0000
  C   C151      1.0  0.4829909432442492  0.8391980876120414  0.09383668821983218  1.0000
  C   C152      1.0  0.5225040798217053  0.8397144949789118  0.057410898479377206  1.0000
  C   C153      1.0  0.5484549250991873  0.793496557557296  0.04314317946576884  1.0000
  C   C154      1.0  0.5347078718011943  0.7469059962661105  0.06499389299170004  1.0000
  C   C155      1.0  0.4971534331950535  0.7469880427361132  0.10343509047580612  1.0000
  C   C156      1.0  0.47107077878485815  0.7929908353793376  0.11758849612651101  1.0000
  H   H101      1.0  0.5326487936210023  0.8755328869571509  0.03982160020814951  1.0000
  H   H102      1.0  0.5787089109566385  0.7936632956736795  0.014634305655492508  1.0000
  H   H103      1.0  0.4880945176883476  0.7117131917705566  0.12245184804837961  1.0000
  H   H104      1.0  0.44134187880087217  0.7926585840337862  0.14674254772273843  1.0000
  C   C157      1.0  0.5218598040974969  0.11542801972519978  0.21632237302358528  1.0000
  C   C158      1.0  0.47196988414401814  0.10164848584578556  0.2229496475633442  1.0000
  C   C159      1.0  0.4534237800177649  0.09210875076129166  0.2731642669915221  1.0000
  C   C160      1.0  0.48524724787660334  0.09407445825305172  0.31671156841071707  1.0000
  C   C161      1.0  0.5349423975090528  0.10883487221014602  0.31049796462175944  1.0000
  C   C162      1.0  0.5530825610333279  0.12018035916546091  0.26023040184628526  1.0000
  H   H105      1.0  0.4475472151735633  0.09837992176242616  0.1894551962959832  1.0000
  H   H106      1.0  0.4147639600298495  0.08129297331485619  0.2780053047975011  1.0000
  H   H107      1.0  0.5595025323828958  0.11096748122865199  0.34415655324542865  1.0000
  H   H108      1.0  0.5917207537638107  0.13108131453477373  0.25527235010956406  1.0000
  C   C163      1.0  0.6741559989161634  0.9837615860059912  0.9799018463128379  1.0000
  C   C164      1.0  0.7201895366195926  0.9993068903794693  0.9595116015511452  1.0000
  C   C165      1.0  0.7640169513467399  0.9966076269453175  0.9906182099314195  1.0000
  C   C166      1.0  0.7615557052354452  0.9785949283947868  0.042143721975968385  1.0000
  C   C167      1.0  0.7160338640950934  0.9614013921133763  0.061604906039856716  1.0000
  C   C168      1.0  0.6727842729892362  0.9630205392459047  0.030204045309745187  1.0000
  H   H109      1.0  0.7216533821756705  0.015054546580338002  0.9204102625834581  1.0000
  H   H110      1.0  0.7991542484092906  0.009948299972224017  0.9752931099900604  1.0000
  H   H111      1.0  0.7143002226743271  0.9464436940202274  0.1010237650233647  1.0000
  H   H112      1.0  0.6385857051194492  0.9476096968365696  0.04485829433102583  1.0000
  C   C169      1.0  0.35262689809344017  0.928302344403258  0.6706884431021555  1.0000
  C   C170      1.0  0.3884882963794049  0.8876853918991033  0.6769081660228425  1.0000
  C   C171      1.0  0.43533139555849476  0.8888287168769062  0.650994369622326  1.0000
  C   C172      1.0  0.4464000713762374  0.9307018129159791  0.619265436903895  1.0000
  C   C173      1.0  0.410334187972673  0.9710476983758651  0.6133465296762198  1.0000
  C   C174      1.0  0.36353622383074263  0.9697473449419729  0.6386354433682728  1.0000
  H   H113      1.0  0.3801224366153838  0.8553776428525152  0.7014672274018833  1.0000
  H   H114      1.0  0.4629394289319639  0.8572854871489988  0.6555945177143312  1.0000
  H   H115      1.0  0.4182416485582836  0.0032617214785790605  0.5891836619406134  1.0000
  H   H116      1.0  0.3356777192201769  0.0008924948291872958  0.6332605534239708  1.0000
  C   C175      1.0  0.2287825956259422  0.8179441255522621  0.9887399393715972  1.0000
  C   C176      1.0  0.2494490551069748  0.8315297696162562  0.03699970244041917  1.0000
  C   C177      1.0  0.2560077896120099  0.7947493139465427  0.07659076588782684  1.0000
  C   C178      1.0  0.2423419158026098  0.74417678964019  0.06782510407291001  1.0000
  C   C179      1.0  0.22062330369669925  0.7309310288142392  0.019963873412575994  1.0000
  C   C180      1.0  0.21351150882405992  0.767862502402716  0.9805466085748403  1.0000
  H   H117      1.0  0.26211149118691  0.8700367071444153  0.04310471373629454  1.0000
  H   H118      1.0  0.2742954259222283  0.8048461319196093  0.11268017179554142  1.0000
  H   H119      1.0  0.2093911880088392  0.6920476369245973  0.013341207675962473  1.0000
  H   H120      1.0  0.1965362294383572  0.7574176431927037  0.9437762225809111  1.0000
  C   C181      1.0  0.3373468537678824  0.6294227293508424  0.8038778570978974  1.0000
  C   C182      1.0  0.2993339466147225  0.6240101647834905  0.8411709282980641  1.0000
  C   C183      1.0  0.27507799595860766  0.5776133415701831  0.8453364629624182  1.0000
  C   C184      1.0  0.28793114856789426  0.5366377185008815  0.8115603449780573  1.0000
  C   C185      1.0  0.32605953178089614  0.5416367660568238  0.7742021078479729  1.0000
  C   C186      1.0  0.3513547220662805  0.5878623460295493  0.7709248728244392  1.0000
  H   H121      1.0  0.2889239712305849  0.6553798017993551  0.8673884418943179  1.0000
  H   H122      1.0  0.24594162806285377  0.5737495560156322  0.8746498680359398  1.0000
  H   H123      1.0  0.33518952678533487  0.5105759735944159  0.7470004864488838  1.0000
  H   H124      1.0  0.3802566396835286  0.5922077281374069  0.74140955899471  1.0000
  C   C187      1.0  0.9908020052936908  0.783368330487801  0.8196754649208157  1.0000
  C   C188      1.0  0.03826312013579192  0.7727144151092253  0.8422166284617817  1.0000
  C   C189      1.0  0.08111775787153767  0.7649117893177974  0.8104649490655639  1.0000
  C   C190      1.0  0.07650077577046768  0.7667389379964645  0.7559581178258515  1.0000
  C   C191      1.0  0.02883464595491625  0.7759147957408387  0.7332594902393499  1.0000
  C   C192      1.0  0.9859858770425521  0.7847934600406398  0.7651473726480734  1.0000
  H   H125      1.0  0.042092680620330114  0.7717346329099134  0.8844596493227977  1.0000
  H   H126      1.0  0.11769706139114619  0.7578483340087704  0.8282832330044045  1.0000
  H   H127      1.0  0.025107999673898537  0.7769127576011146  0.6910843503188294  1.0000
  H   H128      1.0  0.9493697919573986  0.7926686789555977  0.7476351538588364  1.0000
  N   N1        1.0  0.06613451946267451  0.9292169981697692  0.8532932314633043  1.0000
  C   C193      1.0  0.07152335779354023  0.9113022186597218  0.7984948903690651  1.0000
  C   C194      1.0  0.1049765449860614  0.9030279163456869  0.8864080034288777  1.0000
  C   C195      1.0  0.015522163732162749  0.9173772284879824  0.8728696137242458  1.0000
  C   C196      1.0  0.07250425057776716  0.9852591454560743  0.8553387848824225  1.0000
  H   H129      1.0  0.06806303507962574  0.8691041898093138  0.795599439217064  1.0000
  H   H130      1.0  0.10863320246349607  0.9209877984640021  0.7820120718509292  1.0000
  H   H131      1.0  0.04161368246559391  0.9294048670514227  0.773013704472584  1.0000
  H   H132      1.0  0.10137116442416252  0.9155645188050824  0.9280428343281345  1.0000
  H   H133      1.0  0.10171005290453307  0.8605335782439404  0.8858381001716055  1.0000
  H   H134      1.0  0.1437754037581979  0.9113580174303207  0.8734704909696311  1.0000
  H   H135      1.0  0.9850624089302125  0.930893347677505  0.8459162370124944  1.0000
  H   H136      1.0  0.007885906590255896  0.9353059845474325  0.911697890114428  1.0000
  H   H137      1.0  0.011715533062855327  0.8753476670999364  0.8777293690662642  1.0000
  H   H138      1.0  0.11165401556876534  0.9950229734603121  0.8448479918348516  1.0000
  H   H139      1.0  0.06402255526134701  0.0014030810915848235  0.8950209484002154  1.0000
  H   H140      1.0  0.04690971169448164  0.005569512605070326  0.8272792522524635  1.0000
  N   N2        1.0  0.008288571619663898  0.46801603323284463  0.3438057542323897  1.0000
  C   C197      1.0  0.9748878676305727  0.4475982707806829  0.38443442888334944  1.0000
  C   C198      1.0  0.0515097670246043  0.49222160640203105  0.36903392445457656  1.0000
  C   C199      1.0  0.9794076705679421  0.5066426522076718  0.3122687969820627  1.0000
  C   C200      1.0  0.02728980230706579  0.42563072486222764  0.3093334583595461  1.0000
  H   H141      1.0  0.9421449928958933  0.42856236310870827  0.36674536289901427  1.0000
  H   H142      1.0  0.959249697202018  0.47893462850556984  0.41052224963058137  1.0000
  H   H143      1.0  0.9954648687142631  0.4188115667263447  0.40953581583792037  1.0000
  H   H144      1.0  0.07743867609896538  0.5079832039120101  0.339442274837473  1.0000
  H   H145      1.0  0.03872680378251303  0.5242379503728594  0.3956291806794366  1.0000
  H   H146      1.0  0.07430309062790874  0.46411022173938593  0.39301344263174876  1.0000
  H   H147      1.0  0.9466165461110936  0.48944159453335456  0.29262178537956585  1.0000
  H   H148      1.0  0.0031792996398212203  0.5224722192786424  0.28072796448691734  1.0000
  H   H149      1.0  0.9644439809140365  0.5392099203310347  0.3371159095915759  1.0000
  H   H150      1.0  0.05060705542342392  0.4403041218453014  0.2767924509876472  1.0000
  H   H151      1.0  0.99575672635762  0.4052386865910174  0.2910346033004441  1.0000
  H   H152      1.0  0.05136354073784832  0.3969371322414221  0.33118865614111936  1.0000
  N   N3        1.0  0.04569894733206237  0.6964944532283927  0.31979777111330143  1.0000
  C   C201      1.0  0.05123538418569007  0.7240104023918943  0.2697249669239613  1.0000
  C   C202      1.0  0.09471063099364097  0.6931886527702997  0.34746126075472233  1.0000
  C   C203      1.0  0.02891805921274959  0.644127713177515  0.30902842969445227  1.0000
  C   C204      1.0  0.007846765996112337  0.724652568536748  0.35300329683754367  1.0000
  H   H153      1.0  0.07937103971194581  0.7038241205862021  0.2434855488097795  1.0000
  H   H154      1.0  0.06382640730972988  0.763699298199723  0.27608037304293354  1.0000
  H   H155      1.0  0.014970324460345186  0.7270686310275617  0.24777379022632323  1.0000
  H   H156      1.0  0.09134156302888252  0.6744815811163205  0.3864030811023709  1.0000
  H   H157      1.0  0.12362907269182344  0.6700899881685921  0.32483313646312967  1.0000
  H   H158      1.0  0.1097298134262572  0.7320214807321063  0.35391675030168124  1.0000
  H   H159      1.0  0.05651488958774231  0.62211950088364  0.2835859192144719  1.0000
  H   H160      1.0  0.991925194714016  0.645348652979328  0.2883543495597697  1.0000
  H   H161      1.0  0.024518821282031977  0.6222355448055942  0.3459938950306554  1.0000
  H   H162      1.0  0.002279617740662987  0.7045918619073677  0.3909366187431817  1.0000
  H   H163      1.0  0.9703964917621658  0.7282150701684613  0.3333410099364624  1.0000
  H   H164      1.0  0.01963951644170092  0.7642207418367183  0.36213107709990455  1.0000
  N   N4        1.0  0.2827845564644304  0.058321019777484766  0.4224829083384971  1.0000
  C   C205      1.0  0.2844982995906033  0.030477442417285335  0.47284021226339046  1.0000
  C   C206      1.0  0.3258850489693786  0.09229380230649281  0.4195330453810253  1.0000
  C   C207      1.0  0.23487156982414564  0.08947859859344894  0.4189371035857791  1.0000
  C   C208      1.0  0.285943382003833  0.02098328521606807  0.3786292431960652  1.0000
  H   H165      1.0  0.32020535906636616  0.006608996540256929  0.4769411742815781  1.0000
  H   H166      1.0  0.2525208451853361  0.0044303830282965695  0.4763357958122568  1.0000
  H   H167      1.0  0.28189288066167256  0.05758004138215924  0.5067018419891565  1.0000
  H   H168      1.0  0.3261803949687991  0.1136454694089748  0.3818209290115996  1.0000
  H   H169      1.0  0.324370840204196  0.12147635070700963  0.45152762184141704  1.0000
  H   H170      1.0  0.36260753407456653  0.07004844629447618  0.4226617720749263  1.0000
  H   H171      1.0  0.23222895824645756  0.1109949578951119  0.38135439257615755  1.0000
  H   H172      1.0  0.23147583336327546  0.11856394418536333  0.4510389599133376  1.0000
  H   H173      1.0  0.20148739109753727  0.0650541302412797  0.421573872916518  1.0000
  H   H174      1.0  0.25357174606847105  0.9951976421094819  0.37915725725839206  1.0000
  H   H175      1.0  0.3213862650867455  0.9963679667952715  0.38042728811508025  1.0000
  H   H176      1.0  0.28542986152553745  0.04084755623775014  0.34008810569028025  1.0000
  N   N5        1.0  0.08629503265792003  0.3309036421659578  0.13677482562547708  1.0000
  C   C209      1.0  0.11536358906650443  0.312382576033075  0.09036949888599188  1.0000
  C   C210      1.0  0.10010732523072864  0.3838513495890695  0.1496206528427989  1.0000
  C   C211      1.0  0.09833789242712933  0.2970146874787559  0.18166109699334115  1.0000
  C   C212      1.0  0.031619405796750474  0.33025881508260446  0.1256950993259468  1.0000
  H   H177      1.0  0.1567919452185089  0.3127320712597368  0.09771350669665921  1.0000
  H   H178      1.0  0.10722373001607223  0.337141594322466  0.05571170632700504  1.0000
  H   H179      1.0  0.10683666920604758  0.2720433174306309  0.08019339051760269  1.0000
  H   H180      1.0  0.07889192851167943  0.39936351826778366  0.1843580527096299  1.0000
  H   H181      1.0  0.14111225532123414  0.38568755454361425  0.15840275013179514  1.0000
  H   H182      1.0  0.09204446660919165  0.41049592415170305  0.11659941454623733  1.0000
  H   H183      1.0  0.0791338217175405  0.3112153464003069  0.2181258580331375  1.0000
  H   H184      1.0  0.13953153111400615  0.2949819422984325  0.18936415557788208  1.0000
  H   H185      1.0  0.08692241948118393  0.25701781228340775  0.17415391671162625  1.0000
  H   H186      1.0  0.008829493312989097  0.34202598327923645  0.16081391610251541  1.0000
  H   H187      1.0  0.020280466962833362  0.2911785979775079  0.11410274410996968  1.0000
  H   H188      1.0  0.020483117346509865  0.35735698274622435  0.09376715375228477  1.0000
  N   N6        1.0  0.3016558100321306  0.529389628834737  0.18070776117249485  1.0000
  C   C213      1.0  0.24748287381927508  0.5328264788756919  0.16694235349286474  1.0000
  C   C214      1.0  0.32781194200296226  0.5705037298463902  0.1534675461574303  1.0000
  C   C215      1.0  0.3238662513626983  0.4786145321910156  0.16460451360986852  1.0000
  C   C216      1.0  0.30749713068924356  0.5356974205619017  0.23792170066210708  1.0000
  H   H189      1.0  0.22677073820919283  0.5010946786888528  0.1849069130612349  1.0000
  H   H190      1.0  0.24199193116524545  0.5305022082752637  0.12384617814809304  1.0000
  H   H191      1.0  0.22918611284662527  0.5700092084128915  0.1802160798614106  1.0000
  H   H192      1.0  0.36851044415934103  0.5697653790745963  0.16382467410302973  1.0000
  H   H193      1.0  0.3248252050509113  0.566795607600004  0.11011724199236403  1.0000
  H   H194      1.0  0.3113369015638868  0.6092185574087527  0.16415239019690264  1.0000
  H   H195      1.0  0.36464667143886  0.4745462227095312  0.1748407437046  1.0000
  H   H196      1.0  0.32074926249929187  0.4726515121370807  0.12166737177256545  1.0000
  H   H197      1.0  0.30475646206957097  0.44674334614608135  0.18431473731897238  1.0000
  H   H198      1.0  0.3479858971908178  0.5333842979341102  0.249607257224543  1.0000
  H   H199      1.0  0.2882992332988335  0.5052417467306222  0.2596963430941666  1.0000
  H   H200      1.0  0.2913080398900116  0.5735920960983834  0.251620546253213  1.0000
  N   N7        1.0  0.6978693208605493  0.12889511063176617  0.09254275821156249  1.0000
  C   C217      1.0  0.7107243517682896  0.17123139630915415  0.057250277435804894  1.0000
  C   C218      1.0  0.7443878205251946  0.0986086693226447  0.10634528312979034  1.0000
  C   C219      1.0  0.6623059115651677  0.0953880998447624  0.06592407068102606  1.0000
  C   C220      1.0  0.6741315221533452  0.1503812901773605  0.14073285078208297  1.0000
  H   H201      1.0  0.6764639737612858  0.19487167483904877  0.04601858547500837  1.0000
  H   H202      1.0  0.7288103233969067  0.15619346159643663  0.020434988141584842  1.0000
  H   H203      1.0  0.7375787006117583  0.19720037979466928  0.07625293899746542  1.0000
  H   H204      1.0  0.7358900946311742  0.064631511119782  0.13059860153634542  1.0000
  H   H205      1.0  0.7647216552253793  0.08403128819144452  0.070701104435747  1.0000
  H   H206      1.0  0.7709216922497997  0.12186469075123346  0.12921790551407206  1.0000
  H   H207      1.0  0.6785484425427154  0.07953009798834342  0.02869645810208077  1.0000
  H   H208      1.0  0.6261491852914316  0.11661350250787474  0.05641079006089225  1.0000
  H   H209      1.0  0.652895829834088  0.062256675396623724  0.09099201815747124  1.0000
  H   H210      1.0  0.7000675994796318  0.1756128350285999  0.16181132329866832  1.0000
  H   H211      1.0  0.6639402820020139  0.11942683004495451  0.1683242150979854  1.0000
  H   H212      1.0  0.6389606400590628  0.17363138835016814  0.13201918194775988  1.0000
  N   N8        1.0  0.6259538845619511  0.4452747057283175  0.716479256791254  1.0000
  C   C221      1.0  0.5733662939082279  0.4617097491665734  0.703908182015129  1.0000
  C   C222      1.0  0.6479675223979097  0.41424977872768654  0.6727006511821246  1.0000
  C   C223      1.0  0.6265215463839292  0.4139808188353029  0.7645872885475028  1.0000
  C   C224      1.0  0.655820886338071  0.4912365707617113  0.724673549687056  1.0000
  H   H213      1.0  0.5559203968645913  0.48608603153600366  0.7356386499054386  1.0000
  H   H214      1.0  0.5494877070439609  0.42820600499753414  0.6970902511773436  1.0000
  H   H215      1.0  0.5718125411886343  0.4851139232380936  0.667701696349972  1.0000
  H   H216      1.0  0.6878501706802435  0.40148051990405786  0.6806927613563634  1.0000
  H   H217      1.0  0.6266038598258805  0.37901697063007816  0.6655094343120874  1.0000
  H   H218      1.0  0.6473884051297071  0.4363388244851145  0.6355281628084869  1.0000
  H   H219      1.0  0.6038007541045928  0.37937046203655816  0.7598196255113882  1.0000
  H   H220      1.0  0.6112192173525899  0.4364844390129449  0.7987360424767606  1.0000
  H   H221      1.0  0.6655930188502182  0.4004102380837429  0.7747483267233274  1.0000
  H   H222      1.0  0.6961397236771505  0.4803847623248482  0.7325022996022833  1.0000
  H   H223      1.0  0.6413481212833787  0.514617749992507  0.7586655972301409  1.0000
  H   H224      1.0  0.6541634110313862  0.5168447297796464  0.6898177397403221  1.0000
  N   N9        1.0  0.4417434543084715  0.25281390962660943  0.42868426443020563  1.0000
  C   C225      1.0  0.4846434375333018  0.2794934312119259  0.4514953610848479  1.0000
  C   C226      1.0  0.45922158804538366  0.22179262798613755  0.38287451054740423  1.0000
  C   C227      1.0  0.40234119626631726  0.29125242038222693  0.4121956028023774  1.0000
  C   C228      1.0  0.4204308369212151  0.21885083584977758  0.46841108693012884  1.0000
  H   H225      1.0  0.5150741677028139  0.2517432792150197  0.46467578934723774  1.0000
  H   H226      1.0  0.4725681080877882  0.30330385928876086  0.4860894511096412  1.0000
  H   H227      1.0  0.5016246220912735  0.3054512956018944  0.4225299551595127  1.0000
  H   H228      1.0  0.4750175539666548  0.24621834131657697  0.3518008622191555  1.0000
  H   H229      1.0  0.48934559258358434  0.1926851648203617  0.3938656620313046  1.0000
  H   H230      1.0  0.4278947922465613  0.20060018177387942  0.3651165278285787  1.0000
  H   H231      1.0  0.3698027238680701  0.2726028581984564  0.39381700863747837  1.0000
  H   H232      1.0  0.41699261368397095  0.31832514241168064  0.38310859611635484  1.0000
  H   H233      1.0  0.3878226599025916  0.31460020046113996  0.44615706769112085  1.0000
  H   H234      1.0  0.44874246892211994  0.18895125542125984  0.48155472167426105  1.0000
  H   H235      1.0  0.3874638820084903  0.1988478511686481  0.45269914579332154  1.0000
  H   H236      1.0  0.40760536158171506  0.2409666993978538  0.5038897894654822  1.0000
  N   N10       1.0  0.5993872547504004  0.40301289094863313  0.15800492917508435  1.0000
  C   C229      1.0  0.6292912871013812  0.4414099978814419  0.130854051378731  1.0000
  C   C230      1.0  0.5454086770186851  0.4198943528554067  0.15839699577722305  1.0000
  C   C231      1.0  0.617514788857546  0.3977928605688633  0.21241944431578047  1.0000
  C   C232      1.0  0.6057178693235046  0.3530014115312331  0.1305645583623444  1.0000
  H   H237      1.0  0.6698992921536054  0.42873222006492684  0.12837061770015082  1.0000
  H   H238      1.0  0.627095933696381  0.47900509862464724  0.1517197866159389  1.0000
  H   H239      1.0  0.616099704369686  0.4476541785710595  0.09002922425737568  1.0000
  H   H240      1.0  0.5220306497289402  0.39217467824319796  0.17960570711790724  1.0000
  H   H241      1.0  0.5393295010102448  0.4577273746642523  0.17838713062082  1.0000
  H   H242      1.0  0.5302387425987714  0.4236265479085594  0.11790811816719624  1.0000
  H   H243      1.0  0.5979366120045604  0.367385664675192  0.23363597663517738  1.0000
  H   H244      1.0  0.6110885839970212  0.43419599663882485  0.23500300609664063  1.0000
  H   H245      1.0  0.658590523372964  0.3875531701049401  0.21312757252216538  1.0000
  H   H246      1.0  0.5834882037380649  0.3231281299094419  0.14988496692730802  1.0000
  H   H247      1.0  0.6460579816371135  0.3389719537675934  0.13003262794802184  1.0000
  H   H248      1.0  0.5929753223384953  0.35612014121523056  0.08905648153582553  1.0000
  N   N11       1.0  0.8631727547874732  0.18848504428288204  0.4528011179030688  1.0000
  C   C233      1.0  0.8893052865079966  0.23415369441440137  0.43459530679080965  1.0000
  C   C234      1.0  0.8112298771503555  0.18905716499280834  0.431801575459887  1.0000
  C   C235      1.0  0.8611010473780646  0.18857317074226732  0.5107146396889023  1.0000
  C   C236      1.0  0.8912381029268992  0.14169492543051043  0.434117980083312  1.0000
  H   H249      1.0  0.8828065749678927  0.2415768643246965  0.39219603229472755  1.0000
  H   H250      1.0  0.9307467674660361  0.22978547633909918  0.44062524271452985  1.0000
  H   H251      1.0  0.8766321691366207  0.26932142595297703  0.45659286748849515  1.0000
  H   H252      1.0  0.7904795405900327  0.15537117222410268  0.44570559680913524  1.0000
  H   H253      1.0  0.78925737946609  0.2242475208482555  0.4443324083939477  1.0000
  H   H254      1.0  0.8110994229948163  0.18809095672963205  0.38818440054506814  1.0000
  H   H255      1.0  0.8426575515293688  0.15404184952544187  0.5258678637778254  1.0000
  H   H256      1.0  0.8393760029464183  0.22313931347480076  0.52605441535501  1.0000
  H   H257      1.0  0.8996036566695093  0.1890995980066501  0.5278338006196559  1.0000
  H   H258      1.0  0.89399549982145  0.14071244192448695  0.39061906309197614  1.0000
  H   H259      1.0  0.8723829593618678  0.10668062925921395  0.4466002934108368  1.0000
  H   H260      1.0  0.93028811736966  0.13942417343100444  0.4500091067820167  1.0000
  N   N12       1.0  0.39433969039133204  0.10787788290880397  0.727604832957345  1.0000
  C   C237      1.0  0.3882495576373704  0.16408902489213273  0.7199204423659509  1.0000
  C   C238      1.0  0.42976321443259413  0.08556303107634695  0.6879468333175998  1.0000
  C   C239      1.0  0.3447813129655773  0.08454742886359459  0.7221068061567208  1.0000
  C   C240      1.0  0.41449919364591337  0.09727525741571603  0.7805864186077377  1.0000
  H   H261      1.0  0.3618817295722309  0.18230571156377867  0.7492524230684512  1.0000
  H   H262      1.0  0.3734074153481949  0.17364154858497435  0.6801761733769767  1.0000
  H   H263      1.0  0.4248535789478686  0.18317668113245048  0.7238391026719783  1.0000
  H   H264      1.0  0.41507710781607243  0.09182400397156477  0.6475170183670372  1.0000
  H   H265      1.0  0.46700919607009883  0.10357779298301663  0.689872551513944  1.0000
  H   H266      1.0  0.4363163993102448  0.04339010411075224  0.6933425706933071  1.0000
  H   H267      1.0  0.3170644961305895  0.10077511384302096  0.7513257234976711  1.0000
  H   H268      1.0  0.3478673467909688  0.04213123122447928  0.7281390890060098  1.0000
  H   H269      1.0  0.32851601292600563  0.09151974038157784  0.6824741610805116  1.0000
  H   H270      1.0  0.387761126692255  0.11204787449935744  0.8113003260793743  1.0000
  H   H271      1.0  0.4509309308792297  0.11597344314155829  0.7870256844472838  1.0000
  H   H272      1.0  0.4208233740395475  0.055284012779265944  0.7873703572756137  1.0000
  N   N13       1.0  0.11708615387041187  0.46163082556493457  0.8810179966194942  1.0000
  C   C241      1.0  0.10481676243837192  0.503128655908718  0.9190672206036546  1.0000
  C   C242      1.0  0.12318142395359571  0.48424842878110896  0.8284988185757536  1.0000
  C   C243      1.0  0.0757945328937468  0.42534665767905344  0.8798168413924717  1.0000
  C   C244      1.0  0.1644887652252708  0.43411821181043736  0.8972180146066858  1.0000
  H   H273      1.0  0.13499229307598878  0.5315093403884019  0.9205909359243108  1.0000
  H   H274      1.0  0.10077816507058181  0.4875053783651179  0.959088064702009  1.0000
  H   H275      1.0  0.06896607060719903  0.524294252609659  0.9090239919668165  1.0000
  H   H276      1.0  0.13567939818617356  0.4546332375918509  0.7991249248507136  1.0000
  H   H277      1.0  0.08720721316362343  0.5030104669769739  0.8143213572666406  1.0000
  H   H278      1.0  0.151934730870377  0.5140216850295468  0.8289545293904275  1.0000
  H   H279      1.0  0.08495221682006156  0.39251916281642424  0.8528773903242777  1.0000
  H   H280      1.0  0.03975220738466837  0.44441846767393417  0.8661409649925323  1.0000
  H   H281      1.0  0.06861883212547684  0.40954075513879984  0.9194010545980233  1.0000
  H   H282      1.0  0.19531950957496874  0.4611903565987223  0.9032220165066646  1.0000
  H   H283      1.0  0.17770095959669907  0.40527384220108903  0.8673120416734577  1.0000
  H   H284      1.0  0.15991700723235788  0.41391279380795803  0.9351325460615747  1.0000
  N   N14       1.0  0.42618480483223625  0.4516556599898257  0.8705021596577135  1.0000
  C   C245      1.0  0.41579413091137546  0.504289394526441  0.890970120329638  1.0000
  C   C246      1.0  0.3802660815115025  0.4218883057351653  0.8755595381054021  1.0000
  C   C247      1.0  0.46764800121674627  0.42632632816331534  0.9008311445672511  1.0000
  C   C248      1.0  0.44104346975907854  0.4540608666020979  0.8147438038581218  1.0000
  H   H285      1.0  0.4489085280145936  0.5286174191906462  0.8861842662106286  1.0000
  H   H286      1.0  0.4061022456014716  0.5038350577292309  0.933362965807562  1.0000
  H   H287      1.0  0.38336021296833017  0.5240595887697295  0.8705384915937875  1.0000
  H   H288      1.0  0.34847244115271137  0.4396711239573373  0.8526125270692956  1.0000
  H   H289      1.0  0.38680115247908925  0.38171032625501755  0.8610014191415519  1.0000
  H   H290      1.0  0.36745542206752335  0.4201144855310809  0.9170411553424177  1.0000
  H   H291      1.0  0.45785755055779503  0.4238758461709305  0.9431815496107779  1.0000
  H   H292      1.0  0.5029026822012449  0.44787729462413206  0.8981895090088978  1.0000
  H   H293      1.0  0.47647405537144766  0.3864207333166446  0.8865539579510414  1.0000
  H   H294      1.0  0.4485067176805162  0.4148594761549807  0.7979179608063475  1.0000
  H   H295      1.0  0.4756286149533982  0.47617176645117115  0.8095339168394772  1.0000
  H   H296      1.0  0.4107860046857231  0.47336856980138564  0.7908325975080495  1.0000
  N   N15       1.0  0.689810527246197  0.6790053808942735  0.13373530368530284  1.0000
  C   C249      1.0  0.739891174292485  0.700781369664732  0.12665159984960098  1.0000
  C   C250      1.0  0.6790103765093017  0.6453977978795431  0.08868254410463457  1.0000
  C   C251      1.0  0.6507289264742052  0.7212301027812694  0.13709102573123572  1.0000
  C   C252      1.0  0.689459526367172  0.6485897999964056  0.18246919813356988  1.0000
  H   H297      1.0  0.7485953829147614  0.7276240804751412  0.15924111132432872  1.0000
  H   H298      1.0  0.7415862960244015  0.7229580139819819  0.0895350562061799  1.0000
  H   H299      1.0  0.7705330912338536  0.6702133858673027  0.1254587126997398  1.0000
  H   H300      1.0  0.6419163726277433  0.6275769196700722  0.09350908027474927  1.0000
  H   H301      1.0  0.6770100015863159  0.6675580983314883  0.05142112403572954  1.0000
  H   H302      1.0  0.708359220019474  0.6138313627720972  0.08397226258396613  1.0000
  H   H303      1.0  0.6126121745158638  0.7063556263305366  0.1444193456151161  1.0000
  H   H304      1.0  0.6484073135275932  0.7438508448594776  0.10022274533111589  1.0000
  H   H305      1.0  0.6584052561340697  0.7481863796637357  0.16971882037780964  1.0000
  H   H306      1.0  0.6516199801755168  0.6329632834108477  0.18971609440798895  1.0000
  H   H307      1.0  0.697922650421369  0.6726455267726527  0.21717906117261201  1.0000
  H   H308      1.0  0.717808579732406  0.6158117497585991  0.18118615131560448  1.0000
  N   N16       1.0  0.6723632786907116  0.15934705823132247  0.6875923140900582  1.0000
  C   C253      1.0  0.624431564283077  0.1542129193659465  0.716336740358321  1.0000
  C   C254      1.0  0.6968111237405235  0.1078584057133644  0.6788016345441691  1.0000
  C   C255      1.0  0.7063072120187548  0.1910017850164952  0.7186683680191325  1.0000
  C   C256      1.0  0.6619353161982099  0.18444523617369393  0.6366442072478736  1.0000
  H   H309      1.0  0.598016408831461  0.13049243580585593  0.6938162096367742  1.0000
  H   H310      1.0  0.6050338085539533  0.1924471775267436  0.7234767584417373  1.0000
  H   H311      1.0  0.631041587886155  0.1355336279428957  0.7550483333097426  1.0000
  H   H312      1.0  0.7060331540866219  0.0880387931797492  0.7164299733243333  1.0000
  H   H313      1.0  0.6722499106669987  0.08271623104609829  0.6556266744756502  1.0000
  H   H314      1.0  0.7327445689997035  0.11045154247450756  0.6566162361317838  1.0000
  H   H315      1.0  0.7428191043691066  0.19573282083830118  0.6979372952960485  1.0000
  H   H316      1.0  0.7149773510295356  0.173491378997055  0.7575430510491438  1.0000
  H   H317      1.0  0.689197006847042  0.23021653834950387  0.725605903564087  1.0000
  H   H318      1.0  0.697199938933991  0.18792555952778325  0.6133195585769021  1.0000
  H   H319      1.0  0.6447855559659496  0.22397826025342848  0.6418015288671471  1.0000
  H   H320      1.0  0.6356039835976101  0.162240470859128  0.6124832068085295  1.0000
  N   N17       1.0  0.5197314344751466  0.932126868960448  0.24831807809958995  1.0000
  C   C257      1.0  0.5279421318871392  0.8809838875801521  0.22348458668075244  1.0000
  C   C258      1.0  0.5641790962016109  0.9631807803397197  0.23901928794998062  1.0000
  C   C259      1.0  0.5121791749534725  0.9261700381669626  0.3053192985846316  1.0000
  C   C260      1.0  0.47442163024814116  0.9583167391944845  0.22548833673940183  1.0000
  H   H321      1.0  0.4940925133688433  0.8574190920753068  0.22740070063676665  1.0000
  H   H322      1.0  0.560143015804156  0.8588229405890356  0.24154165920885395  1.0000
  H   H323      1.0  0.5360584259323696  0.8843843813475509  0.18088467244895545  1.0000
  H   H324      1.0  0.5699492003279545  0.9704345791616537  0.1966327197467943  1.0000
  H   H325      1.0  0.5603077306154696  0.0012140874641173305  0.2592124387413719  1.0000
  H   H326      1.0  0.5992524343907194  0.9432569140794638  0.25365627986955075  1.0000
  H   H327      1.0  0.5446665977854873  0.9043925203131983  0.3235488593444933  1.0000
  H   H328      1.0  0.47725557530377644  0.9055008449884212  0.3136762992336375  1.0000
  H   H329      1.0  0.5085579087103486  0.9642083797526028  0.32559718380601876  1.0000
  H   H330      1.0  0.4804777235344895  0.9680444700578801  0.18366464500662616  1.0000
  H   H331      1.0  0.464327230868952  0.9944990458162883  0.2466781508602689  1.0000
  H   H332      1.0  0.4411328973738084  0.9337352459471029  0.22727692824666645  1.0000
  N   N18       1.0  0.6354178679457397  0.44015120502316973  0.45240415384876  1.0000
  C   C261      1.0  0.5801141636113208  0.434962180407131  0.4511424971691711  1.0000
  C   C262      1.0  0.659066812293917  0.4061437566661363  0.4121930513816475  1.0000
  C   C263      1.0  0.655429491064071  0.42510589585516584  0.5043975753004754  1.0000
  C   C264      1.0  0.6472526093962351  0.49396207409444226  0.4412593847600201  1.0000
  H   H333      1.0  0.5606735834822485  0.4606117882371364  0.48037663161236166  1.0000
  H   H334      1.0  0.5698694856858617  0.3949067720061371  0.4600569606687786  1.0000
  H   H335      1.0  0.5641604855005738  0.44497220953928895  0.4119646229681784  1.0000
  H   H336      1.0  0.700933057267245  0.4086592560051892  0.4117440608038784  1.0000
  H   H337      1.0  0.6506987521146969  0.3652376184451018  0.4192504916085803  1.0000
  H   H338      1.0  0.6443965729437903  0.4162683111967493  0.37258065968796705  1.0000
  H   H339      1.0  0.645401672057487  0.38528807562775835  0.5146090887999922  1.0000
  H   H340      1.0  0.6396379431453741  0.4508434642994938  0.5357010609253215  1.0000
  H   H341      1.0  0.6973557300919383  0.42635016111300506  0.5057810481617814  1.0000
  H   H342      1.0  0.6887039750278449  0.49904404172288525  0.4408557054822776  1.0000
  H   H343      1.0  0.6303551899229524  0.5208880456337852  0.4710741322627092  1.0000
  H   H344      1.0  0.6318630836624088  0.5067187286520587  0.40260829776308493  1.0000
  N   N19       1.0  0.18495998931913352  0.6074067976034568  0.7008709150249788  1.0000
  C   C265      1.0  0.1481681659270255  0.6235846521602536  0.6601821795654966  1.0000
  C   C266      1.0  0.16069180988986365  0.6128737181450443  0.7529275154058539  1.0000
  C   C267      1.0  0.2290329707207626  0.6401075887719547  0.6984149373730216  1.0000
  C   C268      1.0  0.20162001766213744  0.5531179681888022  0.6918448227583794  1.0000
  H   H345      1.0  0.165809584151593  0.6237925951449188  0.620758822590858  1.0000
  H   H346      1.0  0.13155717285407356  0.6628830462655447  0.6679449589429418  1.0000
  H   H347      1.0  0.11628334146015597  0.5974127315619018  0.6588326018259559  1.0000
  H   H348      1.0  0.12662946825744772  0.5895342271587627  0.7554858680742326  1.0000
  H   H349      1.0  0.1871123067109613  0.6006193956832948  0.7847252536035416  1.0000
  H   H350      1.0  0.14789127897223442  0.6535535423268946  0.7608562991924408  1.0000
  H   H351      1.0  0.21744909331081316  0.6814244442047169  0.7033794768619417  1.0000
  H   H352      1.0  0.24933034685768304  0.6356548049011894  0.660243208427276  1.0000
  H   H353      1.0  0.2568376856281055  0.6299617413241629  0.7296225766026813  1.0000
  H   H354      1.0  0.16929199258824998  0.5273162442760487  0.6922424499792202  1.0000
  H   H355      1.0  0.22892196961112007  0.5393773828417527  0.7220538917508204  1.0000
  H   H356      1.0  0.22103324231631413  0.5478765278539305  0.6534507656660802  1.0000
  N   N20       1.0  0.8519031214404783  0.8899422947696363  0.5917172860504624  1.0000
  C   C269      1.0  0.8406111129317886  0.9273641934376198  0.6344505999730292  1.0000
  C   C270      1.0  0.8095127103530598  0.8907739214041409  0.5541430283582978  1.0000
  C   C271      1.0  0.8590921328359021  0.8377302942801265  0.6137470754750386  1.0000
  C   C272      1.0  0.8985111966452318  0.9037973731753021  0.5644766610361384  1.0000
  H   H357      1.0  0.8722414709012836  0.9286857833324719  0.6631306528603408  1.0000
  H   H358      1.0  0.8061617489703724  0.9177934711127421  0.6567236118881455  1.0000
  H   H359      1.0  0.8342098239323346  0.9671139728762216  0.6193582564997616  1.0000
  H   H360      1.0  0.7738789792877345  0.8807935868820955  0.5738324292516704  1.0000
  H   H361      1.0  0.8031994422085151  0.9294299418723326  0.536324690100488  1.0000
  H   H362      1.0  0.8167634314182919  0.8627859626412847  0.521430145912218  1.0000
  H   H363      1.0  0.8675727447360053  0.808568373419876  0.5825061516211936  1.0000
  H   H364      1.0  0.8245636471149536  0.8259378297938501  0.6346282893574968  1.0000
  H   H365      1.0  0.8907820464907653  0.8356128696858005  0.6423474614942996  1.0000
  H   H366      1.0  0.908176702672581  0.8766832847922489  0.5317256420826321  1.0000
  H   H367      1.0  0.9311217296885338  0.903790856888091  0.5919495706591654  1.0000
  H   H368      1.0  0.894341852013963  0.9429225577779379  0.5473689313406851  1.0000
  N   N21       1.0  0.8383069507049188  0.5586534732992887  0.7313127718606005  1.0000
  C   C273      1.0  0.8542784067878825  0.5209710126919158  0.7718549607517838  1.0000
  C   C274      1.0  0.7932221930261664  0.5890656584825092  0.7498767987769496  1.0000
  C   C275      1.0  0.826157895886446  0.5310313485823129  0.6824786339156713  1.0000
  C   C276      1.0  0.8796959215800413  0.5934576287420519  0.7209977863591137  1.0000
  H   H369      1.0  0.8658408444134691  0.5402686698977699  0.8086613206478273  1.0000
  H   H370      1.0  0.8868019307884224  0.49567990440128123  0.758191749805232  1.0000
  H   H371      1.0  0.8233059607279272  0.4954663507643733  0.7822870346921552  1.0000
  H   H372      1.0  0.8015692568460067  0.6109458770985674  0.7862019821756695  1.0000
  H   H373      1.0  0.7795294678468203  0.6174205900787643  0.7199417944417766  1.0000
  H   H374      1.0  0.7615506362030521  0.5638903244472732  0.7591718624289291  1.0000
  H   H375      1.0  0.8161599813472857  0.5582060273821579  0.6502128758985387  1.0000
  H   H376      1.0  0.7938606142437608  0.5058845943546518  0.6882795648011183  1.0000
  H   H377      1.0  0.8588334138059489  0.5058124976833804  0.668769518250972  1.0000
  H   H378      1.0  0.8685388535651589  0.6234489429416041  0.6917892917802247  1.0000
  H   H379      1.0  0.9136277642924324  0.5719682899054664  0.7051865677150039  1.0000
  H   H380      1.0  0.8915782990697649  0.6134668803731514  0.7573158287002039  1.0000
  N   N22       1.0  0.39559268273815085  0.668230265803262  0.41614680777226637  1.0000
  C   C277      1.0  0.4410456594068781  0.6970473936687301  0.42785548314895894  1.0000
  C   C278      1.0  0.3972698078915689  0.6195949851160877  0.4456257733958201  1.0000
  C   C279      1.0  0.393941252628789  0.6567395844153866  0.35949055288732745  1.0000
  C   C280      1.0  0.3500372654634326  0.6995082530363319  0.4316139037863286  1.0000
  H   H381      1.0  0.43969031391517266  0.7349244062183962  0.4077976440402474  1.0000
  H   H382      1.0  0.47602945210744113  0.6757226972220532  0.4143065106518714  1.0000
  H   H383      1.0  0.44492120808380403  0.7041770911108786  0.4706546133723571  1.0000
  H   H384      1.0  0.3632849133375952  0.5970196654158841  0.43791027610883665  1.0000
  H   H385      1.0  0.4312481839109031  0.5952217912327583  0.43517983591558596  1.0000
  H   H386      1.0  0.3984877269357223  0.6268686146632163  0.4884649059424088  1.0000
  H   H387      1.0  0.392422153273442  0.6926920363716936  0.3362477213288337  1.0000
  H   H388      1.0  0.3602791995477587  0.6346602074808493  0.34935874010822776  1.0000
  H   H389      1.0  0.4280639100266922  0.6335692432772312  0.3464595058949387  1.0000
  H   H390      1.0  0.34774998624539855  0.7367793365159029  0.41034830157221  1.0000
  H   H391      1.0  0.349918507464395  0.7080295716242614  0.4744247422938713  1.0000
  H   H392      1.0  0.3150064678684194  0.6790160896293337  0.4229658552519542  1.0000
  N   N23       1.0  0.9661439575404153  0.25305223615144984  0.8881224939777623  1.0000
  C   C281      1.0  0.011386928653591921  0.2269541610209087  0.9113393196226989  1.0000
  C   C282      1.0  0.9502902884162712  0.22435501624517204  0.8412658008072529  1.0000
  C   C283      1.0  0.9784155955550117  0.3057997657606282  0.8730274451408081  1.0000
  C   C284      1.0  0.9245686224675456  0.2549414858739013  0.9268936800819606  1.0000
  H   H393      1.0  0.04216430915695146  0.22097884280990515  0.8818525913813848  1.0000
  H   H394      1.0  0.002715625620639317  0.18854706959836467  0.9266991012445365  1.0000
  H   H395      1.0  0.02619682442004523  0.24930160037383522  0.9446865487681924  1.0000
  H   H396      1.0  0.9809671195303429  0.220367317193942  0.8115886984857276  1.0000
  H   H397      1.0  0.9387853994226306  0.18504374410455504  0.8515774268573819  1.0000
  H   H398      1.0  0.9169477010237728  0.24368811220493664  0.822230765974647  1.0000
  H   H399      1.0  0.947040816553166  0.3253106454829415  0.850918937236527  1.0000
  H   H400      1.0  0.01228236175661035  0.3055496587603967  0.847220231994844  1.0000
  H   H401      1.0  0.9859495896520183  0.3300669625913473  0.9078350559057986  1.0000
  H   H402      1.0  0.8900945092832427  0.27510299412399153  0.910944736731795  1.0000
  H   H403      1.0  0.9351080234868655  0.2750522602831244  0.9634936393094242  1.0000
  H   H404      1.0  0.9134964269973447  0.21544450198733386  0.9375081588519504  1.0000
  N   N24       1.0  0.1480864079144557  0.8885127298979655  0.614485549029149  1.0000
  C   C285      1.0  0.10445001277944788  0.8813086012176258  0.6494472941859747  1.0000
  C   C286      1.0  0.19100977967034538  0.8540764119119919  0.6307171996846977  1.0000
  C   C287      1.0  0.16303880231321144  0.9424436734763137  0.6178092262237939  1.0000
  C   C288      1.0  0.13399462655014904  0.8761433885761467  0.5600194697690348  1.0000
  H   H405      1.0  0.11462155643917149  0.8874489025818462  0.6911421770283546  1.0000
  H   H406      1.0  0.09088029394341302  0.8415613256257927  0.646321134298679  1.0000
  H   H407      1.0  0.07209309351674786  0.9084934819451972  0.6399603445837426  1.0000
  H   H408      1.0  0.18112147355194708  0.8129832345071272  0.6293650207231972  1.0000
  H   H409      1.0  0.22463818282869985  0.8585462495765491  0.6052145408169919  1.0000
  H   H410      1.0  0.20287408328959544  0.8626945435758125  0.6714513350697433  1.0000
  H   H411      1.0  0.1954981306610546  0.94933272512788  0.5913903158347505  1.0000
  H   H412      1.0  0.17475531266842492  0.9526582423785851  0.6583090364023588  1.0000
  H   H413      1.0  0.1315209208044461  0.9696970080313788  0.6061255475055786  1.0000
  H   H414      1.0  0.16592043431339354  0.881556074683067  0.5324665571626568  1.0000
  H   H415      1.0  0.10171262561721073  0.9014199530720565  0.5464215489953207  1.0000
  H   H416      1.0  0.12285431584264916  0.8356032281469273  0.5561834670489064  1.0000
  N   N25       1.0  0.13288064815621048  0.9067543564294082  0.12506061096917975  1.0000
  C   C289      1.0  0.12956369750012028  0.9627229055879457  0.13543859250457665  1.0000
  C   C290      1.0  0.17760893994531593  0.8833440394266757  0.1516794619468127  1.0000
  C   C291      1.0  0.1371951409151705  0.8974522118326714  0.06799078669731043  1.0000
  C   C292      1.0  0.08702671330948507  0.8833230202854854  0.1452269462352739  1.0000
  H   H417      1.0  0.09638264257428197  0.9815115743802736  0.11541082668305608  1.0000
  H   H418      1.0  0.16379747190584504  0.981669164610332  0.12131088082855716  1.0000
  H   H419      1.0  0.12523969637123608  0.9712637542545118  0.17807472685027995  1.0000
  H   H420      1.0  0.18031335003862756  0.8409306022459236  0.14542827922811094  1.0000
  H   H421      1.0  0.21320168768715633  0.8991307143965097  0.13682528078470582  1.0000
  H   H422      1.0  0.17586042597576468  0.8902378012128555  0.1947741734358984  1.0000
  H   H423      1.0  0.13818864439498696  0.8555875468711619  0.05842114641881731  1.0000
  H   H424      1.0  0.17200956160486755  0.9134347966995615  0.05145748002076399  1.0000
  H   H425      1.0  0.10466473081515305  0.9156871492644206  0.046623082434105616  1.0000
  H   H426      1.0  0.05250062381858457  0.8997801294879985  0.1257365885573806  1.0000
  H   H427      1.0  0.08264370604217959  0.8895884759194471  0.18825361417750416  1.0000
  H   H428      1.0  0.08849548300107966  0.8410134284700274  0.13822533457249767  1.0000
  N   N26       1.0  0.13701855634453527  0.3096402647707215  0.563992507220885  1.0000
  C   C293      1.0  0.17622535535404085  0.338736867638577  0.5903982856635032  1.0000
  C   C294      1.0  0.16095512623377625  0.26559462208254  0.5351778746566543  1.0000
  C   C295      1.0  0.10922231640856188  0.34365398166117817  0.5267955689948561  1.0000
  C   C296      1.0  0.10176446729059525  0.29065393258206  0.60361516095573  1.0000
  H   H429      1.0  0.1590895058579322  0.3720086568006638  0.6127200847047599  1.0000
  H   H430      1.0  0.2030495110282727  0.35472954367293746  0.5617742218654369  1.0000
  H   H431      1.0  0.1985822813047125  0.31407110229046936  0.6181538856237511  1.0000
  H   H432      1.0  0.18385119566994335  0.24012751448837388  0.5617625289850287  1.0000
  H   H433      1.0  0.1321165215969062  0.24184928124373695  0.5161774787511789  1.0000
  H   H434      1.0  0.18638233605312615  0.2789061522750784  0.5038515196530882  1.0000
  H   H435      1.0  0.08222750436801975  0.32196317605948455  0.5032536966404736  1.0000
  H   H436      1.0  0.13542024168134448  0.36181279248766895  0.4989727526635089  1.0000
  H   H437      1.0  0.08764960300651504  0.3753428513900943  0.5476078736495162  1.0000
  H   H438      1.0  0.072400608339381  0.26746734645323933  0.585344810694106  1.0000
  H   H439      1.0  0.08200544958041019  0.32288872119005535  0.6254028974158299  1.0000
  H   H440      1.0  0.1218168065281374  0.26563107964011623  0.6327916164451428  1.0000
  N   N27       1.0  0.8772360282068302  0.9887761636832244  0.24235566408491235  1.0000
  C   C297      1.0  0.8504995127553733  0.9458389089905328  0.21851608202185427  1.0000
  C   C298      1.0  0.856467089306942  6.906905169290489e-05  0.2952427529170285  1.0000
  C   C299      1.0  0.8705654307834434  0.034842567121972534  0.20897450016518995  1.0000
  C   C300      1.0  0.9316419127276011  0.9743341476625594  0.24665583600438531  1.0000
  H   H441      1.0  0.854154038064442  0.910392152140897  0.24260944039554821  1.0000
  H   H442      1.0  0.8653299868740654  0.9358556157215783  0.1786857395121557  1.0000
  H   H443      1.0  0.809466747831969  0.9555458074509134  0.21368200144128932  1.0000
  H   H444      1.0  0.875938247211028  0.03203882130507707  0.3145530316034774  1.0000
  H   H445      1.0  0.8156114962852745  0.01150630038691225  0.29367678858742596  1.0000
  H   H446      1.0  0.8605744043667072  0.9660165941235546  0.3214006048155575  1.0000
  H   H447      1.0  0.8300735078129284  0.04743130862288503  0.2053715750766047  1.0000
  H   H448      1.0  0.8849822821797928  0.027154075897660945  0.16852965407037532  1.0000
  H   H449      1.0  0.891022872413982  0.06778386504632472  0.22506642511282698  1.0000
  H   H450      1.0  0.9381604488877368  0.9397306808994975  0.27156701883475776  1.0000
  H   H451      1.0  0.9530310438633921  0.006078011389959004  0.26403245023398286  1.0000
  H   H452      1.0  0.9486229621166866  0.9657221901713878  0.2075407305993333  1.0000
  N   N28       1.0  0.9069203949249668  0.7075434340845079  0.9847651900763509  1.0000
  C   C301      1.0  0.9583002491195753  0.7161622400705929  0.965087014693264  1.0000
  C   C302      1.0  0.8699234425991018  0.7404180102291198  0.9556422290208714  1.0000
  C   C303      1.0  0.9039247923035449  0.7208022764791654  0.04108900358555978  1.0000
  C   C304      1.0  0.8956416250274807  0.6529846664770738  0.9769440989375395  1.0000
  H   H453      1.0  0.9620284326462054  0.7060837736767811  0.9227783234137601  1.0000
  H   H454      1.0  0.9874452703102716  0.6928100385290707  0.9867803825643894  1.0000
  H   H455      1.0  0.9675618706501449  0.7573417381772477  0.9687687399806827  1.0000
  H   H456      1.0  0.8788699004051111  0.7817429139111159  0.9587085974028372  1.0000
  H   H457      1.0  0.8704230508984547  0.7304427536330275  0.9132375813414733  1.0000
  H   H458      1.0  0.8307556821392672  0.7366415223422444  0.9704163715291821  1.0000
  H   H459      1.0  0.9122011988110251  0.761870417017274  0.047789574281530633  1.0000
  H   H460      1.0  0.9315347975431219  0.6969351353358163  0.06442048345179807  1.0000
  H   H461      1.0  0.8655980648840117  0.7152127209478976  0.05727194297897675  1.0000
  H   H462      1.0  0.8975101247069908  0.641962053700691  0.934695174052498  1.0000
  H   H463      1.0  0.8573448833245736  0.6447342545083852  0.9915992082455476  1.0000
  H   H464      1.0  0.9234323373727248  0.6271052381005238  0.9975608292807704  1.0000
  N   N29       1.0  0.3884040282043622  0.7388359502619455  0.9745288247898202  1.0000
  C   C305      1.0  0.43128133682691844  0.704994875072886  0.956465153869547  1.0000
  C   C306      1.0  0.3749932996165106  0.7255873032252188  0.028889342581324584  1.0000
  C   C307      1.0  0.34455868887390856  0.7317520502771143  0.9400408786895348  1.0000
  C   C308      1.0  0.4026190603616994  0.7930391036224517  0.9727028812337347  1.0000
  H   H465      1.0  0.4215000808811563  0.6639516976232334  0.9573622400271181  1.0000
  H   H466      1.0  0.4651652257417993  0.7090896516810014  0.9815924730498432  1.0000
  H   H467      1.0  0.44194217873066965  0.713581727070389  0.9153168633334094  1.0000
  H   H468      1.0  0.3453252569522515  0.7526519543853809  0.04487586273909483  1.0000
  H   H469      1.0  0.360190466736768  0.6863709344776823  0.03147529541373517  1.0000
  H   H470      1.0  0.4079480830055451  0.7270889923088371  0.05542736594062925  1.0000
  H   H471      1.0  0.3538965659317304  0.7391112521670512  0.8983387530993413  1.0000
  H   H472      1.0  0.3123109067581862  0.7582535472524219  0.9510349538200011  1.0000
  H   H473      1.0  0.33140404126582196  0.6918078388544312  0.9423802656227162  1.0000
  H   H474      1.0  0.43557955613824667  0.7996224816941943  0.9984390991646832  1.0000
  H   H475      1.0  0.37102356427332384  0.8195375557355442  0.9864031953435072  1.0000
  H   H476      1.0  0.4124533378959388  0.8045338545525862  0.9321689515958819  1.0000
  N   N30       1.0  0.3620480846213459  0.20190812104387196  0.08434422749599024  1.0000
  C   C309      1.0  0.3310315709009308  0.15630070905311236  0.0800352717075159  1.0000
  C   C310      1.0  0.398351165029048  0.19488427793366944  0.1279266915843924  1.0000
  C   C311      1.0  0.32863198176671554  0.24786074646822612  0.0943353357975516  1.0000
  C   C312      1.0  0.39011084995908646  0.20873103604788953  0.03498685669388246  1.0000
  H   H477      1.0  0.30843146199102267  0.1507615730185077  0.11625467455398475  1.0000
  H   H478      1.0  0.35479861259990497  0.12068026954493985  0.07300834818048418  1.0000
  H   H479      1.0  0.30406084367128783  0.15985830833609235  0.04669807101852674  1.0000
  H   H480      1.0  0.37877176854653205  0.18918937210946238  0.16591470181171886  1.0000
  H   H481      1.0  0.42482738540167914  0.16111647380140792  0.12109091679886785  1.0000
  H   H482      1.0  0.42173111480876924  0.22902123644668004  0.1326907916697082  1.0000
  H   H483      1.0  0.35036259281926146  0.2833881650580721  0.09630942517944585  1.0000
  H   H484      1.0  0.30823096735057803  0.24456971024475113  0.13217097970197478  1.0000
  H   H485      1.0  0.2995950713657824  0.2531638723550095  0.06316497078541206  1.0000
  H   H486      1.0  0.4140100564129135  0.24272937678767803  0.03702605722640717  1.0000
  H   H487      1.0  0.3639724708587525  0.21423321949064658  0.0012101710312992786  1.0000
  H   H488      1.0  0.4154816640251314  0.17452266463456012  0.026131737027219604  1.0000
  N   N31       1.0  0.6379183453912896  0.8564437690134205  0.5263086596002972  1.0000
  C   C313      1.0  0.614377280347582  0.824880195977341  0.5668652280111022  1.0000
  C   C314      1.0  0.6844595712140663  0.8292417286087409  0.5067628168329716  1.0000
  C   C315      1.0  0.650511943666223  0.9065697883875438  0.5491483545817037  1.0000
  C   C316      1.0  0.6022248509224208  0.8651640554169362  0.4824386389265513  1.0000
  H   H489      1.0  0.6402146214372341  0.8176635488266981  0.6007057047903323  1.0000
  H   H490      1.0  0.6044199803333  0.7867542130979345  0.5509635765403519  1.0000
  H   H491      1.0  0.5789972207661299  0.8441464637381152  0.5823877675973487  1.0000
  H   H492      1.0  0.7039056598093466  0.8522428673098175  0.47674263657993976  1.0000
  H   H493      1.0  0.7116905530518586  0.8205401980250684  0.5389705061821015  1.0000
  H   H494      1.0  0.6762202302536932  0.7917599404760325  0.4881500306076336  1.0000
  H   H495      1.0  0.6160280943017796  0.9280279326933608  0.5640290740523562  1.0000
  H   H496      1.0  0.6681814063100727  0.9314894228823971  0.5194992166271984  1.0000
  H   H497      1.0  0.6770071370570213  0.9016755902326258  0.5826710989955584  1.0000
  H   H498      1.0  0.5920227039693233  0.8283045123870751  0.4638613147258789  1.0000
  H   H499      1.0  0.6186539243034921  0.8893147309443804  0.45133656010142886  1.0000
  H   H500      1.0  0.5665435123641216  0.8853674783321908  0.49597781388170015  1.0000
  N   N32       1.0  0.5773801619162485  0.8626165947068433  0.8612833497879581  1.0000
  C   C317      1.0  0.607307514946587  0.9064760678120571  0.8454184656089072  1.0000
  C   C318      1.0  0.6048294193363493  0.8138796211313223  0.8467699876662251  1.0000
  C   C319      1.0  0.5279965938936299  0.8657130284253933  0.8343967825157578  1.0000
  C   C320      1.0  0.5694050927985691  0.8646101173749376  0.9186296848519716  1.0000
  H   H501      1.0  0.6167640201106627  0.904996512284114  0.8029671738729182  1.0000
  H   H502      1.0  0.643370299343624  0.9072485006893434  0.8679077949188061  1.0000
  H   H503      1.0  0.5865834971590501  0.9438226544868242  0.8533016350768279  1.0000
  H   H504      1.0  0.5840040002142652  0.77989139932699  0.8593823322963451  1.0000
  H   H505      1.0  0.6110027688369659  0.810784521992308  0.8036715341360433  1.0000
  H   H506      1.0  0.6426582996079208  0.8108288732093013  0.8655250038111338  1.0000
  H   H507      1.0  0.5327437944123472  0.865301553962717  0.7910086203650266  1.0000
  H   H508      1.0  0.5059692927989161  0.9016660267742338  0.8451915311823945  1.0000
  H   H509      1.0  0.504773662884248  0.8326906507917202  0.8448665548512087  1.0000
  H   H510      1.0  0.550070803316093  0.9015138853439557  0.9309738535245392  1.0000
  H   H511      1.0  0.6059827632195824  0.8621583176075965  0.9401338513813605  1.0000
  H   H512      1.0  0.5465039335894283  0.8325582793689971  0.9322728907967676  1.0000
