data_image0
_chemical_formula_structural       H4FeCH2CH2CHC2NSH6CH4CH2SCHCH3FeHSHNSCH4C7H5CH4CH2CHS2H4SH2CSCHCHCHCFeNHCHC3H3FeH2SCSHSH4C2HC2HSHFeS2FeSHFeSFeS2CHCH3C8H6CSCHCHCHS2H2C2HCHFeHSH2CH8CHCHCHFeC2H2C2NH2CHC2NSC2SCH2CNFeSH4CHCH3FeS2FeS2FeS2Fe2S3H2CSCHFeS2HNH3SH4C2HC7H7C6H4CFeCH4CH3CNCHCH4CH3SHSC2HFeHNH2CSCH3CH9CH2SFeHFeNH2FeCFeHC5H3SHC2SH2FeSCH3CHCH2CSC2HC2H2SCH3CSHCHSCHC2HCHNHFeCHCHCHSH2SH4C2FeCHNSNHSHCHFe2H2CHCHCH7C3HC2SCH2CH2NHCSFeSHFeSHCHCSH4CH2C2H2FeS2H3SH2FeCHCSH3C3NC2SHCHCHFeH5CFeCSFeSHCSC4HC2H4C3NSH2CHCSCH4CHCH3SH3NHC3H2CHC2H2C2H3C2FeCH4CH2CH3FeHCSH2CHNHCH2FeHFeS2C3H2FeS2H2FeS2FeS2FeSFeS2HSHFeSC6H5CHC6H4C6H4SH2N2C2NC4H12NC3H9C4H2FeC3FeH2CHFeHCHFeSH5FeH3SH2CH5C2SNS2H2SCHSCFeSH2SHFeSCFeSHFeSFeS2H2C2HCH3C6H4CH2SH4CFeC2H3SH2C2H4CHSHCHC2HNHSHC2HSNCH3C2H4C2H2S2CH2FeS2FeSFeHFeHS2H3CNH2C3H2CH3C7H5CHCS2CHCH3SH3C3H6CNH2NCHCH7C3H3CH3CNH4C3H2SHNSHCHC2SFeS2FeS2Fe2S3HFeS2HFeS2FeS2FeHFeHS2C2H3C6H4C6H5C2H2SHC6H3NH2CHC2H2SH2CH6CHCH3C2H2CH6CNH2CH2C2NH2CH2NHFeH3CH2CH2C2H7CSFeSHCFeSCFeSHFeSFeS3H3C6H9CHCHCHC2H3CHCSCH6CHCH2C2NSH2C4HCHC2NCH4NH3CHSCH5CH2SC2HCH5FeCSFeSHFeS2FeSFeS3NHC7NH3CH7CSH3CH3CHC2SH2C2HCHCHC2H2C2H2CH7CHCHCH6CHSC2H3NS2FeSFeS2FeSFeS3H2FeS2FeSFe2SFeS3H2CH2C6H4C6H4CHCH2C6H6NC4H14C4H2C2HSHC2HC2HNH5C2H4FeH3C3NH2CH2SHC2HSFe2H2FeS2FeHFeCS2CSH4CSCH4NCHC9H4C2H6CH3C3H2NH9CH2CSCHNSH2FeHSCH2C2H3C2HC2FeS2FeCSFeCFeCS2FeCSC3HSH8CH2C7H12CH6SHC2SHS2H3NH3C4HCSC2HCHCH3CHCFeNHS2C4HCS2FeSHFeS2FeSFeS3FeS2FeHSH4C2HC7H4CH2C3HC4H3C6H4NHC3HCHCH4SFe2C2H8C2SNH4CH3CHNCHCHNCH6CH4CH2SH3SH6CSCFeH2SHCFeH2SNHFeH2C2H2CH3SC2HCSH2SC2H3CNH3C2HC2H2CNCH6CH8C2H2CFeNH2CSHC3SHFeHCS2H2SCH2FeCSH2CHCH2SHCH3NH2CH2CHS2HCHC2HFe2SC2FeHFe2CHSH3S2FeH2CH2S2CH3SH3SHC2HC2HNCHC3HC2H6NSH4C2HSCHC2SHCH2CHNS2HCH2CHC3SHSNH2FeS2HCHFeS2FeS2FeSFeS3CSHFeSCHSFeSH2C2SH2C6H4CH4C6H5CFeH2NC2H2NC4H3CH4FeH2CNHCH3CH2CFeH6C2H2CH2CSFeH3SCH2FeCHSNHC3HFeHFeSCFeSCFeCFeSCSCHFeSCHCH2SCH2CH4NH2CHC6H5SH5CH6CHNC4H7CS2HCH3CH2C3HCH2C2HSC3H2CH5C2H3SCSH2NCH3C2NH4CHCH3FeHCHC3H2NSH2FeS2CHSCH2CHC6H2SH3C3HCSH3SH3CH2FeSHC2HCSH2CH2NSCHCHCFeH2SCH2NSHSH2SC3H2CH4C2
_chemical_formula_sum              "H1152 Fe144 C720 N72 S288"
_cell_length_a       80.005
_cell_length_b       79.4928
_cell_length_c       36.8888
_cell_angle_alpha    91.4477
_cell_angle_beta     91.4257
_cell_angle_gamma    116.106

_space_group_name_H-M_alt    "P 1"
_space_group_IT_number       1

loop_
  _space_group_symop_operation_xyz
  'x, y, z'

loop_
  _atom_site_type_symbol
  _atom_site_label
  _atom_site_symmetry_multiplicity
  _atom_site_fract_x
  _atom_site_fract_y
  _atom_site_fract_z
  _atom_site_occupancy
  H   H1        1.0  0.03714  0.46638  0.22462  1.0000
  H   H2        1.0  0.02150  0.42215  0.16977  1.0000
  H   H3        1.0  0.06100  0.47020  0.17967  1.0000
  H   H4        1.0  0.03039  0.46633  0.12401  1.0000
  Fe  Fe1       1.0  0.00333  0.43517  0.05203  1.0000
  C   C1        1.0  0.02781  0.46640  0.15357  1.0000
  H   H5        1.0  0.24856  0.49473  0.00337  1.0000
  H   H6        1.0  0.05451  0.45580  0.13850  1.0000
  C   C2        1.0  0.02792  0.45260  0.21108  1.0000
  H   H7        1.0  0.05473  0.44555  0.18129  1.0000
  H   H8        1.0  0.29739  0.48451  0.22668  1.0000
  C   C3        1.0  0.01956  0.43341  0.15568  1.0000
  H   H9        1.0  0.23639  0.48804  0.14918  1.0000
  C   C4        1.0  0.07063  0.46319  0.02862  1.0000
  C   C5        1.0  0.05142  0.45374  0.01945  1.0000
  N   N1        1.0  0.03169  0.45215  0.17210  1.0000
  S   S1        1.0  0.03525  0.44702  0.05492  1.0000
  H   H10       1.0  0.07522  0.46616  0.05688  1.0000
  H   H11       1.0  0.01300  0.46374  0.15622  1.0000
  H   H12       1.0  0.01329  0.45017  0.21502  1.0000
  H   H13       1.0  0.00463  0.43032  0.15705  1.0000
  H   H14       1.0  0.02998  0.44154  0.22578  1.0000
  H   H15       1.0  0.03671  0.48076  0.16513  1.0000
  C   C6        1.0  0.05138  0.45612  0.16778  1.0000
  H   H16       1.0  0.09870  0.47599  0.00910  1.0000
  H   H17       1.0  0.02248  0.43241  0.12654  1.0000
  H   H18       1.0  0.24648  0.48432  0.08732  1.0000
  H   H19       1.0  0.23983  0.48031  0.31490  1.0000
  C   C7        1.0  0.08401  0.46882  0.00155  1.0000
  H   H20       1.0  0.30538  0.49719  0.29045  1.0000
  H   H21       1.0  0.27004  0.49474  0.10564  1.0000
  S   S2        1.0  0.29787  0.49891  0.05252  1.0000
  C   C8        1.0  0.25895  0.49790  0.09320  1.0000
  H   H22       1.0  0.27443  0.49455  0.31570  1.0000
  C   C9        1.0  0.30469  0.49950  0.23203  1.0000
  H   H23       1.0  0.26027  0.49916  0.16583  1.0000
  H   H24       1.0  0.07282  0.49867  0.01380  1.0000
  H   H25       1.0  0.22679  0.50055  0.09452  1.0000
  Fe  Fe2       1.0  0.00455  0.44040  0.44675  1.0000
  H   H26       1.0  0.12076  0.43690  0.58591  1.0000
  S   S3        1.0  0.02800  0.45390  0.49104  1.0000
  H   H27       1.0  0.09149  0.46962  0.60844  1.0000
  N   N2        1.0  0.10337  0.45037  0.59892  1.0000
  S   S4        1.0  0.11571  0.47709  0.49766  1.0000
  C   C10       1.0  0.23758  0.49291  0.49354  1.0000
  H   H28       1.0  0.08616  0.44185  0.64517  1.0000
  H   H29       1.0  0.07461  0.43805  0.58010  1.0000
  H   H30       1.0  0.05830  0.48052  0.53638  1.0000
  H   H31       1.0  0.13298  0.46018  0.60603  1.0000
  C   C11       1.0  0.05256  0.46129  0.49029  1.0000
  C   C12       1.0  0.06427  0.47447  0.51705  1.0000
  C   C13       1.0  0.08368  0.48004  0.51888  1.0000
  C   C14       1.0  0.09161  0.47209  0.49452  1.0000
  C   C15       1.0  0.07990  0.45891  0.46780  1.0000
  C   C16       1.0  0.06056  0.45369  0.46542  1.0000
  C   C17       1.0  0.10480  0.46954  0.60073  1.0000
  H   H32       1.0  0.09103  0.44433  0.54482  1.0000
  H   H33       1.0  0.08580  0.45262  0.44880  1.0000
  H   H34       1.0  0.05179  0.44345  0.44484  1.0000
  H   H35       1.0  0.00513  0.48525  0.44876  1.0000
  H   H36       1.0  0.24591  0.47509  0.39670  1.0000
  C   C18       1.0  0.12117  0.45106  0.58711  1.0000
  H   H37       1.0  0.23388  0.47808  0.49313  1.0000
  H   H38       1.0  0.01452  0.46622  0.60575  1.0000
  H   H39       1.0  0.00713  0.44129  0.60694  1.0000
  H   H40       1.0  0.01866  0.45394  0.56821  1.0000
  C   C19       1.0  0.08823  0.43863  0.57253  1.0000
  H   H41       1.0  0.22824  0.48516  0.35201  1.0000
  H   H42       1.0  0.09242  0.49039  0.53925  1.0000
  C   C20       1.0  0.24095  0.49119  0.33568  1.0000
  H   H43       1.0  0.12442  0.45678  0.55950  1.0000
  S   S5        1.0  0.16056  0.49065  0.56110  1.0000
  S   S6        1.0  0.27121  0.49670  0.46779  1.0000
  H   H44       1.0  0.00288  0.46664  0.52714  1.0000
  H   H45       1.0  0.11075  0.45114  0.65554  1.0000
  H   H46       1.0  0.21094  0.48928  0.51343  1.0000
  H   H47       1.0  0.11584  0.47873  0.62092  1.0000
  S   S7        1.0  0.31116  0.49768  0.40522  1.0000
  H   H48       1.0  0.10839  0.47611  0.57403  1.0000
  H   H49       1.0  0.09829  0.42797  0.63505  1.0000
  C   C21       1.0  0.00844  0.45285  0.58915  1.0000
  S   S8        1.0  0.00355  0.45063  0.39068  1.0000
  C   C22       1.0  0.09942  0.44243  0.63527  1.0000
  H   H50       1.0  0.08667  0.42402  0.57044  1.0000
  C   C23       1.0  0.25764  0.48081  0.37788  1.0000
  H   H51       1.0  0.25633  0.46933  0.35844  1.0000
  C   C24       1.0  0.22450  0.49923  0.50512  1.0000
  H   H52       1.0  0.27062  0.48466  0.39474  1.0000
  C   C25       1.0  0.00298  0.50024  0.49648  1.0000
  Fe  Fe3       1.0  0.14019  0.49904  0.53242  1.0000
  N   N3        1.0  0.25803  0.49716  0.35901  1.0000
  H   H53       1.0  0.99825  0.47871  0.56438  1.0000
  C   C26       1.0  0.99711  0.49140  0.46209  1.0000
  H   H54       1.0  0.14449  0.49102  0.79609  1.0000
  C   C27       1.0  0.07836  0.46469  0.96488  1.0000
  C   C28       1.0  0.14728  0.49215  0.73774  1.0000
  C   C29       1.0  0.00623  0.49561  0.96029  1.0000
  H   H55       1.0  0.05460  0.45186  0.92748  1.0000
  H   H56       1.0  0.18763  0.48414  0.84028  1.0000
  H   H57       1.0  0.99793  0.49988  0.86781  1.0000
  Fe  Fe4       1.0  0.12537  0.49257  0.93152  1.0000
  H   H58       1.0  0.01857  0.49469  0.95135  1.0000
  H   H59       1.0  0.13894  0.47723  0.73308  1.0000
  S   S9        1.0  0.09462  0.47104  0.92955  1.0000
  C   C30       1.0  0.05915  0.45522  0.95572  1.0000
  S   S10       1.0  0.14878  0.49051  0.90139  1.0000
  H   H60       1.0  0.07540  0.49705  0.93127  1.0000
  S   S11       1.0  0.18948  0.49614  0.96686  1.0000
  H   H61       1.0  0.22116  0.49383  0.85537  1.0000
  H   H62       1.0  0.03107  0.44256  0.97519  1.0000
  H   H63       1.0  0.18509  0.49138  0.88547  1.0000
  H   H64       1.0  0.05375  0.48977  0.98096  1.0000
  C   C31       1.0  0.18881  0.49633  0.85748  1.0000
  C   C32       1.0  0.15042  0.49994  0.77359  1.0000
  H   H65       1.0  0.21483  0.48068  0.98546  1.0000
  C   C33       1.0  0.22275  0.49578  0.98760  1.0000
  C   C34       1.0  0.04576  0.44991  0.98275  1.0000
  H   H66       1.0  0.00581  0.49804  0.80349  1.0000
  S   S12       1.0  0.15052  0.49287  0.66329  1.0000
  H   H67       1.0  0.17813  0.50059  0.84687  1.0000
  Fe  Fe5       1.0  0.19017  0.69827  0.04474  1.0000
  S   S13       1.0  0.19271  0.67839  0.08467  1.0000
  S   S14       1.0  0.21444  0.72797  0.04768  1.0000
  Fe  Fe6       1.0  0.15111  0.66839  0.01606  1.0000
  S   S15       1.0  0.15141  0.64674  0.05352  1.0000
  H   H68       1.0  0.05576  0.50763  0.01388  1.0000
  Fe  Fe7       1.0  0.16278  0.67025  0.09654  1.0000
  S   S16       1.0  0.14925  0.66551  0.15173  1.0000
  Fe  Fe8       1.0  0.18122  0.65671  0.03883  1.0000
  S   S17       1.0  0.31534  0.54227  0.08650  1.0000
  S   S18       1.0  0.16065  0.69156  0.05955  1.0000
  C   C35       1.0  0.15778  0.57650  0.99903  1.0000
  H   H69       1.0  0.10318  0.64865  0.02830  1.0000
  C   C36       1.0  0.31930  0.53087  0.21003  1.0000
  H   H70       1.0  0.22965  0.67127  0.05713  1.0000
  H   H71       1.0  0.23580  0.52314  0.11797  1.0000
  H   H72       1.0  0.19397  0.72116  0.11701  1.0000
  C   C37       1.0  0.00160  0.59534  0.03920  1.0000
  C   C38       1.0  0.18862  0.71611  0.14421  1.0000
  C   C39       1.0  0.17143  0.67726  0.27113  1.0000
  C   C40       1.0  0.15238  0.66703  0.26245  1.0000
  C   C41       1.0  0.14594  0.66298  0.22579  1.0000
  C   C42       1.0  0.15842  0.66870  0.19733  1.0000
  C   C43       1.0  0.17754  0.67823  0.20605  1.0000
  C   C44       1.0  0.18394  0.68278  0.24267  1.0000
  H   H73       1.0  0.14256  0.66287  0.28392  1.0000
  H   H74       1.0  0.13112  0.65565  0.21945  1.0000
  H   H75       1.0  0.18739  0.68248  0.18468  1.0000
  H   H76       1.0  0.19869  0.69070  0.24907  1.0000
  H   H77       1.0  0.25216  0.72204  0.04088  1.0000
  H   H78       1.0  0.15235  0.70688  0.13212  1.0000
  C   C45       1.0  0.25487  0.68355  0.00463  1.0000
  S   S19       1.0  0.32324  0.53615  0.32077  1.0000
  C   C46       1.0  0.16188  0.72220  0.13470  1.0000
  H   H79       1.0  0.27557  0.51754  0.32206  1.0000
  C   C47       1.0  0.30980  0.51152  0.20263  1.0000
  H   H80       1.0  0.32328  0.54033  0.18783  1.0000
  C   C48       1.0  0.25866  0.71402  0.02662  1.0000
  H   H81       1.0  0.15961  0.61447  0.04741  1.0000
  S   S20       1.0  0.19558  0.63918  0.02039  1.0000
  S   S21       1.0  0.27651  0.53425  0.01521  1.0000
  H   H82       1.0  0.17962  0.70078  0.14093  1.0000
  H   H83       1.0  0.16619  0.72707  0.10689  1.0000
  C   C49       1.0  0.16401  0.60636  0.02950  1.0000
  C   C50       1.0  0.09542  0.64359  0.00271  1.0000
  H   H84       1.0  0.27626  0.53556  0.09690  1.0000
  C   C51       1.0  0.15227  0.58728  0.02209  1.0000
  H   H85       1.0  0.16467  0.72692  0.20837  1.0000
  Fe  Fe9       1.0  0.29988  0.52662  0.03491  1.0000
  H   H86       1.0  0.20075  0.71814  0.16232  1.0000
  S   S22       1.0  0.18008  0.68557  0.31631  1.0000
  H   H87       1.0  0.01310  0.62786  0.07750  1.0000
  H   H88       1.0  0.24379  0.52086  0.07402  1.0000
  C   C52       1.0  0.31840  0.52604  0.27567  1.0000
  H   H89       1.0  0.27159  0.71646  0.04248  1.0000
  H   H90       1.0  0.20285  0.74954  0.18028  1.0000
  H   H91       1.0  0.06858  0.63177  0.02712  1.0000
  H   H92       1.0  0.16149  0.70405  0.19399  1.0000
  H   H93       1.0  0.00449  0.59404  0.06836  1.0000
  H   H94       1.0  0.26898  0.53846  0.14124  1.0000
  H   H95       1.0  0.15361  0.72935  0.14503  1.0000
  H   H96       1.0  0.28332  0.52648  0.13555  1.0000
  C   C53       1.0  0.23151  0.74101  0.01586  1.0000
  H   H97       1.0  0.02310  0.63213  0.03359  1.0000
  C   C54       1.0  0.27155  0.52855  0.12306  1.0000
  H   H98       1.0  0.23345  0.69414  0.07387  1.0000
  C   C55       1.0  0.24192  0.50372  0.99788  1.0000
  H   H99       1.0  0.18345  0.72044  0.21414  1.0000
  Fe  Fe10      1.0  0.31431  0.51492  0.10327  1.0000
  C   C56       1.0  0.18138  0.61485  0.01390  1.0000
  C   C57       1.0  0.24896  0.50176  0.15258  1.0000
  H   H100      1.0  0.08191  0.53999  0.01040  1.0000
  H   H101      1.0  0.13877  0.58088  0.03403  1.0000
  C   C58       1.0  0.24001  0.68634  0.05910  1.0000
  C   C59       1.0  0.32339  0.53805  0.24628  1.0000
  N   N4        1.0  0.17818  0.72594  0.15909  1.0000
  H   H102      1.0  0.01463  0.59848  0.02470  1.0000
  H   H103      1.0  0.24531  0.66826  0.00149  1.0000
  C   C60       1.0  0.07577  0.63394  0.00196  1.0000
  H   H104      1.0  0.00564  0.63970  0.04448  1.0000
  C   C61       1.0  0.30916  0.50666  0.26830  1.0000
  C   C62       1.0  0.00989  0.62825  0.04810  1.0000
  N   N5        1.0  0.25472  0.51053  0.11731  1.0000
  S   S23       1.0  0.30289  0.50176  0.15751  1.0000
  C   C63       1.0  0.25242  0.52322  0.00077  1.0000
  C   C64       1.0  0.17172  0.71911  0.19549  1.0000
  S   S24       1.0  0.32657  0.53353  0.00582  1.0000
  C   C65       1.0  0.23958  0.51389  0.10033  1.0000
  H   H105      1.0  0.25213  0.68744  0.07618  1.0000
  H   H106      1.0  0.26752  0.68506  0.02043  1.0000
  C   C66       1.0  0.19049  0.74630  0.16182  1.0000
  N   N6        1.0  0.24568  0.69383  0.02281  1.0000
  Fe  Fe11      1.0  0.32581  0.50692  0.02768  1.0000
  S   S25       1.0  0.18048  0.67697  0.99836  1.0000
  H   H107      1.0  0.26390  0.50433  0.06672  1.0000
  H   H108      1.0  0.24570  0.51090  0.17157  1.0000
  H   H109      1.0  0.09847  0.53033  0.00917  1.0000
  H   H110      1.0  0.22149  0.69851  0.01429  1.0000
  C   C67       1.0  0.06388  0.50274  0.99602  1.0000
  H   H111      1.0  0.24075  0.50321  0.32114  1.0000
  C   C68       1.0  0.22902  0.69135  0.00083  1.0000
  H   H112      1.0  0.26278  0.72033  0.99970  1.0000
  H   H113      1.0  0.25131  0.54965  0.99526  1.0000
  H   H114      1.0  0.21905  0.67627  0.99678  1.0000
  Fe  Fe12      1.0  0.01728  0.58397  0.52109  1.0000
  S   S26       1.0  0.03789  0.59504  0.47506  1.0000
  S   S27       1.0  0.02466  0.57277  0.57114  1.0000
  Fe  Fe13      1.0  0.14619  0.66280  0.43889  1.0000
  S   S28       1.0  0.14711  0.64619  0.38916  1.0000
  S   S29       1.0  0.12165  0.66008  0.47323  1.0000
  Fe  Fe14      1.0  0.18934  0.68363  0.44881  1.0000
  S   S30       1.0  0.19306  0.66764  0.40103  1.0000
  S   S31       1.0  0.21325  0.70236  0.48893  1.0000
  Fe  Fe15      1.0  0.17083  0.67304  0.37194  1.0000
  Fe  Fe16      1.0  0.16928  0.64217  0.42136  1.0000
  S   S32       1.0  0.16799  0.61311  0.42001  1.0000
  S   S33       1.0  0.16817  0.69033  0.41943  1.0000
  S   S34       1.0  0.16726  0.65736  0.47153  1.0000
  H   H115      1.0  0.12208  0.62243  0.47091  1.0000
  H   H116      1.0  0.18642  0.72109  0.57827  1.0000
  C   C69       1.0  0.25542  0.50558  0.48288  1.0000
  S   S35       1.0  0.18249  0.53372  0.59291  1.0000
  C   C70       1.0  0.22887  0.73955  0.46743  1.0000
  H   H117      1.0  0.03763  0.57176  0.40592  1.0000
  Fe  Fe17      1.0  0.16156  0.53954  0.56045  1.0000
  S   S36       1.0  0.16442  0.56926  0.56311  1.0000
  S   S37       1.0  0.99980  0.59510  0.55152  1.0000
  H   H118      1.0  0.16751  0.72161  0.46904  1.0000
  N   N7        1.0  0.21877  0.58229  0.52101  1.0000
  H   H119      1.0  0.10857  0.56836  0.51238  1.0000
  H   H120      1.0  0.17611  0.69341  0.51362  1.0000
  H   H121      1.0  0.09403  0.60661  0.50669  1.0000
  S   S38       1.0  0.31138  0.53872  0.41905  1.0000
  H   H122      1.0  0.25059  0.54587  0.49570  1.0000
  H   H123      1.0  0.10925  0.58296  0.43571  1.0000
  H   H124      1.0  0.08890  0.57168  0.46214  1.0000
  H   H125      1.0  0.09473  0.59440  0.44460  1.0000
  C   C71       1.0  0.25991  0.52472  0.48360  1.0000
  C   C72       1.0  0.24682  0.53103  0.49506  1.0000
  H   H126      1.0  0.31217  0.74146  0.44636  1.0000
  C   C73       1.0  0.19025  0.72635  0.55057  1.0000
  C   C74       1.0  0.16705  0.60121  0.46009  1.0000
  C   C75       1.0  0.16251  0.58203  0.45753  1.0000
  C   C76       1.0  0.16115  0.57196  0.48895  1.0000
  C   C77       1.0  0.16473  0.58110  0.52315  1.0000
  C   C78       1.0  0.16923  0.60027  0.52573  1.0000
  C   C79       1.0  0.17038  0.61031  0.49431  1.0000
  H   H127      1.0  0.15981  0.57489  0.43111  1.0000
  H   H128      1.0  0.15737  0.55713  0.48661  1.0000
  H   H129      1.0  0.17204  0.60744  0.55213  1.0000
  H   H130      1.0  0.17406  0.62512  0.49654  1.0000
  H   H131      1.0  0.99909  0.53148  0.35691  1.0000
  H   H132      1.0  0.00384  0.53347  0.45808  1.0000
  H   H133      1.0  0.21864  0.73486  0.44510  1.0000
  C   C80       1.0  0.06131  0.61294  0.47578  1.0000
  C   C81       1.0  0.06939  0.62555  0.50545  1.0000
  C   C82       1.0  0.08780  0.63988  0.50412  1.0000
  C   C83       1.0  0.09855  0.64159  0.47352  1.0000
  C   C84       1.0  0.09059  0.62877  0.44412  1.0000
  C   C85       1.0  0.07206  0.61467  0.44516  1.0000
  H   H134      1.0  0.06132  0.62452  0.52912  1.0000
  H   H135      1.0  0.09372  0.64974  0.52699  1.0000
  H   H136      1.0  0.09854  0.63002  0.42019  1.0000
  H   H137      1.0  0.06596  0.60518  0.42186  1.0000
  C   C86       1.0  0.12739  0.61263  0.48148  1.0000
  Fe  Fe18      1.0  0.00533  0.58163  0.60071  1.0000
  C   C87       1.0  0.10069  0.58544  0.45667  1.0000
  H   H138      1.0  0.10839  0.60451  0.54262  1.0000
  H   H139      1.0  0.21907  0.56185  0.55779  1.0000
  H   H140      1.0  0.13623  0.61089  0.46031  1.0000
  H   H141      1.0  0.12874  0.58863  0.52992  1.0000
  C   C88       1.0  0.24326  0.73303  0.52007  1.0000
  H   H142      1.0  0.20149  0.57350  0.47184  1.0000
  H   H143      1.0  0.15517  0.71947  0.56547  1.0000
  H   H144      1.0  0.14712  0.71912  0.51950  1.0000
  C   C89       1.0  0.16572  0.69826  0.52259  1.0000
  N   N8        1.0  0.11200  0.59443  0.49013  1.0000
  C   C90       1.0  0.22958  0.72656  0.49160  1.0000
  H   H145      1.0  0.02689  0.56210  0.36211  1.0000
  C   C91       1.0  0.11976  0.58215  0.50506  1.0000
  H   H146      1.0  0.13658  0.61966  0.50580  1.0000
  H   H147      1.0  0.27824  0.73382  0.44882  1.0000
  H   H148      1.0  0.12847  0.57930  0.48505  1.0000
  H   H149      1.0  0.08846  0.58409  0.52448  1.0000
  C   C92       1.0  0.10021  0.59752  0.51720  1.0000
  H   H150      1.0  0.23761  0.57153  0.50285  1.0000
  H   H151      1.0  0.18661  0.74201  0.48968  1.0000
  H   H152      1.0  0.16535  0.74030  0.53973  1.0000
  S   S39       1.0  0.00019  0.51912  0.55684  1.0000
  H   H153      1.0  0.21703  0.60552  0.49524  1.0000
  S   S40       1.0  0.13689  0.51482  0.58081  1.0000
  C   C93       1.0  0.17963  0.72640  0.48876  1.0000
  C   C94       1.0  0.23629  0.58493  0.50420  1.0000
  H   H154      1.0  0.18959  0.56462  0.51276  1.0000
  Fe  Fe19      1.0  0.18370  0.51750  0.54258  1.0000
  H   H155      1.0  0.23685  0.58976  0.47600  1.0000
  N   N9        1.0  0.01222  0.54637  0.40721  1.0000
  H   H156      1.0  0.02497  0.53382  0.44270  1.0000
  H   H157      1.0  0.03886  0.55123  0.38712  1.0000
  C   C95       1.0  0.20282  0.56829  0.49897  1.0000
  S   S41       1.0  0.21322  0.52744  0.52031  1.0000
  C   C96       1.0  0.21741  0.60025  0.52279  1.0000
  H   H158      1.0  0.20444  0.59861  0.53603  1.0000
  H   H159      1.0  0.25915  0.52414  0.37296  1.0000
  H   H160      1.0  0.16074  0.69202  0.54918  1.0000
  C   C97       1.0  0.21845  0.57558  0.55812  1.0000
  H   H161      1.0  0.24867  0.59544  0.52000  1.0000
  H   H162      1.0  0.22936  0.61127  0.53874  1.0000
  H   H163      1.0  0.02472  0.55492  0.46104  1.0000
  H   H164      1.0  0.19699  0.74195  0.55261  1.0000
  H   H165      1.0  0.20544  0.57359  0.57168  1.0000
  H   H166      1.0  0.23042  0.58564  0.57546  1.0000
  H   H167      1.0  0.20407  0.55502  0.49450  1.0000
  H   H168      1.0  0.24682  0.50607  0.40407  1.0000
  H   H169      1.0  0.00982  0.52015  0.38416  1.0000
  C   C98       1.0  0.22904  0.51838  0.50607  1.0000
  H   H170      1.0  0.24392  0.72317  0.53907  1.0000
  H   H171      1.0  0.27353  0.53469  0.47560  1.0000
  S   S42       1.0  0.16347  0.52444  0.50975  1.0000
  Fe  Fe20      1.0  0.32293  0.52550  0.37824  1.0000
  H   H172      1.0  0.20103  0.72202  0.54161  1.0000
  Fe  Fe21      1.0  0.30123  0.51186  0.44832  1.0000
  N   N10       1.0  0.17385  0.71895  0.52503  1.0000
  H   H173      1.0  0.28770  0.50958  0.35329  1.0000
  H   H174      1.0  0.18962  0.72157  0.47755  1.0000
  Fe  Fe22      1.0  0.99867  0.54659  0.55673  1.0000
  C   C99       1.0  0.27458  0.50502  0.33648  1.0000
  Fe  Fe23      1.0  0.15800  0.50756  0.60913  1.0000
  H   H175      1.0  0.15364  0.69222  0.50272  1.0000
  C   C100      1.0  0.01670  0.54198  0.44380  1.0000
  C   C101      1.0  0.15977  0.72475  0.53804  1.0000
  C   C102      1.0  0.02969  0.55838  0.38974  1.0000
  C   C103      1.0  0.25891  0.51160  0.38607  1.0000
  C   C104      1.0  0.00048  0.55639  0.41025  1.0000
  H   H176      1.0  0.28043  0.74651  0.40808  1.0000
  H   H177      1.0  0.00769  0.56968  0.42694  1.0000
  H   H178      1.0  0.27163  0.51644  0.40408  1.0000
  S   S43       1.0  0.01247  0.59771  0.65544  1.0000
  H   H179      1.0  0.29864  0.74873  0.50204  1.0000
  C   C105      1.0  0.28199  0.74797  0.43820  1.0000
  C   C106      1.0  0.00198  0.52876  0.38525  1.0000
  S   S44       1.0  0.32747  0.52127  0.48412  1.0000
  H   H180      1.0  0.01563  0.50107  0.50942  1.0000
  H   H181      1.0  0.99689  0.56002  0.38317  1.0000
  Fe  Fe24      1.0  0.02003  0.59270  0.93359  1.0000
  S   S45       1.0  0.02410  0.57582  0.88756  1.0000
  C   C107      1.0  0.07489  0.63062  0.93659  1.0000
  H   H182      1.0  0.06709  0.62611  0.91093  1.0000
  H   H183      1.0  0.02236  0.61294  0.72865  1.0000
  H   H184      1.0  0.10149  0.64408  0.91189  1.0000
  C   C108      1.0  0.09446  0.64085  0.93725  1.0000
  H   H185      1.0  0.11085  0.59891  0.96815  1.0000
  C   C109      1.0  0.06538  0.62740  0.96892  1.0000
  H   H186      1.0  0.09785  0.54508  0.97402  1.0000
  H   H187      1.0  0.14517  0.59879  0.90182  1.0000
  C   C110      1.0  0.00318  0.51117  0.95206  1.0000
  S   S46       1.0  0.13053  0.51982  0.90636  1.0000
  C   C111      1.0  0.17533  0.58483  0.98398  1.0000
  C   C112      1.0  0.00678  0.59070  0.76433  1.0000
  H   H188      1.0  0.00862  0.53768  0.80200  1.0000
  C   C113      1.0  0.15406  0.62993  0.94427  1.0000
  C   C114      1.0  0.12516  0.61823  0.90883  1.0000
  H   H189      1.0  0.21915  0.72178  0.97003  1.0000
  H   H190      1.0  0.16210  0.62739  0.96669  1.0000
  S   S47       1.0  0.04064  0.61769  0.96884  1.0000
  C   C115      1.0  0.23075  0.73467  0.97980  1.0000
  H   H191      1.0  0.23273  0.69725  0.97353  1.0000
  H   H192      1.0  0.07074  0.53370  0.92956  1.0000
  H   H193      1.0  0.12387  0.58448  0.92339  1.0000
  C   C116      1.0  0.21373  0.50713  0.98000  1.0000
  S   S48       1.0  0.01901  0.52909  0.92638  1.0000
  H   H194      1.0  0.22613  0.53000  0.81839  1.0000
  C   C117      1.0  0.00570  0.58722  0.69793  1.0000
  H   H195      1.0  0.21830  0.50121  0.90028  1.0000
  S   S49       1.0  0.12947  0.66082  0.96920  1.0000
  C   C118      1.0  0.01256  0.59833  0.73014  1.0000
  H   H196      1.0  0.13235  0.62032  0.88273  1.0000
  C   C119      1.0  0.22137  0.50583  0.87187  1.0000
  C   C120      1.0  0.16559  0.52276  0.71454  1.0000
  H   H197      1.0  0.15293  0.64302  0.95183  1.0000
  C   C121      1.0  0.16128  0.51921  0.78014  1.0000
  H   H198      1.0  0.05238  0.51039  0.93208  1.0000
  N   N11       1.0  0.13546  0.61393  0.93810  1.0000
  H   H199      1.0  0.17150  0.53169  0.69204  1.0000
  Fe  Fe25      1.0  0.15530  0.51892  0.88047  1.0000
  C   C122      1.0  0.10486  0.64743  0.97025  1.0000
  H   H200      1.0  0.21760  0.53560  0.97717  1.0000
  C   C123      1.0  0.12506  0.61069  0.97184  1.0000
  H   H201      1.0  0.13238  0.60735  0.99448  1.0000
  C   C124      1.0  0.13760  0.59696  0.92744  1.0000
  H   H202      1.0  0.17735  0.54542  0.75504  1.0000
  S   S50       1.0  0.17476  0.53494  0.92797  1.0000
  H   H203      1.0  0.16245  0.63263  0.91962  1.0000
  H   H204      1.0  0.12392  0.63134  0.91560  1.0000
  S   S51       1.0  0.14355  0.50576  0.98146  1.0000
  H   H205      1.0  0.00436  0.61472  0.97921  1.0000
  H   H206      1.0  0.17966  0.57663  0.96604  1.0000
  H   H207      1.0  0.21150  0.50644  0.80147  1.0000
  H   H208      1.0  0.05473  0.52802  0.96570  1.0000
  C   C125      1.0  0.16890  0.53051  0.75038  1.0000
  C   C126      1.0  0.21203  0.51807  0.81965  1.0000
  Fe  Fe26      1.0  0.14923  0.53303  0.95557  1.0000
  C   C127      1.0  0.00551  0.52995  0.82765  1.0000
  H   H209      1.0  0.20179  0.52273  0.80812  1.0000
  N   N12       1.0  0.20770  0.51203  0.85726  1.0000
  S   S52       1.0  0.16642  0.52987  0.82477  1.0000
  N   N13       1.0  0.07516  0.51731  0.97096  1.0000
  H   H210      1.0  0.20058  0.61043  0.97942  1.0000
  S   S53       1.0  0.00661  0.56797  0.96857  1.0000
  H   H211      1.0  0.01822  0.52879  0.83745  1.0000
  C   C128      1.0  0.08517  0.50990  0.94713  1.0000
  H   H212      1.0  0.20478  0.52365  0.90855  1.0000
  Fe  Fe27      1.0  0.00869  0.55111  0.92138  1.0000
  Fe  Fe28      1.0  0.16776  0.50649  0.94958  1.0000
  H   H213      1.0  0.24408  0.74010  0.92828  1.0000
  H   H214      1.0  0.01207  0.59944  0.78886  1.0000
  C   C129      1.0  0.20847  0.52788  0.88019  1.0000
  H   H215      1.0  0.00290  0.53892  0.84801  1.0000
  C   C130      1.0  0.06276  0.52262  0.94861  1.0000
  H   H216      1.0  0.14570  0.59361  0.94856  1.0000
  C   C131      1.0  0.15478  0.50349  0.70795  1.0000
  H   H217      1.0  0.25920  0.68878  0.97706  1.0000
  H   H218      1.0  0.19858  0.53314  0.86954  1.0000
  H   H219      1.0  0.22262  0.53985  0.88138  1.0000
  H   H220      1.0  0.12339  0.62331  0.98089  1.0000
  H   H221      1.0  0.11078  0.60682  0.90430  1.0000
  H   H222      1.0  0.09364  0.52038  0.92748  1.0000
  H   H223      1.0  0.23579  0.51735  0.87242  1.0000
  C   C132      1.0  0.24488  0.74519  0.95605  1.0000
  C   C133      1.0  0.22425  0.52662  0.98270  1.0000
  C   C134      1.0  0.08888  0.53392  0.99210  1.0000
  H   H224      1.0  0.09491  0.50606  0.96311  1.0000
  C   C135      1.0  0.18713  0.60398  0.99152  1.0000
  C   C136      1.0  0.24341  0.53456  0.99302  1.0000
  S   S54       1.0  0.14151  0.55331  0.98707  1.0000
  C   C137      1.0  0.26064  0.76871  0.00368  1.0000
  H   H225      1.0  0.27205  0.78183  0.01318  1.0000
  H   H226      1.0  0.24736  0.76327  0.05524  1.0000
  C   C138      1.0  0.24655  0.75812  0.02751  1.0000
  H   H227      1.0  0.18306  0.75426  0.17254  1.0000
  H   H228      1.0  0.19575  0.75182  0.13480  1.0000
  N   N14       1.0  0.30103  0.76157  0.45047  1.0000
  H   H229      1.0  0.31938  0.79076  0.44525  1.0000
  C   C139      1.0  0.24140  0.75875  0.47225  1.0000
  S   S55       1.0  0.30852  0.83343  0.56977  1.0000
  Fe  Fe29      1.0  0.29928  0.80689  0.53416  1.0000
  S   S56       1.0  0.27080  0.78957  0.50461  1.0000
  H   H230      1.0  0.27146  0.75247  0.44781  1.0000
  Fe  Fe30      1.0  0.32775  0.82329  0.59823  1.0000
  S   S57       1.0  0.31706  0.79612  0.56440  1.0000
  H   H231      1.0  0.24060  0.76867  0.45355  1.0000
  C   C140      1.0  0.25512  0.76521  0.50065  1.0000
  H   H232      1.0  0.29322  0.76837  0.50207  1.0000
  C   C141      1.0  0.30500  0.78023  0.43686  1.0000
  S   S58       1.0  0.32147  0.82175  0.49496  1.0000
  H   H233      1.0  0.31693  0.77214  0.50066  1.0000
  H   H234      1.0  0.26632  0.75688  0.54669  1.0000
  H   H235      1.0  0.31406  0.75450  0.40620  1.0000
  H   H236      1.0  0.30375  0.77992  0.40674  1.0000
  C   C142      1.0  0.30249  0.76270  0.49055  1.0000
  H   H237      1.0  0.29519  0.78548  0.44767  1.0000
  H   H238      1.0  0.32920  0.76550  0.44527  1.0000
  C   C143      1.0  0.31469  0.75544  0.43638  1.0000
  C   C144      1.0  0.25602  0.75217  0.52447  1.0000
  H   H239      1.0  0.23999  0.79295  0.87793  1.0000
  H   H240      1.0  0.23350  0.78424  0.81187  1.0000
  Fe  Fe31      1.0  0.30384  0.80308  0.93496  1.0000
  S   S59       1.0  0.32206  0.80383  0.88842  1.0000
  S   S60       1.0  0.27731  0.77486  0.93607  1.0000
  H   H241      1.0  0.30909  0.83578  0.68334  1.0000
  H   H242      1.0  0.27447  0.77730  0.84455  1.0000
  H   H243      1.0  0.26301  0.79981  0.89713  1.0000
  S   S61       1.0  0.30211  0.82945  0.91880  1.0000
  H   H244      1.0  0.28818  0.80139  0.85784  1.0000
  H   H245      1.0  0.25198  0.78526  0.78385  1.0000
  Fe  Fe32      1.0  0.32115  0.83061  0.87358  1.0000
  C   C145      1.0  0.26521  0.81464  0.83151  1.0000
  H   H246      1.0  0.25282  0.81751  0.83208  1.0000
  C   C146      1.0  0.24648  0.78237  0.81165  1.0000
  S   S62       1.0  0.32872  0.81896  0.97343  1.0000
  H   H247      1.0  0.28362  0.79486  0.81076  1.0000
  H   H248      1.0  0.27140  0.81837  0.80441  1.0000
  H   H249      1.0  0.24905  0.77596  0.88253  1.0000
  C   C147      1.0  0.31857  0.83147  0.77310  1.0000
  C   C148      1.0  0.31056  0.83558  0.74216  1.0000
  C   C149      1.0  0.25993  0.76232  0.96770  1.0000
  N   N15       1.0  0.26042  0.79490  0.83919  1.0000
  C   C150      1.0  0.27734  0.79187  0.83790  1.0000
  C   C151      1.0  0.25270  0.79072  0.87569  1.0000
  S   S63       1.0  0.31216  0.83590  0.81709  1.0000
  H   H250      1.0  0.30079  0.84146  0.74554  1.0000
  C   C152      1.0  0.31525  0.83239  0.70677  1.0000
  H   H251      1.0  0.27579  0.82448  0.85175  1.0000
  C   C153      1.0  0.32810  0.82506  0.70185  1.0000
  H   H252      1.0  0.24268  0.76739  0.81659  1.0000
  Fe  Fe33      1.0  0.32833  0.84552  0.95355  1.0000
  H   H253      1.0  0.56570  0.16242  0.99526  1.0000
  H   H254      1.0  0.47756  0.02842  0.05030  1.0000
  H   H255      1.0  0.44442  0.09498  0.09900  1.0000
  H   H256      1.0  0.64187  0.10305  0.09157  1.0000
  H   H257      1.0  0.55092  0.14411  0.04802  1.0000
  C   C154      1.0  0.45549  0.00994  0.17512  1.0000
  Fe  Fe34      1.0  0.42958  0.02308  0.03190  1.0000
  C   C155      1.0  0.55427  0.13277  0.03728  1.0000
  S   S64       1.0  0.44230  0.02533  0.08767  1.0000
  Fe  Fe35      1.0  0.63858  0.19221  0.06978  1.0000
  S   S65       1.0  0.61810  0.20470  0.06683  1.0000
  H   H258      1.0  0.49899  0.04393  0.00130  1.0000
  C   C156      1.0  0.48437  0.00505  0.05150  1.0000
  S   S66       1.0  0.63262  0.16751  0.10421  1.0000
  C   C157      1.0  0.60482  0.20221  0.02638  1.0000
  C   C158      1.0  0.58808  0.20383  0.02802  1.0000
  C   C159      1.0  0.46771  0.07779  0.01791  1.0000
  C   C160      1.0  0.49753  0.03058  0.01042  1.0000
  H   H259      1.0  0.40605  0.05299  0.13739  1.0000
  C   C161      1.0  0.64664  0.17320  0.22572  1.0000
  C   C162      1.0  0.63939  0.17034  0.26078  1.0000
  H   H260      1.0  0.63738  0.17003  0.20203  1.0000
  H   H261      1.0  0.62452  0.16494  0.26371  1.0000
  H   H262      1.0  0.61498  0.11349  0.16200  1.0000
  H   H263      1.0  0.41400  0.01589  0.29055  1.0000
  C   C163      1.0  0.41073  0.05323  0.06568  1.0000
  C   C164      1.0  0.65192  0.13604  0.15985  1.0000
  C   C165      1.0  0.43785  0.08229  0.08056  1.0000
  N   N16       1.0  0.64135  0.11742  0.14149  1.0000
  S   S67       1.0  0.40744  0.01681  0.15762  1.0000
  H   H264      1.0  0.65135  0.14733  0.14346  1.0000
  H   H265      1.0  0.41955  0.04567  0.06454  1.0000
  C   C166      1.0  0.57533  0.12503  0.00258  1.0000
  H   H266      1.0  0.43760  0.08708  0.05247  1.0000
  C   C167      1.0  0.62827  0.08358  0.00046  1.0000
  S   S68       1.0  0.64527  0.17952  0.02101  1.0000
  C   C168      1.0  0.61533  0.10431  0.02294  1.0000
  H   H267      1.0  0.58531  0.09129  0.02414  1.0000
  H   H268      1.0  0.49252  0.10223  0.03688  1.0000
  H   H269      1.0  0.41287  0.09184  0.11117  1.0000
  H   H270      1.0  0.39661  0.04298  0.07344  1.0000
  C   C169      1.0  0.42006  0.06291  0.12834  1.0000
  H   H271      1.0  0.55570  0.12492  0.06078  1.0000
  C   C170      1.0  0.41109  0.01616  0.23200  1.0000
  H   H272      1.0  0.46920  0.06880  0.03797  1.0000
  H   H273      1.0  0.42881  0.05521  0.12905  1.0000
  H   H274      1.0  0.42615  0.07474  0.14883  1.0000
  S   S69       1.0  0.61732  0.12606  0.04162  1.0000
  H   H275      1.0  0.39273  0.07013  0.09986  1.0000
  H   H276      1.0  0.58469  0.16506  0.05205  1.0000
  H   H277      1.0  0.44716  0.07522  0.08077  1.0000
  N   N17       1.0  0.41894  0.06950  0.09163  1.0000
  H   H278      1.0  0.40603  0.08460  0.06442  1.0000
  C   C171      1.0  0.64241  0.10287  0.16429  1.0000
  C   C172      1.0  0.65118  0.17450  0.29214  1.0000
  C   C173      1.0  0.48561  0.02192  0.03846  1.0000
  H   H279      1.0  0.63448  0.08862  0.15130  1.0000
  H   H280      1.0  0.58354  0.20660  0.05393  1.0000
  C   C174      1.0  0.40712  0.07948  0.09180  1.0000
  H   H281      1.0  0.41529  0.03109  0.23183  1.0000
  C   C175      1.0  0.64938  0.11700  0.10601  1.0000
  C   C176      1.0  0.58727  0.15342  0.04027  1.0000
  H   H282      1.0  0.62048  0.12485  0.11959  1.0000
  H   H283      1.0  0.56413  0.20287  0.99799  1.0000
  C   C177      1.0  0.59742  0.08937  0.01733  1.0000
  C   C178      1.0  0.48097  0.09677  0.01713  1.0000
  H   H284      1.0  0.40956  0.05754  0.03759  1.0000
  H   H285      1.0  0.44132  0.00929  0.17590  1.0000
  H   H286      1.0  0.65710  0.10522  0.16894  1.0000
  C   C179      1.0  0.63079  0.10134  0.01427  1.0000
  C   C180      1.0  0.50642  0.00516  0.00750  1.0000
  Fe  Fe36      1.0  0.64090  0.15528  0.05601  1.0000
  C   C181      1.0  0.62167  0.11377  0.13579  1.0000
  H   H287      1.0  0.46545  0.02357  0.18818  1.0000
  H   H288      1.0  0.64632  0.13700  0.18677  1.0000
  H   H289      1.0  0.65134  0.23696  0.04091  1.0000
  H   H290      1.0  0.61340  0.10017  0.12061  1.0000
  C   C182      1.0  0.40641  0.00556  0.19902  1.0000
  H   H291      1.0  0.63658  0.10290  0.19139  1.0000
  H   H292      1.0  0.54201  0.12300  0.02004  1.0000
  C   C183      1.0  0.41034  0.00759  0.26535  1.0000
  H   H293      1.0  0.64466  0.11267  0.01809  1.0000
  H   H294      1.0  0.59002  0.14601  0.06318  1.0000
  H   H295      1.0  0.45896  0.01008  0.14608  1.0000
  Fe  Fe37      1.0  0.41351  0.00593  0.10442  1.0000
  H   H296      1.0  0.60036  0.15987  0.02518  1.0000
  C   C184      1.0  0.65804  0.23622  0.01518  1.0000
  S   S70       1.0  0.40028  0.00532  0.04915  1.0000
  H   H297      1.0  0.58100  0.06049  0.99871  1.0000
  H   H298      1.0  0.64839  0.12750  0.08782  1.0000
  C   C185      1.0  0.59490  0.07178  0.00295  1.0000
  H   H299      1.0  0.49292  0.24861  0.08464  1.0000
  N   N18       1.0  0.57142  0.14049  0.01644  1.0000
  H   H300      1.0  0.48602  0.00831  0.20280  1.0000
  C   C186      1.0  0.57706  0.20170  0.99637  1.0000
  H   H301      1.0  0.46265  0.00764  0.24640  1.0000
  H   H302      1.0  0.57717  0.11691  0.02519  1.0000
  Fe  Fe38      1.0  0.66292  0.18177  0.12108  1.0000
  H   H303      1.0  0.65854  0.22243  0.01398  1.0000
  Fe  Fe39      1.0  0.42132  0.02128  0.42213  1.0000
  S   S71       1.0  0.43755  0.01736  0.37648  1.0000
  S   S72       1.0  0.42355  0.05077  0.43103  1.0000
  C   C187      1.0  0.40880  0.00811  0.54746  1.0000
  C   C188      1.0  0.48204  0.23984  0.48331  1.0000
  C   C189      1.0  0.55334  0.21479  0.46805  1.0000
  H   H304      1.0  0.58404  0.12085  0.49228  1.0000
  H   H305      1.0  0.53999  0.22208  0.38408  1.0000
  Fe  Fe40      1.0  0.57452  0.02752  0.54987  1.0000
  S   S73       1.0  0.56068  0.03492  0.59575  1.0000
  S   S74       1.0  0.58843  0.04820  0.50515  1.0000
  H   H306      1.0  0.51589  0.22994  0.63153  1.0000
  H   H307      1.0  0.48069  0.19483  0.64652  1.0000
  Fe  Fe41      1.0  0.48293  0.14646  0.55270  1.0000
  S   S75       1.0  0.51131  0.15410  0.57849  1.0000
  S   S76       1.0  0.46329  0.11508  0.55486  1.0000
  Fe  Fe42      1.0  0.49408  0.18819  0.53432  1.0000
  S   S77       1.0  0.52320  0.19763  0.55698  1.0000
  S   S78       1.0  0.48332  0.20835  0.51086  1.0000
  Fe  Fe43      1.0  0.52196  0.17144  0.52970  1.0000
  S   S79       1.0  0.54065  0.16638  0.49021  1.0000
  Fe  Fe44      1.0  0.50944  0.17927  0.60398  1.0000
  S   S80       1.0  0.49366  0.16315  0.50320  1.0000
  S   S81       1.0  0.48025  0.17054  0.58188  1.0000
  H   H308      1.0  0.46745  0.23066  0.47750  1.0000
  S   S82       1.0  0.63104  0.16446  0.43595  1.0000
  H   H309      1.0  0.52200  0.18344  0.44815  1.0000
  Fe  Fe45      1.0  0.64418  0.19299  0.46351  1.0000
  S   S83       1.0  0.62885  0.20621  0.49535  1.0000
  C   C190      1.0  0.56513  0.17774  0.49243  1.0000
  C   C191      1.0  0.57512  0.19127  0.51967  1.0000
  C   C192      1.0  0.59470  0.20012  0.52003  1.0000
  C   C193      1.0  0.60433  0.19536  0.49346  1.0000
  C   C194      1.0  0.59430  0.18181  0.46632  1.0000
  C   C195      1.0  0.57475  0.17311  0.46572  1.0000
  H   H310      1.0  0.56780  0.19491  0.54038  1.0000
  H   H311      1.0  0.60246  0.21061  0.54109  1.0000
  H   H312      1.0  0.60160  0.17826  0.44545  1.0000
  H   H313      1.0  0.56707  0.16275  0.44442  1.0000
  H   H314      1.0  0.60886  0.13218  0.48897  1.0000
  C   C196      1.0  0.39157  0.02649  0.55195  1.0000
  H   H315      1.0  0.51840  0.21053  0.47395  1.0000
  C   C197      1.0  0.60422  0.07257  0.50681  1.0000
  C   C198      1.0  0.61499  0.08179  0.53805  1.0000
  C   C199      1.0  0.62816  0.10080  0.53729  1.0000
  C   C200      1.0  0.63046  0.11104  0.50563  1.0000
  C   C201      1.0  0.61940  0.10196  0.47463  1.0000
  C   C202      1.0  0.60654  0.08283  0.47516  1.0000
  H   H316      1.0  0.61351  0.07411  0.56252  1.0000
  H   H317      1.0  0.63664  0.10760  0.56146  1.0000
  H   H318      1.0  0.62104  0.10952  0.44996  1.0000
  H   H319      1.0  0.59841  0.07584  0.45073  1.0000
  C   C203      1.0  0.43621  0.06850  0.46497  1.0000
  C   C204      1.0  0.43938  0.06418  0.50023  1.0000
  C   C205      1.0  0.44785  0.07862  0.52727  1.0000
  C   C206      1.0  0.45388  0.09759  0.51914  1.0000
  C   C207      1.0  0.45139  0.10193  0.48350  1.0000
  C   C208      1.0  0.44234  0.08745  0.45678  1.0000
  H   H320      1.0  0.43479  0.04973  0.50695  1.0000
  H   H321      1.0  0.44966  0.07511  0.55478  1.0000
  H   H322      1.0  0.45573  0.11640  0.47687  1.0000
  H   H323      1.0  0.43982  0.09096  0.42968  1.0000
  S   S84       1.0  0.58496  0.01070  0.58457  1.0000
  H   H324      1.0  0.53256  0.23362  0.45855  1.0000
  H   H325      1.0  0.52535  0.01872  0.51166  1.0000
  N   N19       1.0  0.48653  0.22244  0.62897  1.0000
  N   N20       1.0  0.53981  0.21224  0.43789  1.0000
  C   C209      1.0  0.51052  0.01317  0.50609  1.0000
  C   C210      1.0  0.49814  0.00601  0.53404  1.0000
  N   N21       1.0  0.49000  0.06717  0.45748  1.0000
  C   C211      1.0  0.50235  0.07957  0.43044  1.0000
  C   C212      1.0  0.48730  0.07868  0.48677  1.0000
  C   C213      1.0  0.49851  0.05565  0.47295  1.0000
  C   C214      1.0  0.47180  0.05474  0.43960  1.0000
  H   H326      1.0  0.50446  0.07127  0.40775  1.0000
  H   H327      1.0  0.51630  0.08902  0.44287  1.0000
  H   H328      1.0  0.49635  0.08855  0.41847  1.0000
  H   H329      1.0  0.47834  0.06976  0.50802  1.0000
  H   H330      1.0  0.50077  0.08855  0.50038  1.0000
  H   H331      1.0  0.48045  0.08720  0.47614  1.0000
  H   H332      1.0  0.50125  0.04725  0.45131  1.0000
  H   H333      1.0  0.48921  0.04552  0.49235  1.0000
  H   H334      1.0  0.51201  0.06442  0.48770  1.0000
  H   H335      1.0  0.46188  0.04571  0.45943  1.0000
  H   H336      1.0  0.47323  0.04529  0.41837  1.0000
  H   H337      1.0  0.46519  0.06288  0.42635  1.0000
  N   N22       1.0  0.59876  0.14132  0.53526  1.0000
  C   C215      1.0  0.58273  0.14498  0.54430  1.0000
  C   C216      1.0  0.61618  0.15885  0.54038  1.0000
  C   C217      1.0  0.59955  0.12705  0.55926  1.0000
  H   H338      1.0  0.56931  0.13213  0.54012  1.0000
  H   H339      1.0  0.58197  0.15591  0.52705  1.0000
  H   H340      1.0  0.58378  0.15010  0.57301  1.0000
  H   H341      1.0  0.62860  0.15652  0.53464  1.0000
  H   H342      1.0  0.61635  0.16968  0.52175  1.0000
  H   H343      1.0  0.61802  0.16489  0.56855  1.0000
  H   H344      1.0  0.61182  0.12443  0.55373  1.0000
  H   H345      1.0  0.58694  0.11338  0.55526  1.0000
  H   H346      1.0  0.60075  0.13159  0.58837  1.0000
  C   C218      1.0  0.50386  0.22498  0.61155  1.0000
  C   C219      1.0  0.47100  0.21554  0.60139  1.0000
  C   C220      1.0  0.59665  0.13443  0.49702  1.0000
  C   C221      1.0  0.54978  0.22350  0.40722  1.0000
  H   H347      1.0  0.56027  0.21903  0.39711  1.0000
  H   H348      1.0  0.50738  0.23518  0.58951  1.0000
  Fe  Fe46      1.0  0.56924  0.01653  0.62947  1.0000
  C   C222      1.0  0.53025  0.19222  0.42605  1.0000
  C   C223      1.0  0.48242  0.20867  0.65772  1.0000
  C   C224      1.0  0.49340  0.23260  0.50003  1.0000
  Fe  Fe47      1.0  0.65226  0.15859  0.46696  1.0000
  H   H349      1.0  0.39281  0.02702  0.58213  1.0000
  H   H350      1.0  0.46886  0.20188  0.58852  1.0000
  C   C225      1.0  0.52591  0.21845  0.45025  1.0000
  H   H351      1.0  0.40349  0.03919  0.54228  1.0000
  Fe  Fe48      1.0  0.53578  0.00815  0.57906  1.0000
  H   H352      1.0  0.51340  0.01917  0.44932  1.0000
  C   C226      1.0  0.50376  0.01354  0.47087  1.0000
  H   H353      1.0  0.59549  0.14465  0.47823  1.0000
  Fe  Fe49      1.0  0.65309  0.17745  0.39420  1.0000
  S   S85       1.0  0.64715  0.13512  0.50667  1.0000
  H   H354      1.0  0.52115  0.23961  0.52077  1.0000
  H   H355      1.0  0.56054  0.22965  0.47832  1.0000
  H   H356      1.0  0.42127  0.02024  0.53797  1.0000
  H   H357      1.0  0.37859  0.02764  0.54412  1.0000
  H   H358      1.0  0.52045  0.18982  0.40242  1.0000
  Fe  Fe50      1.0  0.44620  0.00176  0.41657  1.0000
  H   H359      1.0  0.60649  0.00994  0.65818  1.0000
  H   H360      1.0  0.50244  0.21154  0.59920  1.0000
  H   H361      1.0  0.51515  0.21630  0.42857  1.0000
  S   S86       1.0  0.43161  0.00738  0.46289  1.0000
  H   H362      1.0  0.41034  0.00794  0.57750  1.0000
  H   H363      1.0  0.54639  0.20608  0.49127  1.0000
  C   C227      1.0  0.48890  0.24059  0.64512  1.0000
  H   H364      1.0  0.56423  0.21051  0.45951  1.0000
  H   H365      1.0  0.40191  0.02131  0.48526  1.0000
  H   H366      1.0  0.55731  0.23867  0.41537  1.0000
  H   H367      1.0  0.47378  0.22548  0.57900  1.0000
  H   H368      1.0  0.54039  0.18675  0.41838  1.0000
  C   C228      1.0  0.51221  0.24476  0.50747  1.0000
  C   C229      1.0  0.48461  0.00697  0.46365  1.0000
  S   S87       1.0  0.54864  0.00146  0.53096  1.0000
  N   N23       1.0  0.39139  0.00911  0.53627  1.0000
  S   S88       1.0  0.64104  0.17007  0.33557  1.0000
  S   S89       1.0  0.47656  0.00851  0.41990  1.0000
  H   H369      1.0  0.37700  0.01002  0.48677  1.0000
  H   H370      1.0  0.47607  0.23921  0.65853  1.0000
  S   S90       1.0  0.50623  0.00430  0.57762  1.0000
  C   C230      1.0  0.38991  0.00917  0.49628  1.0000
  H   H371      1.0  0.45765  0.21348  0.61339  1.0000
  S   S91       1.0  0.51862  0.19369  0.66054  1.0000
  C   C231      1.0  0.61062  0.19872  0.99274  1.0000
  Fe  Fe51      1.0  0.57902  0.02370  0.95777  1.0000
  S   S92       1.0  0.56417  0.03008  0.91137  1.0000
  H   H372      1.0  0.47780  0.24127  0.98619  1.0000
  H   H373      1.0  0.46725  0.04327  0.87236  1.0000
  S   S93       1.0  0.58241  0.02611  0.68646  1.0000
  H   H374      1.0  0.46943  0.20633  0.67157  1.0000
  Fe  Fe52      1.0  0.50260  0.15709  0.95388  1.0000
  S   S94       1.0  0.51991  0.15928  0.90576  1.0000
  C   C232      1.0  0.47001  0.03169  0.88287  1.0000
  Fe  Fe53      1.0  0.50652  0.19754  0.94386  1.0000
  S   S95       1.0  0.52426  0.20210  0.89487  1.0000
  H   H375      1.0  0.55699  0.14144  0.96706  1.0000
  Fe  Fe54      1.0  0.50416  0.17269  0.87647  1.0000
  S   S96       1.0  0.49403  0.16120  0.81802  1.0000
  Fe  Fe55      1.0  0.53878  0.18828  0.92723  1.0000
  S   S97       1.0  0.56936  0.19534  0.92251  1.0000
  S   S98       1.0  0.48520  0.16854  0.92351  1.0000
  H   H376      1.0  0.46886  0.04116  0.97283  1.0000
  H   H377      1.0  0.58063  0.17722  0.79662  1.0000
  C   C233      1.0  0.47950  0.10874  0.99099  1.0000
  C   C234      1.0  0.58292  0.19832  0.96272  1.0000
  H   H378      1.0  0.59267  0.03825  0.76116  1.0000
  C   C235      1.0  0.57204  0.01584  0.72740  1.0000
  H   H379      1.0  0.53271  0.18314  0.82958  1.0000
  H   H380      1.0  0.58190  0.19194  0.83545  1.0000
  H   H381      1.0  0.55479  0.19624  0.85259  1.0000
  C   C236      1.0  0.51107  0.18446  0.70393  1.0000
  C   C237      1.0  0.49885  0.16561  0.70824  1.0000
  C   C238      1.0  0.49356  0.15889  0.74326  1.0000
  C   C239      1.0  0.50033  0.17086  0.77446  1.0000
  C   C240      1.0  0.51230  0.18980  0.77007  1.0000
  C   C241      1.0  0.51770  0.19650  0.73508  1.0000
  H   H382      1.0  0.56385  0.11505  0.98408  1.0000
  H   H383      1.0  0.48423  0.14423  0.74621  1.0000
  H   H384      1.0  0.51731  0.19932  0.79361  1.0000
  H   H385      1.0  0.52705  0.21114  0.73212  1.0000
  C   C242      1.0  0.56882  0.15076  0.98566  1.0000
  H   H386      1.0  0.55528  0.16557  0.86210  1.0000
  H   H387      1.0  0.58050  0.02339  0.81941  1.0000
  S   S99       1.0  0.60759  0.04640  0.97759  1.0000
  H   H388      1.0  0.53395  0.15313  0.83554  1.0000
  H   H389      1.0  0.43958  0.07709  0.94685  1.0000
  H   H390      1.0  0.43779  0.01766  0.94788  1.0000
  H   H391      1.0  0.48530  0.03617  0.88199  1.0000
  C   C243      1.0  0.58058  0.02477  0.76082  1.0000
  Fe  Fe56      1.0  0.53972  0.01817  0.94714  1.0000
  C   C244      1.0  0.57370  0.01637  0.79393  1.0000
  C   C245      1.0  0.54794  0.19025  0.82562  1.0000
  H   H392      1.0  0.55092  0.16069  0.76067  1.0000
  H   H393      1.0  0.47025  0.05586  0.93595  1.0000
  H   H394      1.0  0.57942  0.19905  0.79054  1.0000
  S   S100      1.0  0.52083  0.03186  0.95657  1.0000
  H   H395      1.0  0.46317  0.11038  0.94525  1.0000
  H   H396      1.0  0.55074  0.20216  0.80768  1.0000
  C   C246      1.0  0.54938  0.16092  0.83390  1.0000
  C   C247      1.0  0.50475  0.24245  0.97656  1.0000
  H   H397      1.0  0.43969  0.03287  0.91182  1.0000
  H   H398      1.0  0.46369  0.00881  0.96171  1.0000
  H   H399      1.0  0.55448  0.15081  0.82361  1.0000
  H   H400      1.0  0.53339  0.24861  0.96894  1.0000
  C   C248      1.0  0.57506  0.18674  0.80803  1.0000
  H   H401      1.0  0.49357  0.15614  0.68464  1.0000
  S   S101      1.0  0.49527  0.21775  0.96670  1.0000
  H   H402      1.0  0.54877  0.18211  0.75527  1.0000
  C   C249      1.0  0.59982  0.19702  0.96098  1.0000
  H   H403      1.0  0.53043  0.16241  0.77473  1.0000
  C   C250      1.0  0.54586  0.17029  0.77359  1.0000
  C   C251      1.0  0.45117  0.08248  0.96653  1.0000
  H   H404      1.0  0.60446  0.19446  0.93502  1.0000
  N   N24       1.0  0.46346  0.02725  0.92012  1.0000
  H   H405      1.0  0.46297  0.01929  0.86383  1.0000
  S   S102      1.0  0.49649  0.13268  0.99211  1.0000
  H   H406      1.0  0.49398  0.21334  0.67875  1.0000
  C   C252      1.0  0.49262  0.25027  0.98604  1.0000
  C   C253      1.0  0.47326  0.04408  0.94434  1.0000
  H   H407      1.0  0.58845  0.13039  0.98745  1.0000
  S   S103      1.0  0.52263  0.18574  0.97736  1.0000
  N   N25       1.0  0.55458  0.17704  0.81023  1.0000
  C   C254      1.0  0.46454  0.10141  0.96552  1.0000
  H   H408      1.0  0.48257  0.01553  0.93168  1.0000
  H   H409      1.0  0.58153  0.15694  0.96944  1.0000
  H   H410      1.0  0.48864  0.04906  0.94433  1.0000
  C   C255      1.0  0.46748  0.01188  0.93298  1.0000
  C   C256      1.0  0.44318  0.02140  0.92026  1.0000
  H   H411      1.0  0.43529  0.00892  0.90185  1.0000
  H   H412      1.0  0.50056  0.24619  0.66596  1.0000
  H   H413      1.0  0.64029  0.08137  0.99395  1.0000
  H   H414      1.0  0.62354  0.19758  0.99104  1.0000
  C   C257      1.0  0.45257  0.07059  0.99284  1.0000
  C   C258      1.0  0.50761  0.02199  0.99433  1.0000
  H   H415      1.0  0.64868  0.23615  0.99230  1.0000
  H   H416      1.0  0.62351  0.00120  0.66454  1.0000
  S   S104      1.0  0.43502  0.04696  0.99308  1.0000
  S   S105      1.0  0.55478  0.01309  0.99437  1.0000
  C   C259      1.0  0.61031  0.06870  0.99454  1.0000
  H   H417      1.0  0.49319  0.29441  0.10497  1.0000
  H   H418      1.0  0.40101  0.42546  0.00925  1.0000
  Fe  Fe57      1.0  0.50872  0.33783  0.10836  1.0000
  S   S106      1.0  0.49099  0.32317  0.05762  1.0000
  S   S107      1.0  0.50671  0.32382  0.16297  1.0000
  Fe  Fe58      1.0  0.53904  0.36734  0.06323  1.0000
  S   S108      1.0  0.56784  0.39179  0.07037  1.0000
  Fe  Fe59      1.0  0.49837  0.35271  0.03895  1.0000
  H   H419      1.0  0.58286  0.39500  0.30810  1.0000
  Fe  Fe60      1.0  0.51773  0.32612  0.03328  1.0000
  H   H420      1.0  0.35961  0.37919  0.00541  1.0000
  S   S109      1.0  0.51428  0.36694  0.09133  1.0000
  S   S110      1.0  0.53488  0.33970  0.08402  1.0000
  H   H421      1.0  0.54681  0.37561  0.26039  1.0000
  H   H422      1.0  0.40318  0.41510  0.05048  1.0000
  H   H423      1.0  0.45708  0.43957  0.04002  1.0000
  C   C260      1.0  0.36686  0.40111  0.06634  1.0000
  N   N26       1.0  0.37500  0.40675  0.03056  1.0000
  H   H424      1.0  0.47739  0.45287  0.06900  1.0000
  H   H425      1.0  0.52601  0.30431  0.12805  1.0000
  C   C261      1.0  0.58028  0.40446  0.03342  1.0000
  C   C262      1.0  0.59857  0.41855  0.03958  1.0000
  C   C263      1.0  0.49447  0.28284  0.08956  1.0000
  H   H426      1.0  0.60444  0.42213  0.06703  1.0000
  H   H427      1.0  0.45288  0.36275  0.04672  1.0000
  C   C264      1.0  0.59897  0.37200  0.01111  1.0000
  H   H428      1.0  0.56860  0.32669  0.02461  1.0000
  H   H429      1.0  0.36733  0.41335  0.08250  1.0000
  H   H430      1.0  0.57656  0.36238  0.32165  1.0000
  C   C265      1.0  0.45287  0.37042  0.02292  1.0000
  C   C266      1.0  0.50295  0.32942  0.20821  1.0000
  C   C267      1.0  0.49445  0.34109  0.21600  1.0000
  C   C268      1.0  0.49020  0.34364  0.25208  1.0000
  C   C269      1.0  0.49478  0.33497  0.28093  1.0000
  C   C270      1.0  0.50391  0.32385  0.27331  1.0000
  C   C271      1.0  0.50776  0.32094  0.23715  1.0000
  H   H431      1.0  0.49052  0.34759  0.19409  1.0000
  H   H432      1.0  0.48304  0.35218  0.25753  1.0000
  H   H433      1.0  0.50731  0.31686  0.29506  1.0000
  H   H434      1.0  0.51420  0.31177  0.23150  1.0000
  H   H435      1.0  0.62376  0.43813  0.01530  1.0000
  C   C272      1.0  0.36440  0.41497  0.01021  1.0000
  H   H436      1.0  0.39587  0.43362  0.05106  1.0000
  C   C273      1.0  0.37419  0.39017  0.00999  1.0000
  S   S111      1.0  0.52819  0.30593  0.00756  1.0000
  S   S112      1.0  0.48770  0.33739  0.32543  1.0000
  C   C274      1.0  0.49963  0.27085  0.14592  1.0000
  H   H437      1.0  0.48019  0.27131  0.08468  1.0000
  C   C275      1.0  0.55258  0.36711  0.27499  1.0000
  H   H438      1.0  0.38484  0.48069  0.04712  1.0000
  H   H439      1.0  0.35203  0.39050  0.06344  1.0000
  H   H440      1.0  0.46571  0.41353  0.03690  1.0000
  S   S113      1.0  0.52378  0.35425  0.01076  1.0000
  H   H441      1.0  0.37457  0.39491  0.08245  1.0000
  H   H442      1.0  0.35976  0.49112  0.04554  1.0000
  H   H443      1.0  0.46813  0.50010  0.03651  1.0000
  C   C276      1.0  0.39463  0.42082  0.03577  1.0000
  C   C277      1.0  0.50716  0.26030  0.08927  1.0000
  C   C278      1.0  0.37617  0.47817  0.02268  1.0000
  H   H444      1.0  0.50858  0.26602  0.16184  1.0000
  H   H445      1.0  0.50857  0.45850  0.04883  1.0000
  H   H446      1.0  0.48778  0.41686  0.02053  1.0000
  H   H447      1.0  0.47341  0.46262  0.02829  1.0000
  H   H448      1.0  0.48522  0.25926  0.14426  1.0000
  H   H449      1.0  0.53137  0.37739  0.31585  1.0000
  C   C279      1.0  0.57279  0.39997  0.99791  1.0000
  N   N27       1.0  0.50677  0.27645  0.10938  1.0000
  H   H450      1.0  0.53555  0.28763  0.12739  1.0000
  H   H451      1.0  0.53147  0.29670  0.08566  1.0000
  N   N28       1.0  0.48273  0.44135  0.01964  1.0000
  C   C280      1.0  0.56920  0.39222  0.31963  1.0000
  H   H452      1.0  0.34952  0.40479  0.00558  1.0000
  C   C281      1.0  0.36194  0.48412  0.02188  1.0000
  H   H453      1.0  0.49918  0.28281  0.16168  1.0000
  H   H454      1.0  0.36489  0.42763  0.02488  1.0000
  H   H455      1.0  0.50000  0.28823  0.06272  1.0000
  H   H456      1.0  0.57560  0.34664  0.05544  1.0000
  H   H457      1.0  0.56575  0.36921  0.26210  1.0000
  H   H458      1.0  0.59535  0.37830  0.03520  1.0000
  H   H459      1.0  0.48648  0.42638  0.06455  1.0000
  C   C282      1.0  0.52581  0.29194  0.11282  1.0000
  C   C283      1.0  0.60953  0.42763  0.01035  1.0000
  C   C284      1.0  0.47218  0.44943  0.04021  1.0000
  H   H460      1.0  0.51581  0.25470  0.10404  1.0000
  H   H461      1.0  0.38227  0.38378  0.02436  1.0000
  H   H462      1.0  0.59257  0.33916  0.04037  1.0000
  C   C285      1.0  0.50264  0.45490  0.02050  1.0000
  H   H463      1.0  0.42857  0.37397  0.03748  1.0000
  H   H464      1.0  0.57498  0.45936  0.01968  1.0000
  H   H465      1.0  0.51314  0.26428  0.06214  1.0000
  C   C286      1.0  0.48063  0.42380  0.03616  1.0000
  N   N29       1.0  0.55567  0.37230  0.31422  1.0000
  H   H466      1.0  0.61222  0.37126  0.01813  1.0000
  H   H467      1.0  0.54244  0.35213  0.27013  1.0000
  H   H468      1.0  0.56402  0.40159  0.30656  1.0000
  H   H469      1.0  0.48974  0.27535  0.00120  1.0000
  C   C287      1.0  0.43905  0.37678  0.01752  1.0000
  C   C288      1.0  0.58003  0.34089  0.03164  1.0000
  C   C289      1.0  0.47816  0.49959  0.01789  1.0000
  H   H470      1.0  0.60827  0.48047  0.01057  1.0000
  H   H471      1.0  0.56230  0.36125  0.01346  1.0000
  S   S114      1.0  0.48418  0.36593  0.00175  1.0000
  H   H472      1.0  0.52761  0.35434  0.32781  1.0000
  N   N30       1.0  0.58384  0.35330  0.00062  1.0000
  S   S115      1.0  0.39716  0.46144  0.99537  1.0000
  H   H473      1.0  0.50464  0.46825  0.00807  1.0000
  C   C290      1.0  0.46642  0.37369  0.99714  1.0000
  H   H474      1.0  0.51099  0.44922  0.00526  1.0000
  C   C291      1.0  0.51852  0.28150  0.99479  1.0000
  C   C292      1.0  0.49939  0.26964  0.99478  1.0000
  S   S116      1.0  0.47182  0.49037  0.59962  1.0000
  Fe  Fe61      1.0  0.51157  0.31811  0.44554  1.0000
  S   S117      1.0  0.52699  0.33391  0.39708  1.0000
  S   S118      1.0  0.51865  0.29486  0.46754  1.0000
  Fe  Fe62      1.0  0.49467  0.34605  0.45849  1.0000
  S   S119      1.0  0.50924  0.36350  0.41224  1.0000
  S   S120      1.0  0.47396  0.35157  0.49260  1.0000
  Fe  Fe63      1.0  0.50082  0.33622  0.38070  1.0000
  Fe  Fe64      1.0  0.53426  0.36008  0.43180  1.0000
  S   S121      1.0  0.56251  0.38479  0.42539  1.0000
  S   S122      1.0  0.48466  0.31853  0.42641  1.0000
  S   S123      1.0  0.52049  0.34456  0.48102  1.0000
  H   H475      1.0  0.58801  0.49353  0.47248  1.0000
  Fe  Fe65      1.0  0.63676  0.46143  0.55449  1.0000
  S   S124      1.0  0.64928  0.47493  0.50318  1.0000
  S   S125      1.0  0.61084  0.43430  0.56199  1.0000
  H   H476      1.0  0.37567  0.44681  0.61988  1.0000
  Fe  Fe66      1.0  0.40666  0.44186  0.55565  1.0000
  S   S126      1.0  0.41989  0.45292  0.61127  1.0000
  S   S127      1.0  0.37883  0.44290  0.54445  1.0000
  Fe  Fe67      1.0  0.43611  0.42785  0.53660  1.0000
  S   S128      1.0  0.45105  0.43785  0.59070  1.0000
  S   S129      1.0  0.44980  0.41839  0.49171  1.0000
  Fe  Fe68      1.0  0.42290  0.42633  0.61483  1.0000
  H   H477      1.0  0.53976  0.37381  0.35915  1.0000
  Fe  Fe69      1.0  0.44690  0.46354  0.58319  1.0000
  H   H478      1.0  0.33475  0.41970  0.63002  1.0000
  S   S130      1.0  0.40781  0.41400  0.56102  1.0000
  S   S131      1.0  0.43376  0.45479  0.52715  1.0000
  C   C293      1.0  0.42528  0.33627  0.37946  1.0000
  C   C294      1.0  0.45827  0.34938  0.39359  1.0000
  H   H479      1.0  0.45738  0.36083  0.41011  1.0000
  H   H480      1.0  0.43630  0.33583  0.44936  1.0000
  H   H481      1.0  0.48042  0.26403  0.46059  1.0000
  C   C295      1.0  0.46859  0.37108  0.49341  1.0000
  C   C296      1.0  0.47560  0.38526  0.46838  1.0000
  C   C297      1.0  0.46982  0.39969  0.46841  1.0000
  C   C298      1.0  0.45737  0.40043  0.49404  1.0000
  C   C299      1.0  0.45076  0.38654  0.51967  1.0000
  C   C300      1.0  0.45620  0.37187  0.51908  1.0000
  H   H482      1.0  0.48526  0.38497  0.44867  1.0000
  H   H483      1.0  0.47502  0.41034  0.44845  1.0000
  H   H484      1.0  0.44115  0.38685  0.53949  1.0000
  H   H485      1.0  0.45071  0.36103  0.53864  1.0000
  C   C301      1.0  0.59781  0.42039  0.52382  1.0000
  C   C302      1.0  0.58007  0.40572  0.52862  1.0000
  C   C303      1.0  0.56916  0.39461  0.49873  1.0000
  C   C304      1.0  0.57597  0.39804  0.46379  1.0000
  C   C305      1.0  0.59376  0.41267  0.45899  1.0000
  C   C306      1.0  0.60463  0.42385  0.48886  1.0000
  H   H486      1.0  0.57472  0.40290  0.55558  1.0000
  H   H487      1.0  0.55550  0.38337  0.50278  1.0000
  H   H488      1.0  0.59919  0.41536  0.43208  1.0000
  H   H489      1.0  0.61834  0.43500  0.48486  1.0000
  H   H490      1.0  0.51070  0.48976  0.44543  1.0000
  C   C307      1.0  0.50826  0.27089  0.48038  1.0000
  C   C308      1.0  0.38256  0.48264  0.47214  1.0000
  H   H491      1.0  0.42380  0.34695  0.39753  1.0000
  H   H492      1.0  0.46423  0.48880  0.45599  1.0000
  S   S132      1.0  0.63396  0.48657  0.57604  1.0000
  H   H493      1.0  0.34814  0.42014  0.59142  1.0000
  C   C309      1.0  0.36519  0.48308  0.47420  1.0000
  C   C310      1.0  0.35245  0.47155  0.49870  1.0000
  C   C311      1.0  0.35693  0.45949  0.52017  1.0000
  C   C312      1.0  0.37427  0.45901  0.51792  1.0000
  C   C313      1.0  0.38716  0.47083  0.49403  1.0000
  C   C314      1.0  0.61468  0.46028  0.65766  1.0000
  H   H494      1.0  0.53418  0.27286  0.50304  1.0000
  H   H495      1.0  0.40051  0.47060  0.49180  1.0000
  H   H496      1.0  0.46770  0.44451  0.43680  1.0000
  N   N31       1.0  0.36117  0.41978  0.64289  1.0000
  H   H497      1.0  0.44891  0.49648  0.54536  1.0000
  H   H498      1.0  0.34679  0.45038  0.53838  1.0000
  C   C315      1.0  0.49755  0.49099  0.43997  1.0000
  H   H499      1.0  0.49205  0.25128  0.62409  1.0000
  C   C316      1.0  0.37116  0.44046  0.64662  1.0000
  C   C317      1.0  0.34438  0.41435  0.61889  1.0000
  H   H500      1.0  0.37767  0.41784  0.59946  1.0000
  H   H501      1.0  0.38635  0.41620  0.64391  1.0000
  S   S133      1.0  0.35998  0.49763  0.44435  1.0000
  H   H502      1.0  0.36639  0.39677  0.62371  1.0000
  H   H503      1.0  0.57569  0.43585  0.48110  1.0000
  C   C318      1.0  0.57893  0.44767  0.46264  1.0000
  H   H504      1.0  0.55362  0.45857  0.48675  1.0000
  H   H505      1.0  0.47972  0.45898  0.40035  1.0000
  H   H506      1.0  0.33901  0.47162  0.50050  1.0000
  H   H507      1.0  0.57185  0.39644  0.34909  1.0000
  H   H508      1.0  0.59940  0.48391  0.44327  1.0000
  H   H509      1.0  0.42894  0.30442  0.36740  1.0000
  C   C319      1.0  0.56301  0.36044  0.33253  1.0000
  H   H510      1.0  0.49263  0.45498  0.43706  1.0000
  C   C320      1.0  0.48936  0.25881  0.47363  1.0000
  H   H511      1.0  0.39249  0.49142  0.45321  1.0000
  H   H512      1.0  0.56535  0.36391  0.36227  1.0000
  H   H513      1.0  0.46979  0.34696  0.40588  1.0000
  C   C321      1.0  0.59905  0.47038  0.50804  1.0000
  C   C322      1.0  0.43679  0.32507  0.42997  1.0000
  H   H514      1.0  0.56688  0.44347  0.44299  1.0000
  H   H515      1.0  0.63456  0.44348  0.62798  1.0000
  C   C323      1.0  0.51957  0.26367  0.49745  1.0000
  H   H516      1.0  0.56873  0.47543  0.52067  1.0000
  H   H517      1.0  0.49678  0.49369  0.41065  1.0000
  H   H518      1.0  0.46235  0.35447  0.36582  1.0000
  H   H519      1.0  0.59124  0.44913  0.44715  1.0000
  H   H520      1.0  0.42334  0.31224  0.43083  1.0000
  H   H521      1.0  0.48251  0.48369  0.50588  1.0000
  C   C324      1.0  0.48028  0.45743  0.43019  1.0000
  N   N32       1.0  0.48106  0.47407  0.45040  1.0000
  H   H522      1.0  0.33655  0.39884  0.61508  1.0000
  H   H523      1.0  0.44793  0.32153  0.44076  1.0000
  C   C325      1.0  0.44197  0.31777  0.36844  1.0000
  H   H524      1.0  0.56320  0.45104  0.52409  1.0000
  H   H525      1.0  0.57472  0.47667  0.43718  1.0000
  C   C326      1.0  0.48239  0.47162  0.48980  1.0000
  C   C327      1.0  0.58629  0.48043  0.45782  1.0000
  N   N33       1.0  0.44056  0.33209  0.39285  1.0000
  H   H526      1.0  0.45129  0.46382  0.44989  1.0000
  H   H527      1.0  0.47037  0.45878  0.49851  1.0000
  C   C328      1.0  0.56628  0.46243  0.50462  1.0000
  H   H528      1.0  0.46238  0.47786  0.41213  1.0000
  H   H529      1.0  0.61163  0.47255  0.49281  1.0000
  N   N34       1.0  0.58261  0.46522  0.48323  1.0000
  H   H530      1.0  0.59687  0.45929  0.52774  1.0000
  Fe  Fe70      1.0  0.66252  0.49554  0.60179  1.0000
  H   H531      1.0  0.44491  0.32267  0.34023  1.0000
  H   H532      1.0  0.49528  0.47033  0.49761  1.0000
  H   H533      1.0  0.60244  0.48374  0.52365  1.0000
  C   C329      1.0  0.37343  0.41233  0.62685  1.0000
  H   H534      1.0  0.45358  0.31454  0.37745  1.0000
  H   H535      1.0  0.61149  0.45702  0.62803  1.0000
  C   C330      1.0  0.46398  0.47620  0.44169  1.0000
  H   H536      1.0  0.55313  0.34530  0.32916  1.0000
  H   H537      1.0  0.41169  0.32350  0.37826  1.0000
  C   C331      1.0  0.63742  0.44806  0.65717  1.0000
  C   C332      1.0  0.53784  0.36937  0.32991  1.0000
  H   H538      1.0  0.36218  0.44654  0.65811  1.0000
  H   H539      1.0  0.60211  0.42373  0.63942  1.0000
  H   H540      1.0  0.48594  0.47477  0.65972  1.0000
  H   H541      1.0  0.64865  0.46269  0.65851  1.0000
  H   H542      1.0  0.42786  0.34187  0.35172  1.0000
  H   H543      1.0  0.62588  0.47495  0.66085  1.0000
  H   H544      1.0  0.47433  0.44970  0.66084  1.0000
  C   C333      1.0  0.46295  0.44763  0.72894  1.0000
  S   S134      1.0  0.63626  0.47713  0.89145  1.0000
  Fe  Fe71      1.0  0.64098  0.46034  0.93504  1.0000
  S   S135      1.0  0.61595  0.43186  0.93695  1.0000
  H   H545      1.0  0.48366  0.49411  0.71193  1.0000
  C   C334      1.0  0.58573  0.45878  0.93117  1.0000
  Fe  Fe72      1.0  0.40948  0.44962  0.95181  1.0000
  S   S136      1.0  0.42385  0.46337  0.90169  1.0000
  C   C335      1.0  0.35046  0.48080  0.99066  1.0000
  Fe  Fe73      1.0  0.42200  0.41781  0.94385  1.0000
  S   S137      1.0  0.43668  0.42873  0.89193  1.0000
  H   H546      1.0  0.34813  0.39639  0.67723  1.0000
  Fe  Fe74      1.0  0.44721  0.45704  0.92021  1.0000
  S   S138      1.0  0.47740  0.47734  0.91811  1.0000
  Fe  Fe75      1.0  0.41210  0.43416  0.87614  1.0000
  S   S139      1.0  0.39885  0.43281  0.82013  1.0000
  S   S140      1.0  0.43431  0.44596  0.97272  1.0000
  S   S141      1.0  0.39608  0.42061  0.92562  1.0000
  H   H547      1.0  0.44465  0.45148  0.67067  1.0000
  H   H548      1.0  0.57810  0.33107  0.96077  1.0000
  H   H549      1.0  0.59572  0.46898  0.91273  1.0000
  C   C336      1.0  0.41534  0.41811  0.70971  1.0000
  C   C337      1.0  0.40922  0.43203  0.71308  1.0000
  C   C338      1.0  0.40467  0.43674  0.74726  1.0000
  C   C339      1.0  0.40685  0.42808  0.77860  1.0000
  C   C340      1.0  0.41379  0.41476  0.77547  1.0000
  C   C341      1.0  0.41775  0.40962  0.74107  1.0000
  H   H550      1.0  0.57148  0.45385  0.91871  1.0000
  H   H551      1.0  0.39930  0.44704  0.74952  1.0000
  H   H552      1.0  0.41529  0.40781  0.79932  1.0000
  H   H553      1.0  0.42249  0.39882  0.73874  1.0000
  H   H554      1.0  0.34656  0.41735  0.69215  1.0000
  H   H555      1.0  0.49163  0.48171  0.74266  1.0000
  H   H556      1.0  0.45658  0.47656  0.66968  1.0000
  H   H557      1.0  0.58895  0.44652  0.93179  1.0000
  H   H558      1.0  0.60172  0.38199  0.98881  1.0000
  C   C342      1.0  0.35351  0.47155  0.96028  1.0000
  H   H559      1.0  0.61198  0.45067  0.72771  1.0000
  C   C343      1.0  0.58276  0.48345  0.96571  1.0000
  H   H560      1.0  0.57818  0.40470  0.94117  1.0000
  C   C344      1.0  0.66271  0.49944  0.76933  1.0000
  H   H561      1.0  0.38384  0.44516  0.66468  1.0000
  C   C345      1.0  0.52385  0.25435  0.97612  1.0000
  C   C346      1.0  0.36788  0.46578  0.96095  1.0000
  H   H562      1.0  0.59240  0.42619  0.68148  1.0000
  H   H563      1.0  0.51406  0.49801  0.95078  1.0000
  H   H564      1.0  0.47495  0.44706  0.74380  1.0000
  C   C347      1.0  0.47543  0.43727  0.98160  1.0000
  H   H565      1.0  0.55860  0.38947  0.99287  1.0000
  C   C348      1.0  0.60231  0.42243  0.97475  1.0000
  S   S142      1.0  0.33272  0.48857  0.98752  1.0000
  C   C349      1.0  0.47904  0.48145  0.72862  1.0000
  H   H566      1.0  0.49421  0.46272  0.69076  1.0000
  H   H567      1.0  0.45753  0.48465  0.97562  1.0000
  H   H568      1.0  0.45223  0.39752  0.93692  1.0000
  H   H569      1.0  0.60205  0.45997  0.67012  1.0000
  H   H570      1.0  0.34475  0.46892  0.93595  1.0000
  H   H571      1.0  0.46031  0.42753  0.98001  1.0000
  C   C350      1.0  0.57422  0.45327  0.99183  1.0000
  H   H572      1.0  0.36817  0.41573  0.69765  1.0000
  C   C351      1.0  0.43877  0.38679  0.98670  1.0000
  H   H573      1.0  0.62944  0.44216  0.72715  1.0000
  H   H574      1.0  0.56907  0.36451  0.96711  1.0000
  C   C352      1.0  0.45237  0.39014  0.96107  1.0000
  C   C353      1.0  0.37928  0.46901  0.99225  1.0000
  N   N35       1.0  0.62050  0.44689  0.67441  1.0000
  S   S143      1.0  0.42148  0.39517  0.98180  1.0000
  H   H575      1.0  0.47716  0.45024  0.96803  1.0000
  H   H576      1.0  0.59233  0.35421  0.94562  1.0000
  C   C354      1.0  0.50405  0.49856  0.96940  1.0000
  C   C355      1.0  0.62450  0.45162  0.71369  1.0000
  C   C356      1.0  0.60543  0.42764  0.66890  1.0000
  C   C357      1.0  0.58388  0.40870  0.96868  1.0000
  H   H577      1.0  0.40774  0.43896  0.68933  1.0000
  C   C358      1.0  0.48503  0.48983  0.95964  1.0000
  H   H578      1.0  0.59196  0.49390  0.94664  1.0000
  C   C359      1.0  0.47214  0.49065  0.98362  1.0000
  C   C360      1.0  0.56681  0.35519  0.99036  1.0000
  N   N36       1.0  0.46902  0.46409  0.70591  1.0000
  C   C361      1.0  0.46602  0.38359  0.96624  1.0000
  H   H579      1.0  0.63557  0.46617  0.71864  1.0000
  H   H580      1.0  0.47629  0.38607  0.94592  1.0000
  H   H581      1.0  0.55503  0.34138  0.98232  1.0000
  H   H582      1.0  0.44289  0.46561  0.70776  1.0000
  N   N37       1.0  0.58725  0.46733  0.96791  1.0000
  H   H583      1.0  0.45569  0.43427  0.71240  1.0000
  H   H584      1.0  0.37002  0.45871  0.93734  1.0000
  H   H585      1.0  0.64300  0.43908  0.67048  1.0000
  C   C362      1.0  0.58937  0.34512  0.96943  1.0000
  H   H586      1.0  0.61660  0.48453  0.96552  1.0000
  S   S144      1.0  0.65288  0.48431  0.97667  1.0000
  C   C363      1.0  0.48147  0.46278  0.67815  1.0000
  H   H587      1.0  0.54546  0.28264  0.98495  1.0000
  H   H588      1.0  0.55957  0.44771  0.98111  1.0000
  H   H589      1.0  0.56814  0.47902  0.95582  1.0000
  H   H590      1.0  0.48267  0.43067  0.96535  1.0000
  H   H591      1.0  0.37028  0.41962  0.98321  1.0000
  C   C364      1.0  0.53065  0.27370  0.98524  1.0000
  H   H592      1.0  0.38034  0.39395  0.98293  1.0000
  H   H593      1.0  0.47000  0.48280  0.74988  1.0000
  S   S145      1.0  0.41990  0.41078  0.66690  1.0000
  C   C365      1.0  0.60647  0.47388  0.98288  1.0000
  C   C366      1.0  0.45255  0.46448  0.68774  1.0000
  H   H594      1.0  0.45302  0.44781  0.74944  1.0000
  C   C367      1.0  0.35573  0.41197  0.67906  1.0000
  H   H595      1.0  0.60212  0.34336  0.97622  1.0000
  H   H596      1.0  0.60947  0.41718  0.68087  1.0000
  H   H597      1.0  0.61047  0.46217  0.98446  1.0000
  H   H598      1.0  0.58479  0.49097  0.99258  1.0000
  H   H599      1.0  0.57752  0.44111  0.99444  1.0000
  Fe  Fe76      1.0  0.34159  0.54678  0.05864  1.0000
  C   C368      1.0  0.62723  0.56673  0.17153  1.0000
  S   S146      1.0  0.34195  0.52051  0.07955  1.0000
  Fe  Fe77      1.0  0.55510  0.58113  0.04420  1.0000
  S   S147      1.0  0.53583  0.57131  0.09025  1.0000
  H   H600      1.0  0.59242  0.54569  0.19348  1.0000
  Fe  Fe78      1.0  0.57471  0.55610  0.06408  1.0000
  S   S148      1.0  0.55594  0.54435  0.11092  1.0000
  S   S149      1.0  0.59715  0.54546  0.06390  1.0000
  Fe  Fe79      1.0  0.53304  0.54290  0.07314  1.0000
  S   S150      1.0  0.55225  0.60051  0.00221  1.0000
  Fe  Fe80      1.0  0.56066  0.57379  0.12395  1.0000
  S   S151      1.0  0.56883  0.58826  0.18006  1.0000
  S   S152      1.0  0.55105  0.55229  0.02504  1.0000
  S   S153      1.0  0.58061  0.58599  0.07900  1.0000
  N   N38       1.0  0.61203  0.57241  0.17492  1.0000
  H   H601      1.0  0.39706  0.74443  0.00158  1.0000
  C   C369      1.0  0.37994  0.58702  0.02740  1.0000
  C   C370      1.0  0.55404  0.55841  0.28830  1.0000
  C   C371      1.0  0.56252  0.57800  0.28770  1.0000
  C   C372      1.0  0.56676  0.58693  0.25431  1.0000
  C   C373      1.0  0.56226  0.57641  0.22125  1.0000
  C   C374      1.0  0.55349  0.55683  0.22185  1.0000
  C   C375      1.0  0.54959  0.54791  0.25522  1.0000
  N   N39       1.0  0.51215  0.68376  0.05569  1.0000
  H   H602      1.0  0.57353  0.60208  0.25412  1.0000
  H   H603      1.0  0.54977  0.54854  0.19666  1.0000
  H   H604      1.0  0.54298  0.53276  0.25544  1.0000
  C   C376      1.0  0.60662  0.53784  0.02728  1.0000
  H   H605      1.0  0.51557  0.56925  0.01658  1.0000
  H   H606      1.0  0.62724  0.59487  0.21415  1.0000
  H   H607      1.0  0.58220  0.55944  0.17355  1.0000
  H   H608      1.0  0.64113  0.57908  0.17389  1.0000
  H   H609      1.0  0.52703  0.60199  0.05726  1.0000
  H   H610      1.0  0.35943  0.56993  0.30880  1.0000
  H   H611      1.0  0.51550  0.67071  0.10396  1.0000
  C   C377      1.0  0.59392  0.55558  0.17159  1.0000
  S   S154      1.0  0.50426  0.51914  0.07083  1.0000
  H   H612      1.0  0.51296  0.54622  0.00500  1.0000
  H   H613      1.0  0.63566  0.51700  0.01360  1.0000
  H   H614      1.0  0.60206  0.59006  0.14797  1.0000
  C   C378      1.0  0.51927  0.70268  0.07326  1.0000
  H   H615      1.0  0.62672  0.59792  0.14685  1.0000
  H   H616      1.0  0.56606  0.58624  0.31295  1.0000
  H   H617      1.0  0.49457  0.54906  0.02668  1.0000
  C   C379      1.0  0.61825  0.52916  0.03508  1.0000
  H   H618      1.0  0.38319  0.57543  0.32157  1.0000
  C   C380      1.0  0.51010  0.50763  0.00363  1.0000
  C   C381      1.0  0.53563  0.60977  0.00292  1.0000
  S   S155      1.0  0.36880  0.57339  0.06457  1.0000
  H   H619      1.0  0.62675  0.55693  0.19294  1.0000
  H   H620      1.0  0.53520  0.67896  0.07526  1.0000
  C   C382      1.0  0.61376  0.58205  0.21061  1.0000
  C   C383      1.0  0.39892  0.59967  0.03121  1.0000
  H   H621      1.0  0.51456  0.65810  0.06231  1.0000
  C   C384      1.0  0.51971  0.67244  0.07525  1.0000
  H   H622      1.0  0.36673  0.60360  0.31715  1.0000
  C   C385      1.0  0.37819  0.53583  0.00961  1.0000
  H   H623      1.0  0.50322  0.61405  0.05571  1.0000
  C   C386      1.0  0.61311  0.58521  0.14574  1.0000
  C   C387      1.0  0.40839  0.61044  0.00199  1.0000
  H   H624      1.0  0.36590  0.52206  0.01203  1.0000
  H   H625      1.0  0.51516  0.70199  0.10199  1.0000
  C   C388      1.0  0.51140  0.61525  0.03214  1.0000
  C   C389      1.0  0.50833  0.62355  0.00103  1.0000
  H   H626      1.0  0.40637  0.60109  0.05686  1.0000
  H   H627      1.0  0.53474  0.71018  0.07308  1.0000
  C   C390      1.0  0.52489  0.60834  0.03308  1.0000
  H   H628      1.0  0.62619  0.55948  0.14466  1.0000
  H   H629      1.0  0.61275  0.57274  0.23333  1.0000
  H   H630      1.0  0.48668  0.67332  0.08450  1.0000
  H   H631      1.0  0.61129  0.57819  0.11838  1.0000
  H   H632      1.0  0.48576  0.66000  0.04402  1.0000
  H   H633      1.0  0.60243  0.58651  0.21370  1.0000
  H   H634      1.0  0.62104  0.52707  0.06302  1.0000
  C   C391      1.0  0.49159  0.67448  0.05633  1.0000
  H   H635      1.0  0.59215  0.54787  0.14502  1.0000
  C   C392      1.0  0.49713  0.50804  0.02794  1.0000
  H   H636      1.0  0.50271  0.74457  0.02491  1.0000
  C   C393      1.0  0.51794  0.68544  0.01771  1.0000
  H   H637      1.0  0.37461  0.54664  0.02216  1.0000
  H   H638      1.0  0.53337  0.69237  0.01612  1.0000
  H   H639      1.0  0.38988  0.53566  0.02627  1.0000
  H   H640      1.0  0.51365  0.71141  0.05890  1.0000
  H   H641      1.0  0.48537  0.68237  0.04091  1.0000
  H   H642      1.0  0.42300  0.62008  0.00529  1.0000
  C   C394      1.0  0.48982  0.74353  0.01282  1.0000
  H   H643      1.0  0.52474  0.51388  0.01154  1.0000
  S   S156      1.0  0.49096  0.63179  0.00177  1.0000
  C   C395      1.0  0.50542  0.55506  0.00616  1.0000
  C   C396      1.0  0.62656  0.52340  0.00708  1.0000
  H   H644      1.0  0.33049  0.55306  0.25151  1.0000
  H   H645      1.0  0.51281  0.67142  0.00360  1.0000
  H   H646      1.0  0.51237  0.69379  0.00206  1.0000
  N   N40       1.0  0.41534  0.60741  0.62046  1.0000
  S   S157      1.0  0.35320  0.57763  0.47084  1.0000
  S   S158      1.0  0.35033  0.53564  0.40925  1.0000
  Fe  Fe81      1.0  0.46864  0.66451  0.61039  1.0000
  S   S159      1.0  0.49376  0.68801  0.58736  1.0000
  Fe  Fe82      1.0  0.45704  0.64267  0.53598  1.0000
  S   S160      1.0  0.48098  0.66453  0.50753  1.0000
  S   S161      1.0  0.43973  0.61313  0.51223  1.0000
  Fe  Fe83      1.0  0.49805  0.66486  0.55722  1.0000
  S   S162      1.0  0.52372  0.65919  0.55887  1.0000
  Fe  Fe84      1.0  0.47488  0.68612  0.53881  1.0000
  S   S163      1.0  0.46765  0.70855  0.51288  1.0000
  S   S164      1.0  0.47439  0.64205  0.58394  1.0000
  S   S165      1.0  0.44953  0.66368  0.56363  1.0000
  H   H647      1.0  0.37816  0.57514  0.40394  1.0000
  H   H648      1.0  0.57848  0.58631  0.55018  1.0000
  Fe  Fe85      1.0  0.52217  0.55067  0.44668  1.0000
  S   S166      1.0  0.54367  0.57065  0.48642  1.0000
  S   S167      1.0  0.49172  0.53653  0.45816  1.0000
  Fe  Fe86      1.0  0.54930  0.55881  0.38571  1.0000
  S   S168      1.0  0.57319  0.58017  0.42046  1.0000
  Fe  Fe87      1.0  0.33822  0.54717  0.45128  1.0000
  Fe  Fe88      1.0  0.56283  0.55908  0.46431  1.0000
  S   S169      1.0  0.58061  0.55336  0.50739  1.0000
  Fe  Fe89      1.0  0.55216  0.58997  0.44032  1.0000
  S   S170      1.0  0.55669  0.62023  0.44756  1.0000
  S   S171      1.0  0.54008  0.53711  0.42871  1.0000
  S   S172      1.0  0.52947  0.57054  0.40143  1.0000
  H   H649      1.0  0.43430  0.59629  0.63739  1.0000
  H   H650      1.0  0.42506  0.63709  0.61565  1.0000
  C   C397      1.0  0.46337  0.50487  0.53951  1.0000
  H   H651      1.0  0.34566  0.56767  0.38584  1.0000
  H   H652      1.0  0.51519  0.53439  0.51733  1.0000
  C   C398      1.0  0.59545  0.54215  0.50110  1.0000
  C   C399      1.0  0.60090  0.53915  0.46673  1.0000
  C   C400      1.0  0.61329  0.53095  0.46315  1.0000
  C   C401      1.0  0.62017  0.52532  0.49371  1.0000
  C   C402      1.0  0.61446  0.52801  0.52804  1.0000
  C   C403      1.0  0.60232  0.53652  0.53168  1.0000
  H   H653      1.0  0.59587  0.54348  0.44293  1.0000
  H   H654      1.0  0.61760  0.52896  0.43644  1.0000
  H   H655      1.0  0.60691  0.64385  0.52287  1.0000
  H   H656      1.0  0.59830  0.53883  0.55843  1.0000
  C   C404      1.0  0.52916  0.64604  0.52545  1.0000
  C   C405      1.0  0.53403  0.65280  0.49071  1.0000
  C   C406      1.0  0.54191  0.64439  0.46685  1.0000
  C   C407      1.0  0.54461  0.62880  0.47693  1.0000
  C   C408      1.0  0.53901  0.62147  0.51109  1.0000
  C   C409      1.0  0.53165  0.63028  0.53544  1.0000
  H   H657      1.0  0.53274  0.66524  0.48299  1.0000
  H   H658      1.0  0.54641  0.65034  0.44073  1.0000
  H   H659      1.0  0.54115  0.60962  0.51944  1.0000
  H   H660      1.0  0.52840  0.62524  0.56256  1.0000
  C   C410      1.0  0.47771  0.73267  0.50096  1.0000
  H   H661      1.0  0.60648  0.61858  0.48107  1.0000
  C   C411      1.0  0.46792  0.51535  0.50824  1.0000
  H   H662      1.0  0.40678  0.58906  0.57281  1.0000
  H   H663      1.0  0.45125  0.73101  0.48238  1.0000
  C   C412      1.0  0.37712  0.58725  0.48337  1.0000
  C   C413      1.0  0.38676  0.60642  0.49327  1.0000
  C   C414      1.0  0.40601  0.61464  0.50193  1.0000
  C   C415      1.0  0.41570  0.60368  0.50082  1.0000
  C   C416      1.0  0.40604  0.58452  0.49092  1.0000
  C   C417      1.0  0.38681  0.57631  0.48229  1.0000
  H   H664      1.0  0.37933  0.61497  0.49393  1.0000
  H   H665      1.0  0.41336  0.62946  0.50914  1.0000
  H   H666      1.0  0.41343  0.57594  0.49005  1.0000
  H   H667      1.0  0.37951  0.56152  0.47472  1.0000
  H   H668      1.0  0.62517  0.62630  0.53874  1.0000
  H   H669      1.0  0.59454  0.59451  0.49328  1.0000
  N   N41       1.0  0.48410  0.58669  0.46985  1.0000
  C   C418      1.0  0.49607  0.60498  0.45473  1.0000
  C   C419      1.0  0.47686  0.57212  0.44022  1.0000
  C   C420      1.0  0.46838  0.58795  0.48800  1.0000
  C   C421      1.0  0.49515  0.58170  0.49645  1.0000
  H   H670      1.0  0.50830  0.60470  0.44140  1.0000
  H   H671      1.0  0.50151  0.61633  0.47633  1.0000
  H   H672      1.0  0.48828  0.60910  0.43420  1.0000
  H   H673      1.0  0.48842  0.57080  0.42611  1.0000
  H   H674      1.0  0.46792  0.55807  0.45073  1.0000
  H   H675      1.0  0.46843  0.57533  0.41956  1.0000
  H   H676      1.0  0.45904  0.57442  0.49982  1.0000
  H   H677      1.0  0.45975  0.59176  0.46878  1.0000
  H   H678      1.0  0.47338  0.59892  0.51040  1.0000
  H   H679      1.0  0.50058  0.59220  0.51956  1.0000
  H   H680      1.0  0.50730  0.58096  0.48370  1.0000
  H   H681      1.0  0.48668  0.56771  0.50770  1.0000
  H   H682      1.0  0.61324  0.60226  0.55100  1.0000
  H   H683      1.0  0.57964  0.60430  0.58220  1.0000
  C   C422      1.0  0.59484  0.63296  0.53634  1.0000
  C   C423      1.0  0.59447  0.60848  0.49592  1.0000
  C   C424      1.0  0.61266  0.61604  0.55217  1.0000
  C   C425      1.0  0.49679  0.74458  0.50547  1.0000
  H   H684      1.0  0.40191  0.62310  0.59711  1.0000
  H   H685      1.0  0.61383  0.62063  0.58126  1.0000
  C   C426      1.0  0.48657  0.52575  0.49989  1.0000
  C   C427      1.0  0.35091  0.58118  0.37202  1.0000
  H   H686      1.0  0.59510  0.63790  0.56494  1.0000
  S   S173      1.0  0.63511  0.51429  0.48703  1.0000
  H   H687      1.0  0.56580  0.59971  0.54092  1.0000
  C   C428      1.0  0.50074  0.52642  0.52374  1.0000
  C   C429      1.0  0.46602  0.74006  0.48617  1.0000
  H   H688      1.0  0.58199  0.63227  0.52241  1.0000
  C   C430      1.0  0.41598  0.62363  0.60081  1.0000
  C   C431      1.0  0.57910  0.60060  0.55277  1.0000
  H   H689      1.0  0.58162  0.60741  0.48164  1.0000
  N   N42       1.0  0.59528  0.61455  0.53436  1.0000
  H   H690      1.0  0.44441  0.62140  0.63665  1.0000
  H   H691      1.0  0.39709  0.59241  0.38057  1.0000
  H   H692      1.0  0.61963  0.52382  0.55183  1.0000
  H   H693      1.0  0.50713  0.51652  0.57370  1.0000
  H   H694      1.0  0.45692  0.51488  0.48991  1.0000
  C   C432      1.0  0.49618  0.51632  0.55560  1.0000
  C   C433      1.0  0.37621  0.60460  0.34059  1.0000
  H   H695      1.0  0.34067  0.57935  0.34947  1.0000
  H   H696      1.0  0.43926  0.60764  0.59481  1.0000
  H   H697      1.0  0.38340  0.59935  0.40991  1.0000
  H   H698      1.0  0.38798  0.58890  0.59840  1.0000
  Fe  Fe90      1.0  0.33807  0.50887  0.43961  1.0000
  H   H699      1.0  0.42164  0.62412  0.57344  1.0000
  H   H700      1.0  0.50603  0.73921  0.51669  1.0000
  H   H701      1.0  0.35079  0.59177  0.39224  1.0000
  C   C434      1.0  0.43414  0.60819  0.62243  1.0000
  C   C435      1.0  0.47749  0.50521  0.56303  1.0000
  C   C436      1.0  0.38271  0.58847  0.38949  1.0000
  N   N43       1.0  0.36977  0.58653  0.35860  1.0000
  H   H702      1.0  0.36432  0.55805  0.34491  1.0000
  H   H703      1.0  0.40139  0.57730  0.61491  1.0000
  C   C437      1.0  0.40228  0.58988  0.60089  1.0000
  H   H704      1.0  0.39043  0.60908  0.33019  1.0000
  H   H705      1.0  0.49878  0.50370  0.45542  1.0000
  S   S174      1.0  0.66335  0.50668  0.66013  1.0000
  H   H706      1.0  0.37675  0.61591  0.35972  1.0000
  C   C438      1.0  0.36922  0.57192  0.33231  1.0000
  C   C439      1.0  0.40909  0.60810  0.65761  1.0000
  H   H707      1.0  0.39504  0.60778  0.65717  1.0000
  S   S175      1.0  0.54946  0.54640  0.32948  1.0000
  Fe  Fe91      1.0  0.64800  0.50082  0.52641  1.0000
  Fe  Fe92      1.0  0.44127  0.64142  0.93324  1.0000
  H   H708      1.0  0.47291  0.52989  0.97709  1.0000
  H   H709      1.0  0.49529  0.69748  0.87468  1.0000
  Fe  Fe93      1.0  0.47399  0.65870  0.88412  1.0000
  S   S176      1.0  0.49407  0.67200  0.93218  1.0000
  S   S177      1.0  0.48743  0.66470  0.82870  1.0000
  Fe  Fe94      1.0  0.47910  0.64472  0.95944  1.0000
  H   H710      1.0  0.39924  0.52409  0.97181  1.0000
  Fe  Fe95      1.0  0.47269  0.68050  0.95392  1.0000
  C   C440      1.0  0.48404  0.53664  0.95739  1.0000
  S   S178      1.0  0.46061  0.63059  0.91001  1.0000
  S   S179      1.0  0.45351  0.66884  0.90423  1.0000
  C   C441      1.0  0.36692  0.53954  0.95055  1.0000
  S   S180      1.0  0.63358  0.51959  0.93424  1.0000
  H   H711      1.0  0.50092  0.70311  0.80994  1.0000
  H   H712      1.0  0.35575  0.57590  0.99108  1.0000
  H   H713      1.0  0.40844  0.59608  0.67334  1.0000
  H   H714      1.0  0.59446  0.54727  0.98451  1.0000
  C   C442      1.0  0.39887  0.60884  0.96878  1.0000
  S   S181      1.0  0.48594  0.70964  0.98314  1.0000
  C   C443      1.0  0.37986  0.59624  0.96502  1.0000
  H   H715      1.0  0.51572  0.72734  0.82097  1.0000
  H   H716      1.0  0.45972  0.70219  0.85617  1.0000
  H   H717      1.0  0.54095  0.61948  0.94842  1.0000
  H   H718      1.0  0.36296  0.55036  0.96164  1.0000
  N   N44       1.0  0.38303  0.53968  0.97131  1.0000
  C   C444      1.0  0.62351  0.52647  0.97085  1.0000
  H   H719      1.0  0.49713  0.58229  0.98232  1.0000
  C   C445      1.0  0.61175  0.53499  0.96304  1.0000
  C   C446      1.0  0.46944  0.70271  0.83469  1.0000
  C   C447      1.0  0.50101  0.71705  0.81467  1.0000
  C   C448      1.0  0.47795  0.66280  0.78361  1.0000
  C   C449      1.0  0.45902  0.65751  0.77616  1.0000
  C   C450      1.0  0.45232  0.65677  0.74005  1.0000
  C   C451      1.0  0.46439  0.66121  0.71085  1.0000
  C   C452      1.0  0.48331  0.66648  0.71832  1.0000
  C   C453      1.0  0.49002  0.66732  0.75445  1.0000
  H   H720      1.0  0.44951  0.65394  0.79817  1.0000
  H   H721      1.0  0.43767  0.65270  0.73469  1.0000
  H   H722      1.0  0.49279  0.66994  0.69627  1.0000
  H   H723      1.0  0.50469  0.67142  0.75978  1.0000
  C   C454      1.0  0.53269  0.61824  0.97189  1.0000
  C   C455      1.0  0.48931  0.73536  0.84991  1.0000
  H   H724      1.0  0.49645  0.72075  0.78856  1.0000
  H   H725      1.0  0.65792  0.50433  0.79269  1.0000
  H   H726      1.0  0.35444  0.52572  0.95169  1.0000
  H   H727      1.0  0.37001  0.54241  0.92151  1.0000
  H   H728      1.0  0.48035  0.73550  0.87248  1.0000
  H   H729      1.0  0.49125  0.52755  0.95386  1.0000
  C   C456      1.0  0.47848  0.72758  0.99079  1.0000
  H   H730      1.0  0.65414  0.51458  0.73114  1.0000
  H   H731      1.0  0.41161  0.55884  0.98467  1.0000
  H   H732      1.0  0.46848  0.68836  0.83116  1.0000
  C   C457      1.0  0.38774  0.52505  0.95578  1.0000
  C   C458      1.0  0.39919  0.55825  0.96937  1.0000
  C   C459      1.0  0.60325  0.54053  0.99100  1.0000
  H   H733      1.0  0.37557  0.51102  0.95556  1.0000
  H   H734      1.0  0.50670  0.56410  0.91642  1.0000
  N   N45       1.0  0.48875  0.71664  0.84435  1.0000
  H   H735      1.0  0.48611  0.71057  0.90110  1.0000
  H   H736      1.0  0.60930  0.53747  0.93514  1.0000
  H   H737      1.0  0.37236  0.59501  0.93951  1.0000
  H   H738      1.0  0.52237  0.57832  0.95241  1.0000
  H   H739      1.0  0.41887  0.62123  0.67289  1.0000
  H   H740      1.0  0.51693  0.63142  0.94672  1.0000
  H   H741      1.0  0.40305  0.56186  0.94084  1.0000
  H   H742      1.0  0.46425  0.70588  0.80873  1.0000
  H   H743      1.0  0.52046  0.55543  0.94232  1.0000
  C   C460      1.0  0.48745  0.56771  0.97298  1.0000
  H   H744      1.0  0.50965  0.72169  0.88667  1.0000
  H   H745      1.0  0.48112  0.56862  0.94634  1.0000
  C   C461      1.0  0.51907  0.62502  0.97083  1.0000
  S   S182      1.0  0.41017  0.62222  0.93138  1.0000
  C   C462      1.0  0.49523  0.71139  0.87819  1.0000
  H   H746      1.0  0.39205  0.52784  0.92727  1.0000
  N   N46       1.0  0.49729  0.55580  0.97016  1.0000
  S   S183      1.0  0.45875  0.65388  0.98408  1.0000
  H   H747      1.0  0.47720  0.53663  0.93076  1.0000
  H   H748      1.0  0.48433  0.73971  0.82503  1.0000
  Fe  Fe96      1.0  0.64931  0.50144  0.93210  1.0000
  H   H749      1.0  0.50371  0.74622  0.85703  1.0000
  S   S184      1.0  0.45504  0.66001  0.66589  1.0000
  C   C463      1.0  0.51231  0.56372  0.94411  1.0000
  H   H750      1.0  0.47618  0.56227  0.99279  1.0000
  H   H751      1.0  0.45298  0.71447  0.95835  1.0000
  C   C464      1.0  0.46191  0.72659  0.97526  1.0000
  C   C465      1.0  0.66061  0.50525  0.73435  1.0000
  H   H752      1.0  0.40240  0.74877  0.95459  1.0000
  H   H753      1.0  0.44403  0.74034  0.96937  1.0000
  H   H754      1.0  0.39614  0.56953  0.98124  1.0000
  C   C466      1.0  0.45684  0.74132  0.98168  1.0000
  C   C467      1.0  0.37043  0.58535  0.99416  1.0000
  H   H755      1.0  0.44252  0.96380  0.18876  1.0000
  C   C468      1.0  0.53400  0.90810  0.99543  1.0000
  C   C469      1.0  0.37373  0.93169  0.99623  1.0000
  Fe  Fe97      1.0  0.48178  0.82730  0.11666  1.0000
  S   S185      1.0  0.49782  0.82503  0.06850  1.0000
  S   S186      1.0  0.49636  0.83309  0.17313  1.0000
  Fe  Fe98      1.0  0.45053  0.82700  0.06694  1.0000
  C   C470      1.0  0.40084  0.98625  0.19968  1.0000
  S   S187      1.0  0.42233  0.82721  0.06959  1.0000
  Fe  Fe99      1.0  0.47036  0.80329  0.04421  1.0000
  C   C471      1.0  0.39975  0.97763  0.23302  1.0000
  Fe  Fe100     1.0  0.49077  0.84713  0.04430  1.0000
  C   C472      1.0  0.51782  0.89557  0.01223  1.0000
  S   S188      1.0  0.45483  0.80408  0.09417  1.0000
  S   S189      1.0  0.47618  0.85030  0.09328  1.0000
  Fe  Fe101     1.0  0.40514  0.97987  0.03608  1.0000
  C   C473      1.0  0.50535  0.90225  0.02448  1.0000
  S   S190      1.0  0.41590  0.97911  0.09294  1.0000
  C   C474      1.0  0.39840  0.89850  0.99912  1.0000
  C   C475      1.0  0.36766  0.92288  0.02898  1.0000
  C   C476      1.0  0.51701  0.88212  0.16556  1.0000
  H   H756      1.0  0.39687  0.97787  0.17458  1.0000
  S   S191      1.0  0.40342  0.97662  0.30697  1.0000
  H   H757      1.0  0.49037  0.77743  0.29047  1.0000
  H   H758      1.0  0.51402  0.99834  0.99505  1.0000
  H   H759      1.0  0.52444  0.91025  0.11990  1.0000
  H   H760      1.0  0.51034  0.88824  0.09633  1.0000
  H   H761      1.0  0.39257  0.90048  0.02512  1.0000
  H   H762      1.0  0.39511  0.96263  0.23329  1.0000
  H   H763      1.0  0.40068  0.87553  0.04958  1.0000
  H   H764      1.0  0.47627  0.98316  0.20372  1.0000
  C   C477      1.0  0.45221  0.99465  0.23200  1.0000
  H   H765      1.0  0.53414  0.90132  0.08521  1.0000
  H   H766      1.0  0.55940  0.90375  0.12835  1.0000
  C   C478      1.0  0.47514  0.99499  0.19022  1.0000
  C   C479      1.0  0.48611  0.82855  0.21643  1.0000
  C   C480      1.0  0.46698  0.81774  0.22016  1.0000
  C   C481      1.0  0.45956  0.81406  0.25502  1.0000
  C   C482      1.0  0.47104  0.82134  0.28664  1.0000
  C   C483      1.0  0.49016  0.83228  0.28293  1.0000
  C   C484      1.0  0.49763  0.83574  0.24806  1.0000
  H   H767      1.0  0.45792  0.81206  0.19621  1.0000
  H   H768      1.0  0.44476  0.80556  0.25747  1.0000
  H   H769      1.0  0.49920  0.83804  0.30688  1.0000
  H   H770      1.0  0.51244  0.84410  0.24560  1.0000
  H   H771      1.0  0.49398  0.98371  0.04633  1.0000
  H   H772      1.0  0.49938  0.92618  0.02993  1.0000
  H   H773      1.0  0.41864  0.79480  0.03144  1.0000
  H   H774      1.0  0.51677  0.89466  0.17913  1.0000
  H   H775      1.0  0.53940  0.87343  0.09555  1.0000
  H   H776      1.0  0.36452  0.81576  0.00215  1.0000
  H   H777      1.0  0.49357  0.77029  0.03650  1.0000
  H   H778      1.0  0.43836  0.99447  0.23518  1.0000
  C   C485      1.0  0.40914  0.82570  0.02963  1.0000
  H   H779      1.0  0.38381  0.81866  0.05796  1.0000
  H   H780      1.0  0.42806  0.97500  0.17713  1.0000
  H   H781      1.0  0.47859  0.99437  0.16126  1.0000
  H   H782      1.0  0.40561  0.77144  0.04621  1.0000
  H   H783      1.0  0.49284  0.89287  0.03739  1.0000
  H   H784      1.0  0.37199  0.93105  0.05430  1.0000
  S   S192      1.0  0.46086  0.77538  0.01064  1.0000
  H   H785      1.0  0.45203  0.98244  0.24643  1.0000
  C   C486      1.0  0.40453  0.98822  0.26602  1.0000
  C   C487      1.0  0.44241  0.97620  0.17566  1.0000
  S   S193      1.0  0.33372  0.86840  0.99750  1.0000
  H   H786      1.0  0.47261  0.78436  0.30217  1.0000
  S   S194      1.0  0.51432  0.87205  0.01841  1.0000
  S   S195      1.0  0.52882  0.95731  0.99807  1.0000
  H   H787      1.0  0.52070  0.87436  0.18658  1.0000
  H   H788      1.0  0.50253  0.87270  0.15555  1.0000
  H   H789      1.0  0.54987  0.91274  0.16323  1.0000
  N   N47       1.0  0.53015  0.88731  0.13569  1.0000
  H   H790      1.0  0.53390  0.86213  0.13855  1.0000
  H   H791      1.0  0.51575  0.86060  0.10764  1.0000
  H   H792      1.0  0.55380  0.89251  0.17106  1.0000
  C   C488      1.0  0.52990  0.87017  0.11865  1.0000
  C   C489      1.0  0.54916  0.89964  0.15025  1.0000
  C   C490      1.0  0.52454  0.89726  0.10820  1.0000
  C   C491      1.0  0.39013  0.82110  0.03179  1.0000
  H   H793      1.0  0.42923  0.77919  0.03333  1.0000
  C   C492      1.0  0.41599  0.77999  0.02653  1.0000
  S   S196      1.0  0.46455  0.82528  0.01602  1.0000
  C   C493      1.0  0.35543  0.90353  0.02888  1.0000
  C   C494      1.0  0.49501  0.99683  0.03647  1.0000
  H   H794      1.0  0.44519  0.97521  0.14641  1.0000
  C   C495      1.0  0.40582  0.87434  0.02231  1.0000
  H   H795      1.0  0.35047  0.89696  0.05431  1.0000
  C   C496      1.0  0.37920  0.81951  0.00025  1.0000
  H   H796      1.0  0.36967  0.86729  0.02081  1.0000
  H   H797      1.0  0.40413  0.85974  0.01850  1.0000
  H   H798      1.0  0.41342  0.90861  0.99973  1.0000
  C   C497      1.0  0.50912  0.92119  0.02022  1.0000
  H   H799      1.0  0.46835  0.76031  0.30554  1.0000
  C   C498      1.0  0.47917  0.77504  0.30982  1.0000
  Fe  Fe102     1.0  0.44366  0.99855  0.07260  1.0000
  N   N48       1.0  0.45631  0.99395  0.19328  1.0000
  H   H800      1.0  0.42101  0.88381  0.02266  1.0000
  S   S197      1.0  0.43355  0.99775  0.01535  1.0000
  S   S198      1.0  0.46860  0.99374  0.08496  1.0000
  C   C499      1.0  0.34940  0.89267  0.99618  1.0000
  C   C500      1.0  0.41722  0.82890  0.99579  1.0000
  C   C501      1.0  0.46812  0.75723  0.00390  1.0000
  C   C502      1.0  0.48468  0.75820  0.01947  1.0000
  H   H801      1.0  0.38061  0.76466  0.99944  1.0000
  C   C503      1.0  0.52527  0.93372  0.00339  1.0000
  S   S199      1.0  0.35414  0.80015  0.48986  1.0000
  S   S200      1.0  0.35196  0.83887  0.56203  1.0000
  Fe  Fe103     1.0  0.47270  0.82633  0.38757  1.0000
  S   S201      1.0  0.50243  0.83556  0.40649  1.0000
  H   H802      1.0  0.48014  0.78093  0.54566  1.0000
  Fe  Fe104     1.0  0.46083  0.82888  0.46553  1.0000
  S   S202      1.0  0.48994  0.83795  0.48877  1.0000
  S   S203      1.0  0.44131  0.82720  0.51030  1.0000
  Fe  Fe105     1.0  0.49884  0.85728  0.44223  1.0000
  S   S204      1.0  0.51906  0.88866  0.44255  1.0000
  Fe  Fe106     1.0  0.49035  0.81523  0.45138  1.0000
  S   S205      1.0  0.50228  0.79488  0.46836  1.0000
  S   S206      1.0  0.46959  0.84912  0.42045  1.0000
  S   S207      1.0  0.46079  0.80513  0.43113  1.0000
  Fe  Fe107     1.0  0.40711  0.98010  0.44446  1.0000
  S   S208      1.0  0.42293  0.97364  0.40116  1.0000
  S   S209      1.0  0.39313  0.96136  0.49179  1.0000
  Fe  Fe108     1.0  0.55774  0.98536  0.56928  1.0000
  H   H803      1.0  0.49039  0.92846  0.45998  1.0000
  S   S210      1.0  0.55222  0.95445  0.56613  1.0000
  H   H804      1.0  0.37162  0.84145  0.44552  1.0000
  H   H805      1.0  0.50667  0.80223  0.38043  1.0000
  H   H806      1.0  0.50805  0.97361  0.53948  1.0000
  H   H807      1.0  0.48941  0.79849  0.58176  1.0000
  C   C504      1.0  0.45226  0.77793  0.58775  1.0000
  C   C505      1.0  0.36493  0.90795  0.52664  1.0000
  H   H808      1.0  0.39138  0.86685  0.53361  1.0000
  C   C506      1.0  0.39051  0.87585  0.51169  1.0000
  C   C507      1.0  0.52719  0.90678  0.47737  1.0000
  C   C508      1.0  0.52384  0.90311  0.51408  1.0000
  C   C509      1.0  0.53134  0.91789  0.54075  1.0000
  C   C510      1.0  0.54194  0.93659  0.53113  1.0000
  C   C511      1.0  0.54500  0.94031  0.49438  1.0000
  C   C512      1.0  0.53774  0.92550  0.46777  1.0000
  H   H809      1.0  0.51587  0.88883  0.52199  1.0000
  H   H810      1.0  0.52906  0.91477  0.56908  1.0000
  H   H811      1.0  0.55356  0.95448  0.48652  1.0000
  H   H812      1.0  0.54061  0.92851  0.43953  1.0000
  C   C513      1.0  0.49229  0.77082  0.48051  1.0000
  H   H813      1.0  0.46423  0.78482  0.36550  1.0000
  H   H814      1.0  0.51724  0.95674  0.54147  1.0000
  C   C514      1.0  0.48067  0.79442  0.55617  1.0000
  C   C515      1.0  0.38890  0.87973  0.44715  1.0000
  C   C516      1.0  0.35598  0.89735  0.49503  1.0000
  H   H815      1.0  0.37641  0.88240  0.44955  1.0000
  C   C517      1.0  0.37638  0.92744  0.52507  1.0000
  C   C518      1.0  0.37939  0.93654  0.49186  1.0000
  C   C519      1.0  0.37081  0.92585  0.46017  1.0000
  C   C520      1.0  0.35905  0.90646  0.46186  1.0000
  H   H816      1.0  0.38285  0.93553  0.54983  1.0000
  H   H817      1.0  0.37280  0.93260  0.43446  1.0000
  H   H818      1.0  0.44956  0.77433  0.51500  1.0000
  C   C521      1.0  0.37846  0.80814  0.49535  1.0000
  C   C522      1.0  0.38842  0.80558  0.46664  1.0000
  C   C523      1.0  0.40781  0.81175  0.47044  1.0000
  C   C524      1.0  0.41725  0.82022  0.50325  1.0000
  C   C525      1.0  0.40728  0.82285  0.53186  1.0000
  C   C526      1.0  0.38798  0.81702  0.52784  1.0000
  H   H819      1.0  0.38114  0.79877  0.44139  1.0000
  H   H820      1.0  0.41538  0.80964  0.44825  1.0000
  H   H821      1.0  0.41449  0.82937  0.55736  1.0000
  H   H822      1.0  0.38041  0.81898  0.55018  1.0000
  N   N49       1.0  0.46180  0.79278  0.56193  1.0000
  H   H823      1.0  0.43677  0.78689  0.53010  1.0000
  C   C527      1.0  0.45100  0.78791  0.52700  1.0000
  C   C528      1.0  0.46321  0.81086  0.57666  1.0000
  C   C529      1.0  0.60903  0.99729  0.65435  1.0000
  H   H824      1.0  0.50078  0.76924  0.38596  1.0000
  C   C530      1.0  0.47899  0.99943  0.52684  1.0000
  H   H825      1.0  0.36186  0.99272  0.54100  1.0000
  C   C531      1.0  0.50075  0.79873  0.35203  1.0000
  H   H826      1.0  0.40912  0.99515  0.53602  1.0000
  H   H827      1.0  0.47109  0.81498  0.60323  1.0000
  H   H828      1.0  0.35964  0.85139  0.47266  1.0000
  H   H829      1.0  0.40283  0.88975  0.51514  1.0000
  S   S211      1.0  0.39536  0.99460  0.40659  1.0000
  Fe  Fe109     1.0  0.41284  0.98977  0.36402  1.0000
  Fe  Fe110     1.0  0.33974  0.81250  0.52686  1.0000
  C   C532      1.0  0.50462  0.95862  0.53378  1.0000
  C   C533      1.0  0.49437  0.93308  0.48895  1.0000
  H   H830      1.0  0.49347  0.95024  0.55229  1.0000
  H   H831      1.0  0.35215  0.89849  0.43722  1.0000
  H   H832      1.0  0.52708  0.96342  0.47876  1.0000
  H   H833      1.0  0.40135  0.89358  0.44948  1.0000
  H   H834      1.0  0.48812  0.80515  0.53602  1.0000
  H   H835      1.0  0.45788  0.79884  0.50704  1.0000
  H   H836      1.0  0.46045  0.76103  0.37042  1.0000
  H   H837      1.0  0.46937  0.99373  0.54840  1.0000
  C   C534      1.0  0.40596  0.86348  0.47101  1.0000
  C   C535      1.0  0.37241  0.84917  0.47158  1.0000
  S   S212      1.0  0.54304  0.99047  0.61646  1.0000
  N   N50       1.0  0.38948  0.86708  0.47533  1.0000
  H   H838      1.0  0.40668  0.85389  0.49186  1.0000
  H   H839      1.0  0.38820  0.87359  0.41939  1.0000
  H   H840      1.0  0.37793  0.87809  0.51634  1.0000
  H   H841      1.0  0.41913  0.87667  0.47370  1.0000
  C   C536      1.0  0.47125  0.77585  0.37231  1.0000
  H   H842      1.0  0.40556  0.85669  0.44401  1.0000
  H   H843      1.0  0.51042  0.96059  0.44273  1.0000
  H   H844      1.0  0.46397  0.76423  0.46452  1.0000
  C   C537      1.0  0.49519  0.76652  0.35726  1.0000
  H   H845      1.0  0.38949  0.99611  0.48372  1.0000
  N   N51       1.0  0.48659  0.77901  0.34780  1.0000
  C   C538      1.0  0.48214  0.95593  0.48632  1.0000
  H   H846      1.0  0.48274  0.92388  0.50575  1.0000
  C   C539      1.0  0.47320  0.75895  0.47605  1.0000
  H   H847      1.0  0.46004  0.78112  0.61443  1.0000
  N   N52       1.0  0.49880  0.95307  0.49525  1.0000
  C   C540      1.0  0.50399  0.76345  0.49521  1.0000
  H   H848      1.0  0.47728  0.95179  0.45750  1.0000
  H   H849      1.0  0.51878  0.77241  0.49882  1.0000
  H   H850      1.0  0.50654  0.93040  0.49612  1.0000
  H   H851      1.0  0.51736  0.97984  0.47535  1.0000
  H   H852      1.0  0.36268  0.90123  0.55241  1.0000
  H   H853      1.0  0.37181  0.83984  0.49387  1.0000
  C   C541      1.0  0.51408  0.96472  0.47197  1.0000
  H   H854      1.0  0.60826  0.99413  0.62460  1.0000
  H   H855      1.0  0.48516  0.97092  0.49031  1.0000
  H   H856      1.0  0.47041  0.94773  0.50388  1.0000
  H   H857      1.0  0.45095  0.76410  0.57728  1.0000
  C   C542      1.0  0.37528  0.99259  0.54924  1.0000
  H   H858      1.0  0.43795  0.77631  0.59260  1.0000
  H   H859      1.0  0.44919  0.81027  0.58045  1.0000
  S   S213      1.0  0.34100  0.87276  0.49493  1.0000
  H   H860      1.0  0.47043  0.82238  0.55783  1.0000
  H   H861      1.0  0.47647  0.77917  0.40114  1.0000
  H   H862      1.0  0.49466  0.80850  0.34522  1.0000
  S   S214      1.0  0.46086  0.81553  0.32983  1.0000
  H   H863      1.0  0.37588  0.99200  0.57932  1.0000
  H   H864      1.0  0.51253  0.80171  0.33383  1.0000
  H   H865      1.0  0.37486  0.97926  0.53778  1.0000
  H   H866      1.0  0.59754  0.96056  0.63784  1.0000
  H   H867      1.0  0.57465  0.97309  0.62975  1.0000
  H   H868      1.0  0.45741  0.99424  0.48606  1.0000
  C   C543      1.0  0.47222  0.99981  0.49161  1.0000
  S   S215      1.0  0.33501  0.82100  0.65805  1.0000
  C   C544      1.0  0.57633  0.97680  0.65935  1.0000
  Fe  Fe111     1.0  0.33233  0.84753  0.53186  1.0000
  H   H869      1.0  0.50696  0.76862  0.33957  1.0000
  H   H870      1.0  0.48491  0.75150  0.35442  1.0000
  S   S216      1.0  0.34708  0.84893  0.90720  1.0000
  H   H871      1.0  0.53952  0.95962  0.90687  1.0000
  C   C545      1.0  0.36777  0.92079  0.96357  1.0000
  Fe  Fe112     1.0  0.54633  0.98430  0.96819  1.0000
  H   H872      1.0  0.56550  0.96484  0.67320  1.0000
  H   H873      1.0  0.61323  0.96755  0.67711  1.0000
  S   S217      1.0  0.37407  0.82020  0.92597  1.0000
  N   N53       1.0  0.51681  0.93514  0.88263  1.0000
  H   H874      1.0  0.41759  0.88613  0.95574  1.0000
  Fe  Fe113     1.0  0.34648  0.82190  0.92563  1.0000
  H   H875      1.0  0.48996  0.92538  0.90627  1.0000
  H   H876      1.0  0.54087  0.93820  0.91484  1.0000
  C   C546      1.0  0.55647  0.99835  0.72742  1.0000
  C   C547      1.0  0.35583  0.90139  0.96351  1.0000
  H   H877      1.0  0.54597  0.94849  0.87098  1.0000
  H   H878      1.0  0.52086  0.94765  0.83050  1.0000
  C   C548      1.0  0.51352  0.91649  0.86757  1.0000
  H   H879      1.0  0.43192  0.83281  0.99394  1.0000
  H   H880      1.0  0.33757  0.82072  0.79156  1.0000
  H   H881      1.0  0.43721  0.78602  0.96850  1.0000
  S   S218      1.0  0.55030  0.98667  0.83455  1.0000
  C   C549      1.0  0.40248  0.87671  0.95759  1.0000
  C   C550      1.0  0.33126  0.82396  0.76817  1.0000
  H   H882      1.0  0.49868  0.90809  0.85846  1.0000
  C   C551      1.0  0.53665  0.94575  0.89429  1.0000
  S   S219      1.0  0.52948  0.98911  0.92355  1.0000
  H   H883      1.0  0.53802  0.97610  0.76013  1.0000
  H   H884      1.0  0.49723  0.93793  0.84499  1.0000
  S   S220      1.0  0.57226  0.99429  0.93550  1.0000
  C   C552      1.0  0.50503  0.93285  0.91413  1.0000
  C   C553      1.0  0.59893  0.96469  0.66728  1.0000
  H   H885      1.0  0.50793  0.92475  0.93547  1.0000
  H   H886      1.0  0.35122  0.89331  0.93810  1.0000
  H   H887      1.0  0.52227  0.91775  0.84384  1.0000
  C   C554      1.0  0.33600  0.82083  0.73282  1.0000
  N   N54       1.0  0.40952  0.77353  0.98861  1.0000
  H   H888      1.0  0.41257  0.82952  0.93808  1.0000
  H   H889      1.0  0.50764  0.94666  0.92702  1.0000
  H   H890      1.0  0.37228  0.92745  0.93805  1.0000
  C   C555      1.0  0.40626  0.82713  0.96424  1.0000
  C   C556      1.0  0.59688  0.98608  0.71279  1.0000
  H   H891      1.0  0.42552  0.80069  0.96731  1.0000
  C   C557      1.0  0.51208  0.94546  0.85454  1.0000
  C   C558      1.0  0.54988  0.98974  0.76047  1.0000
  H   H892      1.0  0.51695  0.90836  0.88821  1.0000
  H   H893      1.0  0.51452  0.95965  0.86499  1.0000
  C   C559      1.0  0.38724  0.82247  0.96635  1.0000
  N   N55       1.0  0.59531  0.98121  0.67348  1.0000
  C   C560      1.0  0.53770  0.92702  0.99095  1.0000
  H   H894      1.0  0.41899  0.78149  0.93478  1.0000
  H   H895      1.0  0.55033  0.93649  0.97852  1.0000
  H   H896      1.0  0.58606  0.97474  0.72799  1.0000
  H   H897      1.0  0.36748  0.86942  0.97300  1.0000
  H   H898      1.0  0.58887  0.95237  0.68159  1.0000
  H   H899      1.0  0.54385  0.90317  0.98610  1.0000
  C   C561      1.0  0.42339  0.78595  0.96366  1.0000
  H   H900      1.0  0.38633  0.76967  0.95279  1.0000
  H   H901      1.0  0.39132  0.90259  0.97711  1.0000
  H   H902      1.0  0.39269  0.78841  0.98624  1.0000
  H   H903      1.0  0.39489  0.87994  0.93517  1.0000
  H   H904      1.0  0.61079  0.98879  0.72472  1.0000
  H   H905      1.0  0.40039  0.86204  0.95229  1.0000
  H   H906      1.0  0.54962  0.99133  0.70204  1.0000
  H   H907      1.0  0.57319  0.98898  0.66331  1.0000
  C   C562      1.0  0.39148  0.77403  0.98141  1.0000
  C   C563      1.0  0.55843  0.99869  0.79390  1.0000
  H   H908      1.0  0.34596  0.81518  0.72943  1.0000
  H   H909      1.0  0.59507  0.99902  0.71809  1.0000
  C   C564      1.0  0.40727  0.75416  0.98292  1.0000
  Fe  Fe114     1.0  0.55555  0.00026  0.89173  1.0000
  N   N56       1.0  0.39559  0.87894  0.99336  1.0000
  H   H910      1.0  0.42074  0.75344  0.98815  1.0000
  H   H911      1.0  0.37274  0.85126  0.98947  1.0000
  C   C565      1.0  0.37553  0.86614  0.99430  1.0000
  S   S221      1.0  0.38841  0.95620  0.99413  1.0000
  H   H912      1.0  0.45968  0.99869  0.91638  1.0000
  C   C566      1.0  0.67761  0.18413  0.25280  1.0000
  C   C567      1.0  0.67038  0.18149  0.28789  1.0000
  C   C568      1.0  0.72542  0.24181  0.03565  1.0000
  S   S222      1.0  0.67576  0.18307  0.17792  1.0000
  H   H913      1.0  0.67964  0.18470  0.31161  1.0000
  Fe  Fe115     1.0  0.67501  0.19373  0.04374  1.0000
  H   H914      1.0  0.71959  0.23620  0.06127  1.0000
  C   C569      1.0  0.71744  0.23146  0.00328  1.0000
  S   S223      1.0  0.69690  0.20953  0.00203  1.0000
  S   S224      1.0  0.67126  0.16810  0.07484  1.0000
  H   H915      1.0  0.69247  0.18940  0.24993  1.0000
  H   H916      1.0  0.68974  0.23784  0.04387  1.0000
  S   S225      1.0  0.66829  0.20789  0.09083  1.0000
  C   C570      1.0  0.66584  0.18007  0.22150  1.0000
  H   H917      1.0  0.66692  0.13952  0.16440  1.0000
  H   H918      1.0  0.66436  0.12016  0.10904  1.0000
  Fe  Fe116     1.0  0.68406  0.19815  0.45291  1.0000
  C   C571      1.0  0.71218  0.19391  0.55189  1.0000
  S   S226      1.0  0.71526  0.21452  0.46947  1.0000
  H   H919      1.0  0.71401  0.19720  0.58162  1.0000
  H   H920      1.0  0.72557  0.20286  0.53926  1.0000
  C   C572      1.0  0.68843  0.16248  0.56024  1.0000
  H   H921      1.0  0.67737  0.16631  0.55019  1.0000
  C   C573      1.0  0.72803  0.23791  0.48813  1.0000
  H   H922      1.0  0.73437  0.17672  0.54553  1.0000
  H   H923      1.0  0.71672  0.15334  0.55186  1.0000
  S   S227      1.0  0.67361  0.16959  0.42378  1.0000
  H   H924      1.0  0.70173  0.19843  0.54110  1.0000
  C   C574      1.0  0.72071  0.16846  0.55784  1.0000
  H   H925      1.0  0.69942  0.15510  0.49615  1.0000
  H   H926      1.0  0.68333  0.14722  0.55357  1.0000
  H   H927      1.0  0.75274  0.23421  0.49969  1.0000
  N   N57       1.0  0.70636  0.17377  0.54345  1.0000
  H   H928      1.0  0.68959  0.16455  0.59029  1.0000
  H   H929      1.0  0.71732  0.17854  0.48992  1.0000
  C   C575      1.0  0.70412  0.17019  0.50370  1.0000
  H   H930      1.0  0.69356  0.17424  0.49207  1.0000
  H   H931      1.0  0.72280  0.17100  0.58779  1.0000
  C   C576      1.0  0.74661  0.24391  0.50095  1.0000
  H   H932      1.0  0.70616  0.24639  0.48020  1.0000
  S   S228      1.0  0.66489  0.20665  0.42046  1.0000
  S   S229      1.0  0.66404  0.18654  0.49740  1.0000
  H   H933      1.0  0.71975  0.23109  0.94517  1.0000
  C   C577      1.0  0.72565  0.23896  0.97041  1.0000
  H   H934      1.0  0.68552  0.23628  0.97616  1.0000
  C   C578      1.0  0.68527  0.25014  0.97911  1.0000
  C   C579      1.0  0.67569  0.26992  0.01516  1.0000
  H   H935      1.0  0.88863  0.49402  0.03551  1.0000
  Fe  Fe117     1.0  0.96252  0.40445  0.04357  1.0000
  Fe  Fe118     1.0  0.82805  0.49845  0.09950  1.0000
  S   S230      1.0  0.95126  0.42217  0.07199  1.0000
  C   C580      1.0  0.82536  0.40459  0.02994  1.0000
  C   C581      1.0  0.81550  0.48696  0.26649  1.0000
  Fe  Fe119     1.0  0.82583  0.46419  0.05669  1.0000
  H   H936      1.0  0.94563  0.39786  0.14258  1.0000
  Fe  Fe120     1.0  0.97541  0.43026  0.11190  1.0000
  Fe  Fe121     1.0  0.80221  0.48400  0.03173  1.0000
  C   C582      1.0  0.91305  0.38285  0.10455  1.0000
  H   H937      1.0  0.68278  0.25250  0.07089  1.0000
  S   S231      1.0  0.80431  0.47056  0.08374  1.0000
  H   H938      1.0  0.85004  0.47890  0.32543  1.0000
  H   H939      1.0  0.98040  0.40481  0.18935  1.0000
  H   H940      1.0  0.91692  0.38703  0.17737  1.0000
  S   S232      1.0  0.96007  0.46391  0.01441  1.0000
  S   S233      1.0  0.98561  0.40666  0.32283  1.0000
  Fe  Fe122     1.0  0.97089  0.44482  0.03811  1.0000
  H   H941      1.0  0.87328  0.48140  0.32002  1.0000
  H   H942      1.0  0.91969  0.34582  0.13292  1.0000
  C   C583      1.0  0.68864  0.25129  0.04444  1.0000
  H   H943      1.0  0.91695  0.39747  0.11468  1.0000
  H   H944      1.0  0.81650  0.47460  0.17706  1.0000
  S   S234      1.0  0.98116  0.42683  0.00684  1.0000
  S   S235      1.0  0.80950  0.47599  0.30882  1.0000
  C   C584      1.0  0.98141  0.41462  0.28065  1.0000
  H   H945      1.0  0.68973  0.28199  0.01388  1.0000
  H   H946      1.0  0.94672  0.37625  0.15134  1.0000
  H   H947      1.0  0.91878  0.38368  0.07712  1.0000
  S   S236      1.0  0.82928  0.43761  0.06247  1.0000
  H   H948      1.0  0.82242  0.37854  0.00463  1.0000
  H   H949      1.0  0.90770  0.48790  0.03188  1.0000
  H   H950      1.0  0.88902  0.45704  0.05817  1.0000
  S   S237      1.0  0.94286  0.37409  0.02761  1.0000
  H   H951      1.0  0.74803  0.46647  0.11462  1.0000
  C   C585      1.0  0.91451  0.35369  0.11495  1.0000
  C   C586      1.0  0.98267  0.40572  0.24804  1.0000
  H   H952      1.0  0.92013  0.35364  0.08761  1.0000
  C   C587      1.0  0.77814  0.48533  0.15878  1.0000
  C   C588      1.0  0.82258  0.42073  0.02617  1.0000
  H   H953      1.0  0.83125  0.40252  0.05517  1.0000
  N   N58       1.0  0.67690  0.25190  0.01344  1.0000
  C   C589      1.0  0.97383  0.43589  0.24520  1.0000
  H   H954      1.0  0.74684  0.48995  0.15957  1.0000
  C   C590      1.0  0.82035  0.39099  0.00136  1.0000
  C   C591      1.0  0.74927  0.26704  0.00215  1.0000
  C   C592      1.0  0.97515  0.42708  0.21263  1.0000
  H   H955      1.0  0.89908  0.34573  0.11192  1.0000
  C   C593      1.0  0.75981  0.47830  0.10245  1.0000
  C   C594      1.0  0.81346  0.47566  0.23512  1.0000
  H   H956      1.0  0.78659  0.49625  0.17993  1.0000
  H   H957      1.0  0.76849  0.47243  0.08898  1.0000
  H   H958      1.0  0.94697  0.38341  0.10556  1.0000
  H   H959      1.0  0.91379  0.38687  0.00743  1.0000
  H   H960      1.0  0.87006  0.46320  0.06297  1.0000
  H   H961      1.0  0.74708  0.26732  0.06025  1.0000
  N   N59       1.0  0.92024  0.37304  0.12942  1.0000
  S   S238      1.0  0.77283  0.47497  0.00606  1.0000
  H   H962      1.0  0.89760  0.37548  0.10101  1.0000
  H   H963      1.0  0.97589  0.43667  0.30387  1.0000
  H   H964      1.0  0.92056  0.33619  0.00712  1.0000
  H   H965      1.0  0.78742  0.47955  0.14762  1.0000
  C   C595      1.0  0.91263  0.37258  0.16569  1.0000
  C   C596      1.0  0.81813  0.48353  0.20083  1.0000
  H   H966      1.0  0.89713  0.36525  0.16447  1.0000
  S   S239      1.0  0.98563  0.41085  0.08621  1.0000
  C   C597      1.0  0.97951  0.41187  0.21413  1.0000
  H   H967      1.0  0.91773  0.36522  0.18513  1.0000
  C   C598      1.0  0.87652  0.45687  0.04396  1.0000
  C   C599      1.0  0.94079  0.38308  0.13239  1.0000
  S   S240      1.0  0.82205  0.47526  0.00366  1.0000
  H   H968      1.0  0.80826  0.46066  0.23737  1.0000
  C   C600      1.0  0.97695  0.42972  0.27901  1.0000
  H   H969      1.0  0.66951  0.27168  0.04087  1.0000
  H   H970      1.0  0.97043  0.44764  0.24437  1.0000
  C   C601      1.0  0.91207  0.34343  0.00200  1.0000
  H   H971      1.0  0.90272  0.45846  0.99789  1.0000
  N   N60       1.0  0.77082  0.49321  0.13000  1.0000
  S   S241      1.0  0.85000  0.49099  0.07695  1.0000
  S   S242      1.0  0.76887  0.28965  0.00343  1.0000
  H   H972      1.0  0.76675  0.47383  0.17254  1.0000
  C   C602      1.0  0.75549  0.48318  0.00002  1.0000
  H   H973      1.0  0.86623  0.44194  0.03887  1.0000
  H   H974      1.0  0.70308  0.26276  0.04392  1.0000
  C   C603      1.0  0.90820  0.37189  0.00227  1.0000
  H   H975      1.0  0.98604  0.39396  0.24915  1.0000
  C   C604      1.0  0.91954  0.36279  0.00910  1.0000
  C   C605      1.0  0.74110  0.25948  0.03500  1.0000
  C   C606      1.0  0.89474  0.48675  0.01787  1.0000
  S   S243      1.0  0.97182  0.43620  0.17114  1.0000
  H   H976      1.0  0.85748  0.47268  0.01007  1.0000
  S   S244      1.0  0.99402  0.45481  0.08030  1.0000
  N   N61       1.0  0.88132  0.46699  0.00981  1.0000
  H   H977      1.0  0.75388  0.48371  0.08056  1.0000
  H   H978      1.0  0.85405  0.49798  0.27192  1.0000
  Fe  Fe123     1.0  0.96097  0.41502  0.44485  1.0000
  S   S245      1.0  0.95711  0.42363  0.38864  1.0000
  S   S246      1.0  0.94018  0.40107  0.48947  1.0000
  H   H979      1.0  0.80485  0.30329  0.38534  1.0000
  C   C607      1.0  0.80338  0.29828  0.47652  1.0000
  H   H980      1.0  0.76735  0.28382  0.45121  1.0000
  Fe  Fe124     1.0  0.83372  0.34158  0.53898  1.0000
  S   S247      1.0  0.83977  0.36006  0.58904  1.0000
  S   S248      1.0  0.85268  0.34620  0.49092  1.0000
  Fe  Fe125     1.0  0.79206  0.31948  0.55581  1.0000
  S   S249      1.0  0.79530  0.33720  0.60711  1.0000
  S   S250      1.0  0.76302  0.29926  0.53145  1.0000
  Fe  Fe126     1.0  0.81328  0.36192  0.57482  1.0000
  S   S251      1.0  0.81576  0.39140  0.58011  1.0000
  Fe  Fe127     1.0  0.82155  0.33410  0.61830  1.0000
  S   S252      1.0  0.80805  0.34486  0.52311  1.0000
  S   S253      1.0  0.81751  0.31492  0.56868  1.0000
  S   S254      1.0  0.83057  0.47184  0.39713  1.0000
  C   C608      1.0  0.74455  0.44578  0.52334  1.0000
  S   S255      1.0  0.78930  0.46911  0.40722  1.0000
  H   H981      1.0  0.80744  0.33040  0.44714  1.0000
  Fe  Fe128     1.0  0.80811  0.45927  0.43640  1.0000
  S   S256      1.0  0.79566  0.42813  0.44572  1.0000
  C   C609      1.0  0.97698  0.44804  0.60020  1.0000
  H   H982      1.0  0.97474  0.43639  0.61850  1.0000
  S   S257      1.0  0.82102  0.48406  0.47563  1.0000
  Fe  Fe129     1.0  0.67734  0.48490  0.53286  1.0000
  S   S258      1.0  0.69843  0.47873  0.49980  1.0000
  H   H983      1.0  0.83800  0.41396  0.48267  1.0000
  H   H984      1.0  0.85996  0.43017  0.46621  1.0000
  C   C610      1.0  0.74818  0.48487  0.46011  1.0000
  C   C611      1.0  0.72900  0.47907  0.46565  1.0000
  S   S259      1.0  0.98590  0.40997  0.43137  1.0000
  H   H985      1.0  0.75246  0.47909  0.43734  1.0000
  H   H986      1.0  0.71872  0.46861  0.44725  1.0000
  C   C612      1.0  0.81035  0.40155  0.54245  1.0000
  C   C613      1.0  0.80026  0.39055  0.51213  1.0000
  C   C614      1.0  0.79598  0.39898  0.48259  1.0000
  C   C615      1.0  0.80203  0.41844  0.48288  1.0000
  C   C616      1.0  0.81235  0.42951  0.51298  1.0000
  C   C617      1.0  0.81636  0.42103  0.54284  1.0000
  H   H987      1.0  0.79537  0.37552  0.51178  1.0000
  H   H988      1.0  0.78786  0.39035  0.45946  1.0000
  H   H989      1.0  0.81704  0.44453  0.51347  1.0000
  H   H990      1.0  0.82418  0.42959  0.56629  1.0000
  C   C618      1.0  0.74978  0.27524  0.51661  1.0000
  H   H991      1.0  0.88485  0.42316  0.52199  1.0000
  H   H992      1.0  0.97947  0.46299  0.53471  1.0000
  H   H993      1.0  0.88608  0.40407  0.49706  1.0000
  H   H994      1.0  0.86689  0.48758  0.36285  1.0000
  C   C619      1.0  0.91571  0.38625  0.48872  1.0000
  C   C620      1.0  0.90520  0.37821  0.45658  1.0000
  C   C621      1.0  0.88600  0.36596  0.45775  1.0000
  C   C622      1.0  0.87695  0.36179  0.49094  1.0000
  C   C623      1.0  0.88736  0.37016  0.52299  1.0000
  C   C624      1.0  0.90660  0.38218  0.52186  1.0000
  H   H995      1.0  0.91197  0.38112  0.43089  1.0000
  H   H996      1.0  0.87815  0.35958  0.43274  1.0000
  H   H997      1.0  0.88070  0.36707  0.54877  1.0000
  H   H998      1.0  0.91455  0.38823  0.54693  1.0000
  H   H999      1.0  0.79370  0.29767  0.49810  1.0000
  C   C625      1.0  0.72297  0.48691  0.49426  1.0000
  Fe  Fe130     1.0  0.80303  0.49469  0.44430  1.0000
  H   H1000     1.0  0.85631  0.42870  0.51419  1.0000
  H   H1001     1.0  0.76183  0.43320  0.44961  1.0000
  N   N62       1.0  0.75755  0.44036  0.50410  1.0000
  C   C626      1.0  0.77668  0.45551  0.50925  1.0000
  C   C627      1.0  0.98285  0.43165  0.54991  1.0000
  H   H1002     1.0  0.82358  0.31331  0.41911  1.0000
  H   H1003     1.0  0.77157  0.26666  0.52516  1.0000
  N   N63       1.0  0.86009  0.40574  0.48998  1.0000
  C   C628      1.0  0.85137  0.39346  0.52026  1.0000
  C   C629      1.0  0.85500  0.39439  0.45557  1.0000
  C   C630      1.0  0.88056  0.41471  0.49596  1.0000
  C   C631      1.0  0.85334  0.42030  0.48815  1.0000
  H   H1004     1.0  0.85637  0.38250  0.52283  1.0000
  H   H1005     1.0  0.83595  0.38617  0.51629  1.0000
  H   H1006     1.0  0.85445  0.40151  0.54672  1.0000
  C   C632      1.0  0.98091  0.49048  0.44500  1.0000
  H   H1007     1.0  0.74515  0.45915  0.51342  1.0000
  H   H1008     1.0  0.83963  0.38739  0.45031  1.0000
  H   H1009     1.0  0.88765  0.42419  0.47374  1.0000
  H   H1010     1.0  0.78404  0.31770  0.46199  1.0000
  Fe  Fe131     1.0  0.97772  0.45275  0.40683  1.0000
  H   H1011     1.0  0.86142  0.40316  0.43207  1.0000
  H   H1012     1.0  0.85975  0.38315  0.45621  1.0000
  C   C633      1.0  0.77797  0.28427  0.43182  1.0000
  N   N64       1.0  0.79621  0.30043  0.44050  1.0000
  H   H1013     1.0  0.72514  0.27897  0.50456  1.0000
  C   C634      1.0  0.80962  0.30137  0.41286  1.0000
  H   H1014     1.0  0.81153  0.28832  0.41162  1.0000
  H   H1015     1.0  0.77884  0.27071  0.43320  1.0000
  H   H1016     1.0  0.78828  0.31989  0.41439  1.0000
  C   C635      1.0  0.76172  0.49846  0.48348  1.0000
  H   H1017     1.0  0.77250  0.28502  0.40418  1.0000
  H   H1018     1.0  0.75287  0.45022  0.45292  1.0000
  C   C636      1.0  0.79391  0.31790  0.44096  1.0000
  Fe  Fe132     1.0  0.84260  0.49783  0.43379  1.0000
  H   H1019     1.0  0.81714  0.31027  0.48390  1.0000
  H   H1020     1.0  0.80519  0.28520  0.47743  1.0000
  H   H1021     1.0  0.76111  0.42480  0.54807  1.0000
  H   H1022     1.0  0.74798  0.44797  0.55302  1.0000
  H   H1023     1.0  0.99258  0.43209  0.52844  1.0000
  H   H1024     1.0  0.96315  0.44535  0.58774  1.0000
  C   C637      1.0  0.86503  0.48794  0.33288  1.0000
  C   C638      1.0  0.75226  0.43729  0.46495  1.0000
  H   H1025     1.0  0.72987  0.43492  0.51933  1.0000
  H   H1026     1.0  0.77789  0.46878  0.49766  1.0000
  C   C639      1.0  0.75738  0.26237  0.51535  1.0000
  H   H1027     1.0  0.74256  0.41117  0.51558  1.0000
  H   H1028     1.0  0.96926  0.42872  0.53608  1.0000
  C   C640      1.0  0.75683  0.42292  0.51874  1.0000
  S   S260      1.0  0.97325  0.47861  0.40277  1.0000
  Fe  Fe133     1.0  0.98318  0.42066  0.37590  1.0000
  H   H1029     1.0  0.78108  0.45857  0.53847  1.0000
  H   H1030     1.0  0.76640  0.41844  0.50436  1.0000
  H   H1031     1.0  0.73787  0.42600  0.45993  1.0000
  S   S261      1.0  0.97977  0.44458  0.46323  1.0000
  C   C641      1.0  0.73121  0.26920  0.50387  1.0000
  H   H1032     1.0  0.78687  0.45169  0.49571  1.0000
  H   H1033     1.0  0.98053  0.41944  0.56665  1.0000
  Fe  Fe134     1.0  0.81296  0.48363  0.36990  1.0000
  C   C642      1.0  0.72037  0.25067  0.48998  1.0000
  H   H1034     1.0  0.98203  0.46129  0.61708  1.0000
  S   S262      1.0  0.66448  0.46927  0.58328  1.0000
  N   N65       1.0  0.99026  0.44940  0.57199  1.0000
  H   H1035     1.0  0.95822  0.49804  0.44885  1.0000
  C   C643      1.0  0.97079  0.49878  0.46201  1.0000
  C   C644      1.0  0.99280  0.46509  0.54860  1.0000
  C   C645      1.0  0.73653  0.50061  0.51745  1.0000
  H   H1036     1.0  0.84853  0.32235  0.88832  1.0000
  Fe  Fe135     1.0  0.68080  0.49053  0.95266  1.0000
  H   H1037     1.0  0.87403  0.31387  0.90146  1.0000
  Fe  Fe136     1.0  0.78985  0.30873  0.96312  1.0000
  S   S263      1.0  0.78316  0.32356  0.91799  1.0000
  C   C646      1.0  0.74143  0.25659  0.96979  1.0000
  Fe  Fe137     1.0  0.83204  0.32891  0.94906  1.0000
  S   S264      1.0  0.82822  0.34482  0.90256  1.0000
  C   C647      1.0  0.87104  0.30647  0.87423  1.0000
  Fe  Fe138     1.0  0.80820  0.34953  0.93840  1.0000
  C   C648      1.0  0.67129  0.48760  0.77401  1.0000
  Fe  Fe139     1.0  0.80359  0.31805  0.88481  1.0000
  S   S265      1.0  0.79447  0.30783  0.82590  1.0000
  C   C649      1.0  0.66680  0.49914  0.70355  1.0000
  S   S266      1.0  0.80858  0.30128  0.92855  1.0000
  C   C650      1.0  0.84585  0.31461  0.86165  1.0000
  H   H1038     1.0  0.83260  0.28374  0.81820  1.0000
  Fe  Fe140     1.0  0.66505  0.48381  0.87384  1.0000
  S   S267      1.0  0.67487  0.48019  0.81745  1.0000
  C   C651      1.0  0.67533  0.48725  0.70823  1.0000
  H   H1039     1.0  0.84337  0.27365  0.89237  1.0000
  C   C652      1.0  0.72648  0.49445  0.99040  1.0000
  H   H1040     1.0  0.87999  0.31674  0.85471  1.0000
  H   H1041     1.0  0.84208  0.29252  0.91786  1.0000
  S   S268      1.0  0.80623  0.37689  0.93205  1.0000
  C   C653      1.0  0.84756  0.28933  0.82718  1.0000
  H   H1042     1.0  0.83078  0.30948  0.85407  1.0000
  H   H1043     1.0  0.73106  0.49687  0.82201  1.0000
  C   C654      1.0  0.83979  0.28562  0.89027  1.0000
  H   H1044     1.0  0.85399  0.32491  0.84142  1.0000
  H   H1045     1.0  0.77846  0.33475  0.84002  1.0000
  H   H1046     1.0  0.79688  0.38630  0.85313  1.0000
  H   H1047     1.0  0.85122  0.27734  0.82731  1.0000
  N   N66       1.0  0.85107  0.29899  0.86332  1.0000
  H   H1048     1.0  0.71044  0.46679  0.96636  1.0000
  H   H1049     1.0  0.85585  0.29904  0.80618  1.0000
  C   C655      1.0  0.67757  0.48156  0.74324  1.0000
  H   H1050     1.0  0.78158  0.35359  0.87159  1.0000
  C   C656      1.0  0.82211  0.32727  0.71645  1.0000
  C   C657      1.0  0.83262  0.33407  0.74931  1.0000
  C   C658      1.0  0.82431  0.32873  0.78307  1.0000
  C   C659      1.0  0.80548  0.31604  0.78432  1.0000
  C   C660      1.0  0.79495  0.30938  0.75151  1.0000
  C   C661      1.0  0.80313  0.31513  0.71778  1.0000
  H   H1051     1.0  0.84731  0.34347  0.74854  1.0000
  H   H1052     1.0  0.83256  0.33424  0.80795  1.0000
  H   H1053     1.0  0.78037  0.29957  0.75211  1.0000
  H   H1054     1.0  0.79490  0.30967  0.69277  1.0000
  H   H1055     1.0  0.68436  0.47253  0.74654  1.0000
  S   S269      1.0  0.66895  0.46504  0.91479  1.0000
  H   H1056     1.0  0.74752  0.26211  0.94429  1.0000
  H   H1057     1.0  0.89336  0.46529  0.95926  1.0000
  H   H1058     1.0  0.87993  0.44308  0.97898  1.0000
  H   H1059     1.0  0.87552  0.29509  0.87590  1.0000
  H   H1060     1.0  0.82462  0.27978  0.88306  1.0000
  C   C662      1.0  0.73814  0.47096  0.98344  1.0000
  H   H1061     1.0  0.97353  0.48769  0.85505  1.0000
  H   H1062     1.0  0.80496  0.39156  0.80785  1.0000
  H   H1063     1.0  0.73576  0.45698  0.97454  1.0000
  H   H1064     1.0  0.76497  0.34760  0.83411  1.0000
  H   H1065     1.0  0.71226  0.47726  0.87038  1.0000
  H   H1066     1.0  0.70108  0.49227  0.87598  1.0000
  C   C663      1.0  0.81000  0.40973  0.96486  1.0000
  H   H1067     1.0  0.68051  0.48271  0.68499  1.0000
  N   N67       1.0  0.79363  0.36237  0.81989  1.0000
  C   C664      1.0  0.81193  0.36366  0.83186  1.0000
  C   C665      1.0  0.78969  0.35574  0.78140  1.0000
  C   C666      1.0  0.79396  0.38106  0.82418  1.0000
  C   C667      1.0  0.77900  0.34899  0.84235  1.0000
  H   H1068     1.0  0.81563  0.36925  0.86042  1.0000
  H   H1069     1.0  0.82325  0.37305  0.81467  1.0000
  H   H1070     1.0  0.81188  0.34966  0.83054  1.0000
  H   H1071     1.0  0.77605  0.35473  0.77126  1.0000
  H   H1072     1.0  0.80063  0.36529  0.76364  1.0000
  H   H1073     1.0  0.78917  0.34157  0.77759  1.0000
  H   H1074     1.0  0.78037  0.38066  0.81548  1.0000
  C   C668      1.0  0.99317  0.48110  0.98007  1.0000
  S   S270      1.0  0.85941  0.32747  0.96280  1.0000
  S   S271      1.0  0.83365  0.33318  0.67477  1.0000
  H   H1075     1.0  0.80397  0.41175  0.93976  1.0000
  C   C669      1.0  0.71343  0.49024  0.88471  1.0000
  H   H1076     1.0  0.86732  0.47424  0.96664  1.0000
  H   H1077     1.0  0.71240  0.48773  0.91421  1.0000
  H   H1078     1.0  0.69997  0.26103  0.97787  1.0000
  C   C670      1.0  0.88953  0.36148  0.98844  1.0000
  H   H1079     1.0  0.74682  0.49090  0.87600  1.0000
  H   H1080     1.0  0.85379  0.45162  0.98528  1.0000
  C   C671      1.0  0.72374  0.47651  0.97866  1.0000
  C   C672      1.0  0.99334  0.50001  0.79514  1.0000
  C   C673      1.0  0.81262  0.39351  0.96873  1.0000
  H   H1081     1.0  0.99549  0.46907  0.98647  1.0000
  C   C674      1.0  0.86425  0.46631  0.99204  1.0000
  H   H1082     1.0  0.98143  0.48586  0.79079  1.0000
  H   H1083     1.0  0.81253  0.43551  0.99035  1.0000
  C   C675      1.0  0.97394  0.49758  0.98258  1.0000
  C   C676      1.0  0.88971  0.45806  0.98539  1.0000
  H   H1084     1.0  0.88088  0.36851  0.98309  1.0000
  S   S272      1.0  0.81370  0.33550  0.98647  1.0000
  C   C677      1.0  0.88228  0.34201  0.98121  1.0000
  C   C678      1.0  0.97693  0.48204  0.99089  1.0000
  C   C679      1.0  0.81489  0.42325  0.99350  1.0000
  H   H1085     1.0  0.88842  0.31826  0.98278  1.0000
  H   H1086     1.0  0.96149  0.49841  0.99123  1.0000
  C   C680      1.0  0.89376  0.33322  0.98811  1.0000
  H   H1087     1.0  0.89885  0.49472  0.99259  1.0000
  H   H1088     1.0  0.66684  0.27083  0.99225  1.0000
  H   H1089     1.0  0.96027  0.50003  0.80616  1.0000
  H   H1090     1.0  0.67730  0.25140  0.95507  1.0000
  H   H1091     1.0  0.97258  0.61583  0.04988  1.0000
  C   C681      1.0  0.82476  0.50286  0.19738  1.0000
  C   C682      1.0  0.97787  0.60515  0.05339  1.0000
  H   H1092     1.0  0.78164  0.51462  0.09070  1.0000
  H   H1093     1.0  0.99090  0.58136  0.02879  1.0000
  H   H1094     1.0  0.93047  0.54896  0.04286  1.0000
  S   S273      1.0  0.82527  0.51243  0.04825  1.0000
  C   C683      1.0  0.92269  0.54353  0.01740  1.0000
  S   S274      1.0  0.82985  0.51334  0.15446  1.0000
  H   H1095     1.0  0.89587  0.53213  0.04241  1.0000
  H   H1096     1.0  0.83183  0.52917  0.22635  1.0000
  N   N68       1.0  0.87088  0.50733  0.32133  1.0000
  C   C684      1.0  0.90303  0.53395  0.01726  1.0000
  H   H1097     1.0  0.89546  0.53369  0.32471  1.0000
  H   H1098     1.0  0.82375  0.51522  0.28688  1.0000
  H   H1099     1.0  0.89985  0.51336  0.32099  1.0000
  C   C685      1.0  0.82229  0.50634  0.26314  1.0000
  C   C686      1.0  0.82683  0.51420  0.22874  1.0000
  N   N69       1.0  0.99524  0.61001  0.03393  1.0000
  H   H1100     1.0  0.96664  0.59139  0.04295  1.0000
  H   H1101     1.0  0.98000  0.60399  0.08296  1.0000
  H   H1102     1.0  0.79584  0.50292  0.10029  1.0000
  H   H1103     1.0  0.79535  0.51971  0.13268  1.0000
  C   C687      1.0  0.78654  0.50831  0.11264  1.0000
  H   H1104     1.0  0.77160  0.51085  0.02383  1.0000
  C   C688      1.0  0.74386  0.50672  0.00683  1.0000
  H   H1105     1.0  0.87221  0.52148  0.27168  1.0000
  H   H1106     1.0  0.76676  0.51229  0.16697  1.0000
  H   H1107     1.0  0.75310  0.50703  0.12510  1.0000
  Fe  Fe141     1.0  0.84552  0.50255  0.02464  1.0000
  H   H1108     1.0  0.74619  0.52066  0.01591  1.0000
  C   C689      1.0  0.86868  0.50720  0.28139  1.0000
  H   H1109     1.0  0.87770  0.50186  0.26760  1.0000
  C   C690      1.0  0.75830  0.50118  0.01149  1.0000
  C   C691      1.0  0.75883  0.50096  0.14614  1.0000
  C   C692      1.0  0.99162  0.61124  0.99485  1.0000
  H   H1110     1.0  0.73225  0.50686  0.53952  1.0000
  H   H1111     1.0  0.98717  0.54770  0.42342  1.0000
  N   N70       1.0  0.95719  0.59303  0.63867  1.0000
  S   S275      1.0  0.82573  0.51043  0.40474  1.0000
  H   H1112     1.0  0.96854  0.51357  0.51012  1.0000
  H   H1113     1.0  0.96586  0.59725  0.58359  1.0000
  Fe  Fe142     1.0  0.97501  0.56694  0.53999  1.0000
  S   S276      1.0  0.94588  0.56563  0.53199  1.0000
  S   S277      1.0  0.98003  0.55424  0.59052  1.0000
  C   C693      1.0  0.93846  0.59149  0.62948  1.0000
  H   H1114     1.0  0.98459  0.60556  0.61739  1.0000
  S   S278      1.0  0.87447  0.50825  0.43574  1.0000
  C   C694      1.0  0.97658  0.50749  0.49665  1.0000
  H   H1115     1.0  0.92816  0.58312  0.64948  1.0000
  H   H1116     1.0  0.89255  0.51932  0.36306  1.0000
  C   C695      1.0  0.89059  0.51895  0.33292  1.0000
  H   H1117     1.0  0.86080  0.51578  0.36845  1.0000
  C   C696      1.0  0.92599  0.54891  0.50626  1.0000
  C   C697      1.0  0.90862  0.54920  0.50999  1.0000
  C   C698      1.0  0.89261  0.53660  0.48946  1.0000
  C   C699      1.0  0.89380  0.52368  0.46442  1.0000
  C   C700      1.0  0.91117  0.52339  0.46073  1.0000
  C   C701      1.0  0.92711  0.53577  0.48166  1.0000
  H   H1118     1.0  0.90754  0.55930  0.52878  1.0000
  H   H1119     1.0  0.87944  0.53713  0.49256  1.0000
  S   S279      1.0  0.67694  0.51199  0.55290  1.0000
  H   H1120     1.0  0.94030  0.53531  0.47840  1.0000
  H   H1121     1.0  0.93859  0.60553  0.62887  1.0000
  H   H1122     1.0  0.98830  0.51985  0.39686  1.0000
  C   C702      1.0  0.75571  0.50630  0.51209  1.0000
  C   C703      1.0  0.99260  0.50805  0.51398  1.0000
  C   C704      1.0  0.97029  0.60406  0.61120  1.0000
  H   H1123     1.0  0.95125  0.56652  0.61209  1.0000
  C   C705      1.0  0.95627  0.57407  0.63897  1.0000
  S   S280      1.0  0.99182  0.55699  0.50525  1.0000
  H   H1124     1.0  0.76598  0.51693  0.53023  1.0000
  H   H1125     1.0  0.94668  0.56536  0.65963  1.0000
  H   H1126     1.0  0.93327  0.58443  0.60217  1.0000
  S   S281      1.0  0.78621  0.50616  0.47826  1.0000
  H   H1127     1.0  0.91232  0.51347  0.44153  1.0000
  H   H1128     1.0  0.97127  0.61843  0.60996  1.0000
  H   H1129     1.0  0.97023  0.57480  0.64541  1.0000
  C   C706      1.0  0.85919  0.51518  0.33833  1.0000
  H   H1130     1.0  0.86288  0.52966  0.32972  1.0000
  H   H1131     1.0  0.84418  0.50649  0.33109  1.0000
  Fe  Fe143     1.0  0.97905  0.56408  0.94397  1.0000
  S   S282      1.0  0.98010  0.54489  0.89960  1.0000
  H   H1132     1.0  0.74433  0.53631  0.89046  1.0000
  C   C707      1.0  0.98714  0.51221  0.96360  1.0000
  C   C708      1.0  0.74694  0.50366  0.88941  1.0000
  H   H1133     1.0  0.98265  0.50997  0.87913  1.0000
  C   C709      1.0  0.73139  0.52355  0.89583  1.0000
  S   S283      1.0  0.86788  0.51503  0.98230  1.0000
  H   H1134     1.0  0.97518  0.52137  0.78485  1.0000
  H   H1135     1.0  0.73083  0.52197  0.92576  1.0000
  C   C710      1.0  0.92203  0.53910  0.95229  1.0000
  H   H1136     1.0  0.97681  0.54638  0.73565  1.0000
  H   H1137     1.0  0.92916  0.54111  0.92708  1.0000
  N   N71       1.0  0.73085  0.50671  0.87677  1.0000
  S   S284      1.0  0.98475  0.56183  0.80831  1.0000
  C   C711      1.0  0.98694  0.56086  0.73431  1.0000
  H   H1138     1.0  0.98482  0.52428  0.95806  1.0000
  C   C712      1.0  0.89272  0.52709  0.98452  1.0000
  H   H1139     1.0  0.89456  0.52449  0.92660  1.0000
  C   C713      1.0  0.99304  0.56836  0.70024  1.0000
  Fe  Fe144     1.0  0.99533  0.57060  0.86712  1.0000
  H   H1140     1.0  0.74682  0.50170  0.91926  1.0000
  H   H1141     1.0  0.96923  0.52215  0.83093  1.0000
  S   S285      1.0  0.70882  0.50230  0.98517  1.0000
  C   C714      1.0  0.90237  0.52970  0.95211  1.0000
  H   H1142     1.0  0.71931  0.52615  0.88721  1.0000
  H   H1143     1.0  0.97796  0.60370  0.68226  1.0000
  N   N72       1.0  0.98931  0.51136  0.82277  1.0000
  S   S286      1.0  0.67808  0.50963  0.91090  1.0000
  H   H1144     1.0  0.95437  0.59437  0.69641  1.0000
  S   S287      1.0  0.99223  0.58973  0.91046  1.0000
  H   H1145     1.0  0.74426  0.52180  0.82997  1.0000
  H   H1146     1.0  0.98777  0.55958  0.67580  1.0000
  S   S288      1.0  0.95712  0.55912  0.98682  1.0000
  C   C715      1.0  0.99376  0.57196  0.76653  1.0000
  C   C716      1.0  0.97275  0.51374  0.81059  1.0000
  C   C717      1.0  0.93233  0.54623  0.98495  1.0000
  H   H1147     1.0  0.76038  0.51578  0.88372  1.0000
  H   H1148     1.0  0.71918  0.51127  0.82692  1.0000
  C   C718      1.0  0.73144  0.50933  0.83719  1.0000
  H   H1149     1.0  0.98064  0.59775  0.98320  1.0000
  H   H1150     1.0  0.99612  0.50689  0.76855  1.0000
  H   H1151     1.0  0.98686  0.62221  0.98982  1.0000
  H   H1152     1.0  0.96474  0.61679  0.67576  1.0000
  C   C719      1.0  0.96380  0.60240  0.67488  1.0000
  C   C720      1.0  0.98566  0.50176  0.85758  1.0000
