data_image0
_chemical_formula_structural       FeS2FeS2FeSFeS3FeS2FeS2FeSFeS3FeS2FeS2FeSFeS3FeS2FeS2FeSFeS3FeS2FeS2FeSFeS3FeS2FeS2FeSFeS3FeS2FeS2FeSFeS3FeS2FeS2FeSFeS3FeS2FeS2FeSFeS3FeS2FeS2FeSFeS3FeS2FeS2FeSFeS3FeS2FeS2FeSFeS3C6H4C6H4C6H4C6H4C6H4C6H4C6H4C6H4C6H4C6H4C6H4C6H4C6H4C6H4C6H4C6H4C6H4C6H4C6H4C6H4C6H4C6H4C6H4C6H4NC4H12NC4H12NC4H12NC4H12NC4H12NC4H12NC4H12NC4H12NC4H12NC4H12NC4H12NC4H12NC4H12NC4H12NC4H12NC4H12NC4H12NC4H12NC4H12NC4H12NC4H12NC4H12NC4H12NC4H12
_chemical_formula_sum              "Fe48 S96 C240 H384 N24"
_cell_length_a       35.285720243546564
_cell_length_b       35.57020622459845
_cell_length_c       31.934757863161355
_cell_angle_alpha    90.89254756848148
_cell_angle_beta     89.9689319669021
_cell_angle_gamma    120.06488398790694

_space_group_name_H-M_alt    "P 1"
_space_group_IT_number       1

loop_
  _space_group_symop_operation_xyz
  'x, y, z'

loop_
  _atom_site_type_symbol
  _atom_site_label
  _atom_site_symmetry_multiplicity
  _atom_site_fract_x
  _atom_site_fract_y
  _atom_site_fract_z
  _atom_site_occupancy
  Fe  Fe1       1.0  0.07097116250054711  0.7496548817672962  0.9579312349576147  1.0000
  S   S1        1.0  0.01841883180012631  0.6871408099511065  0.9290459764851787  1.0000
  S   S2        1.0  0.10432707257777517  0.8134296076217747  0.922811491888661  1.0000
  Fe  Fe2       1.0  0.05462629484971734  0.7099176877272788  0.045651143162586984  1.0000
  S   S3        1.0  0.0004548333610741029  0.6448959268005484  0.02322329537952407  1.0000
  S   S4        1.0  0.08191785064690403  0.7200500467272172  0.1116268195847879  1.0000
  Fe  Fe3       1.0  0.04485970710266323  0.6540023957711133  0.9692892638182029  1.0000
  S   S5        1.0  0.061964865510061  0.6035232238335589  0.9468041659619586  1.0000
  Fe  Fe4       1.0  0.9787189595539151  0.6837244263661297  0.9855505171257803  1.0000
  S   S6        1.0  0.9077871954263755  0.6645300136390595  0.9751415248141867  1.0000
  S   S7        1.0  0.10086742956017034  0.7170857630105768  0.9938898160927688  1.0000
  S   S8        1.0  0.029417526767286654  0.7482371368168449  0.012312053944592005  1.0000
  Fe  Fe5       1.0  0.9864699538456236  0.3648024148032693  0.00995921675720779  1.0000
  S   S9        1.0  0.9380837321573622  0.2942334260447113  0.020801458376612736  1.0000
  S   S10       1.0  0.9570245357563831  0.40856856322147556  0.008330112860272187  1.0000
  Fe  Fe6       1.0  0.06263850451615993  0.34744428334277716  0.003955417047401433  1.0000
  S   S11       1.0  0.020063255276093317  0.2761926863936396  0.014502853165142549  1.0000
  S   S12       1.0  0.13329963247597437  0.3729620826534956  0.9868543314869193  1.0000
  Fe  Fe7       1.0  0.9729527237802904  0.27990447358773607  0.9695796617796483  1.0000
  S   S13       1.0  0.9510274459687574  0.23756820264405526  0.9102890081097904  1.0000
  Fe  Fe8       1.0  0.9897000181731381  0.29756539068831556  0.0644682084509237  1.0000
  S   S14       1.0  0.9698274916362442  0.26676059229739696  0.12787285349342137  1.0000
  S   S15       1.0  0.017840743871835995  0.35043791134242847  0.9558811632870247  1.0000
  S   S16       1.0  0.03578707792196042  0.3690505696311896  0.0571846386012526  1.0000
  Fe  Fe9       1.0  0.0743042261134066  0.343965868870161  0.3436071445931875  1.0000
  S   S17       1.0  0.00247978310921404  0.31879355430633755  0.349883120476505  1.0000
  S   S18       1.0  0.10428991871709814  0.35280328317017445  0.27922187065536086  1.0000
  Fe  Fe10      1.0  0.09045830350049747  0.35868086014505596  0.43799726912830894  1.0000
  S   S19       1.0  0.01936185270417209  0.3357188094396093  0.45054534074835484  1.0000
  S   S20       1.0  0.13505182121279516  0.3820084191168469  0.49563492183040747  1.0000
  Fe  Fe11      1.0  0.006057648819825179  0.2821838226321003  0.40449823712574373  1.0000
  S   S21       1.0  0.9573847224526978  0.2127707038036488  0.4211670956869688  1.0000
  Fe  Fe12      1.0  0.021984432090548425  0.3747104072994741  0.39489940805137635  1.0000
  S   S22       1.0  0.9830501610672278  0.40914778839444915  0.38628078598378873  1.0000
  S   S23       1.0  0.07706302484848641  0.3027090412353821  0.39492491329645274  1.0000
  S   S24       1.0  0.09410516768048258  0.40245672090156165  0.3856062229594459  1.0000
  Fe  Fe13      1.0  0.9582048864328365  0.6629667504480973  0.4269732408833877  1.0000
  S   S25       1.0  0.028080513486106816  0.6909317563895677  0.448344713963186  1.0000
  S   S26       1.0  0.9010893793284479  0.6310549569352732  0.47242558782109456  1.0000
  Fe  Fe14      1.0  0.9843724918863321  0.6718917877424567  0.33408186615914415  1.0000
  S   S27       1.0  0.05579083153117655  0.7001563669712292  0.34882915697657274  1.0000
  S   S28       1.0  0.9562582655004809  0.6620557519663435  0.2684177144643379  1.0000
  Fe  Fe15      1.0  0.032873900932221645  0.6487265811151248  0.3978044322827486  1.0000
  S   S29       1.0  0.07005991992735372  0.6134796727046834  0.41092176768407307  1.0000
  Fe  Fe16      1.0  0.04463613285146806  0.7396305349194928  0.3975178925808891  1.0000
  S   S30       1.0  0.08820972718463158  0.8120974816237931  0.40832790794102003  1.0000
  S   S31       1.0  0.962063739173336  0.6173059468748949  0.37952952646185634  1.0000
  S   S32       1.0  0.9742267612365993  0.714868041234638  0.3796465358487397  1.0000
  Fe  Fe17      1.0  0.3047580185223115  0.326155013936579  0.7260602907253983  1.0000
  S   S33       1.0  0.37590964211432304  0.3478776240921635  0.7205573710756586  1.0000
  S   S34       1.0  0.27461483327444036  0.31620845275951376  0.7906596876540248  1.0000
  Fe  Fe18      1.0  0.2927890282917858  0.32743371704005125  0.6303428550888239  1.0000
  S   S35       1.0  0.36424430078450665  0.35027741825656644  0.6189990560515785  1.0000
  S   S36       1.0  0.24652061820972646  0.303165754828354  0.5736587166485655  1.0000
  Fe  Fe19      1.0  0.3553237863415648  0.30068863295012993  0.6666917157738558  1.0000
  S   S37       1.0  0.3848885669799756  0.2576095130109175  0.6586927186088575  1.0000
  Fe  Fe20      1.0  0.37799749641396935  0.3954897836379141  0.6743140344525879  1.0000
  S   S38       1.0  0.4288951833162643  0.46631720397652715  0.6868876278227158  1.0000
  S   S39       1.0  0.28360995885673046  0.27518101267376516  0.6751108648025851  1.0000
  S   S40       1.0  0.307092764821481  0.3764429716115799  0.6824868892076801  1.0000
  Fe  Fe21      1.0  0.7695940310266262  0.6919446237648065  0.6346496042409799  1.0000
  S   S41       1.0  0.700585981854195  0.6701377959139607  0.6142870620291069  1.0000
  S   S42       1.0  0.8265790787371291  0.7262753183153055  0.5894339738651684  1.0000
  Fe  Fe22      1.0  0.7431027002060796  0.6769633609690735  0.7272418102973923  1.0000
  S   S43       1.0  0.6721501529226006  0.653498807693115  0.713642554518075  1.0000
  S   S44       1.0  0.770648878397466  0.6860208298657751  0.7929002116226509  1.0000
  Fe  Fe23      1.0  0.6803485986315518  0.6163950676265653  0.6604309682773303  1.0000
  S   S45       1.0  0.6293965242066347  0.5480087533900808  0.6401530491096404  1.0000
  Fe  Fe24      1.0  0.698126123130298  0.7090008306157366  0.6691284591027217  1.0000
  S   S46       1.0  0.6655367645370608  0.749317392508734  0.6605116211557638  1.0000
  S   S47       1.0  0.7499668315615052  0.6353331454454431  0.6771844001470294  1.0000
  S   S48       1.0  0.7684347044988412  0.7350717079746782  0.6863958871390783  1.0000
  Fe  Fe25      1.0  0.39730063691968803  0.40086388044535826  0.06480795870576869  1.0000
  S   S49       1.0  0.4275799416108798  0.3592672396589209  0.05248955596777535  1.0000
  S   S50       1.0  0.4259637554025751  0.47396326409931333  0.06562498772708995  1.0000
  Fe  Fe26      1.0  0.30539027123671775  0.3221388816391344  0.0718160888087071  1.0000
  S   S51       1.0  0.32773712696317525  0.27380618374337834  0.06015692965538133  1.0000
  S   S52       1.0  0.23608923994324338  0.3015376403659988  0.09093441562605831  1.0000
  Fe  Fe27      1.0  0.38363193006317714  0.3161586966136274  0.10364200221794884  1.0000
  S   S53       1.0  0.40821566929882686  0.29466433162752537  0.1592981479666151  1.0000
  Fe  Fe28      1.0  0.3692488751591737  0.3201410421192114  0.009895457938962515  1.0000
  S   S54       1.0  0.37811515054615336  0.29885626616196476  0.9450540943551698  1.0000
  S   S55       1.0  0.3581044672965259  0.3612858611762688  0.11903145227549457  1.0000
  S   S56       1.0  0.34236763582551033  0.364920681493299  0.018441607261505233  1.0000
  Fe  Fe29      1.0  0.7576736980280963  0.7454056663177809  0.06268804150138156  1.0000
  S   S57       1.0  0.736821361695408  0.7906905717606669  0.03638727259131882  1.0000
  S   S58       1.0  0.8282719289320839  0.7643874436807733  0.07496555516632045  1.0000
  Fe  Fe30      1.0  0.6641205922520935  0.6712553576990566  0.07305456972323665  1.0000
  S   S59       1.0  0.6356578257147143  0.7098503954583869  0.046866028216547624  1.0000
  S   S60       1.0  0.6295252290766343  0.6023866421291656  0.09712757804873232  1.0000
  Fe  Fe31      1.0  0.6889231775791533  0.7319808422590454  0.9988908838394743  1.0000
  S   S61       1.0  0.6744355414997333  0.7373930901920803  0.9311327706231527  1.0000
  Fe  Fe32      1.0  0.6856861804925447  0.7656633697733625  0.08675008595856391  1.0000
  S   S62       1.0  0.6580605492466919  0.8043066870534661  0.11913515205775016  1.0000
  S   S63       1.0  0.7131341479538215  0.6884507935419099  0.021686353044218842  1.0000
  S   S64       1.0  0.7105518597071181  0.725147424756324  0.11649861877041692  1.0000
  Fe  Fe33      1.0  0.2867452432436267  0.9319489902403764  0.7491730331043698  1.0000
  S   S65       1.0  0.32382442119391613  0.9941676763870048  0.7863621377954397  1.0000
  S   S66       1.0  0.2458746427744595  0.8652300628363906  0.7780452206076143  1.0000
  Fe  Fe34      1.0  0.3331850588630594  0.9763011960444861  0.6675849631366553  1.0000
  S   S67       1.0  0.3742798253927911  0.041205983445512656  0.6992781489664577  1.0000
  S   S68       1.0  0.34408202615199146  0.9663302143011756  0.5994683705391118  1.0000
  Fe  Fe35      1.0  0.38290053063183943  0.0036947545318350983  0.7506852296924189  1.0000
  S   S69       1.0  0.4464329486481209  0.026783266548250362  0.786426549412108  1.0000
  Fe  Fe36      1.0  0.3116319562797522  0.025608588297096627  0.7315030122952005  1.0000
  S   S70       1.0  0.28732048228784174  0.07284656218374398  0.7426940980486495  1.0000
  S   S71       1.0  0.3469101097080568  0.9398806948844768  0.7165645272063351  1.0000
  S   S72       1.0  0.2694877918386138  0.9623932761440243  0.6965443734212405  1.0000
  Fe  Fe37      1.0  0.7239393422890776  0.04232948082037604  0.6927458339373871  1.0000
  S   S73       1.0  0.6792780803080112  0.9710618375260507  0.7008665337702379  1.0000
  S   S74       1.0  0.7402638202514191  0.07237397958662908  0.6282389505564248  1.0000
  Fe  Fe38      1.0  0.7340706141878577  0.06072980950912502  0.7877971081633902  1.0000
  S   S75       1.0  0.6888522191438239  0.9898730376261852  0.8020857973875724  1.0000
  S   S76       1.0  0.7569479898708963  0.10986804969606326  0.8423383727462304  1.0000
  Fe  Fe39      1.0  0.7255219849238081  0.9768168882294973  0.7516355680423455  1.0000
  S   S77       1.0  0.7500056649143875  0.9293506464399169  0.7605675372122324  1.0000
  Fe  Fe40      1.0  0.6464534793926667  0.9905798213038199  0.7498708950588333  1.0000
  S   S78       1.0  0.5723922925667522  0.9524534796223677  0.7433058166839466  1.0000
  S   S79       1.0  0.77356875422792  0.04759885877831896  0.7405432676755216  1.0000
  S   S80       1.0  0.6885577182675939  0.06196156166495867  0.7388543784335193  1.0000
  Fe  Fe41      1.0  0.30929281846405815  0.9892179684785172  0.3256356592071447  1.0000
  S   S81       1.0  0.28229883705601827  0.03285404794491458  0.34108951987257813  1.0000
  S   S82       1.0  0.2679709830968601  0.9169787680667993  0.31264901371722953  1.0000
  Fe  Fe42      1.0  0.4040280369633773  0.06359287264311657  0.3310830426505459  1.0000
  S   S83       1.0  0.3835992793906208  0.11279471571502662  0.34756730903731353  1.0000
  S   S84       1.0  0.477087717262768  0.09003543025886655  0.32474583176911054  1.0000
  Fe  Fe43      1.0  0.33551057151644076  0.061191833086749976  0.39042939186873354  1.0000
  S   S85       1.0  0.3205271078951453  0.07487094756865252  0.45646179159020733  1.0000
  Fe  Fe44      1.0  0.3328673949127793  0.08009249237382696  0.2966223196876403  1.0000
  S   S86       1.0  0.3131376382312169  0.10771159433213277  0.2419691879652795  1.0000
  S   S87       1.0  0.3595074296958623  0.014429022575831452  0.3773596262136272  1.0000
  S   S88       1.0  0.3562474959248028  0.03397619113794992  0.27775274399467625  1.0000
  Fe  Fe45      1.0  0.6259050435693934  0.9860838051417706  0.3223857723475311  1.0000
  S   S89       1.0  0.633505557977635  0.931947583000399  0.3488385462636931  1.0000
  S   S90       1.0  0.5568450738805184  0.9658136940406287  0.30131915303367307  1.0000
  Fe  Fe46      1.0  0.721602643301852  0.0524936590554536  0.34006272262240916  1.0000
  S   S91       1.0  0.7352583227934737  0.00365703969796094  0.36959674166825063  1.0000
  S   S92       1.0  0.7731803083702969  0.12179203324116879  0.3270283756465509  1.0000
  Fe  Fe47      1.0  0.6972716217637535  0.9606738871592168  0.31452619093512646  1.0000
  S   S93       1.0  0.7302544439101444  0.92750183546166  0.2814935229330282  1.0000
  Fe  Fe48      1.0  0.6704071280392896  0.9799425502503198  0.40078476989697925  1.0000
  S   S94       1.0  0.6496148111212833  0.9545602813369916  0.4661665431329518  1.0000
  S   S95       1.0  0.6867051084954267  0.01087915483582913  0.28345542888239145  1.0000
  S   S96       1.0  0.6596640400838583  0.0325974032438034  0.3759999200509737  1.0000
  C   C1        1.0  0.4986244999464253  0.05497987108323727  0.3181853721542555  1.0000
  C   C2        1.0  0.4715505408331504  0.010686923920678604  0.3092474050730254  1.0000
  C   C3        1.0  0.4899684731282498  0.9839054783783852  0.3032199495007076  1.0000
  C   C4        1.0  0.5354091356983564  0.0010383091257739618  0.30679098298152513  1.0000
  C   C5        1.0  0.5624492097579513  0.04529986976178725  0.3159205064754181  1.0000
  C   C6        1.0  0.5440913037880662  0.07218832658823793  0.3213593032355169  1.0000
  H   H1        1.0  0.43649065509012963  0.9971327129158439  0.3065485263987567  1.0000
  H   H2        1.0  0.4688715156428006  0.9496875596100546  0.296078275746633  1.0000
  H   H3        1.0  0.597508485642719  0.05885708024985791  0.3185638554032277  1.0000
  H   H4        1.0  0.5652368372744438  0.10647156704123356  0.3281407360379903  1.0000
  C   C7        1.0  0.7155039961066021  0.03934255799553876  0.5831013524372083  1.0000
  C   C8        1.0  0.727925431389699  0.05727271136182582  0.5430971886764451  1.0000
  C   C9        1.0  0.7082157351395136  0.03170830420022933  0.5067976963055894  1.0000
  C   C10       1.0  0.6757506680472712  0.9880746291362767  0.5104070507518528  1.0000
  C   C11       1.0  0.6628525420158856  0.9704251979279469  0.5503155187976795  1.0000
  C   C12       1.0  0.6826672904536132  0.995852463648225  0.5864193186101048  1.0000
  H   H5        1.0  0.7531599373445745  0.09094390208587237  0.5401358625622966  1.0000
  H   H6        1.0  0.7183624362307139  0.04569684116423821  0.4761289897188289  1.0000
  H   H7        1.0  0.6377658263621229  0.936714357040772  0.5533610884644286  1.0000
  H   H8        1.0  0.6723994223562225  0.9815822914006241  0.6167099787508643  1.0000
  C   C13       1.0  0.3411877624920131  0.000886002275967801  0.5621970513509406  1.0000
  C   C14       1.0  0.3610802671163784  0.004961669877581842  0.5232624305222963  1.0000
  C   C15       1.0  0.35643032712145944  0.029168308970199952  0.49145752837134216  1.0000
  C   C16       1.0  0.33072861493008393  0.04846105627819772  0.49775086415585973  1.0000
  C   C17       1.0  0.3115761566429403  0.04526732105433985  0.537097958813257  1.0000
  C   C18       1.0  0.3169612334156757  0.021703780066713148  0.5693572190330771  1.0000
  H   H9        1.0  0.38015490958811576  0.9892667722327493  0.517636313601903  1.0000
  H   H10       1.0  0.3727653301022083  0.03278169574000689  0.462067103822883  1.0000
  H   H11       1.0  0.2916582368130918  0.06008161072051451  0.5423953222399263  1.0000
  H   H12       1.0  0.3013832092720762  0.018611493654859267  0.5993186800062799  1.0000
  C   C19       1.0  0.482249375746977  0.007567535993615149  0.7725506928498334  1.0000
  C   C20       1.0  0.47014564708826945  0.9741470426188744  0.7428142034697262  1.0000
  C   C21       1.0  0.49780979031697986  0.9570994929427263  0.7348088246874492  1.0000
  C   C22       1.0  0.5385319035117491  0.9744422274706745  0.755203750067385  1.0000
  C   C23       1.0  0.5513081214043745  0.008761367184364044  0.7840328186118708  1.0000
  C   C24       1.0  0.5229905413356739  0.024933448679506087  0.7929833717464404  1.0000
  H   H13       1.0  0.43912898656839056  0.9608668322073001  0.7265135748935446  1.0000
  H   H14       1.0  0.48777119162792754  0.9305636964827628  0.7124328951171944  1.0000
  H   H15       1.0  0.5826220627450721  0.022287277435261155  0.7999830433310345  1.0000
  H   H16       1.0  0.5325947465969179  0.05083145933432465  0.8160319673185991  1.0000
  C   C25       1.0  0.6790120733528937  0.8385840897117518  0.16417897103867063  1.0000
  C   C26       1.0  0.6558136980832483  0.8580946319044612  0.1804208694289174  1.0000
  C   C27       1.0  0.6708796857637276  0.885175900767888  0.21644019495993208  1.0000
  C   C28       1.0  0.7093951413012854  0.8930014093387219  0.2365842923039166  1.0000
  C   C29       1.0  0.7325116420220776  0.8733399215241388  0.2204368575177723  1.0000
  C   C30       1.0  0.7173715124336502  0.8461421266023482  0.18447108810949872  1.0000
  H   H17       1.0  0.6261000115410674  0.8524493550078774  0.16493383250010932  1.0000
  H   H18       1.0  0.6528022617518339  0.90013329251602  0.22848371622656208  1.0000
  H   H19       1.0  0.7623666463361595  0.8792406373989732  0.23581238645379643  1.0000
  H   H20       1.0  0.7355765462850847  0.8313812473278377  0.1723088158052045  1.0000
  C   C31       1.0  0.4829033992920959  0.5089387183620413  0.07306739168712566  1.0000
  C   C32       1.0  0.5013597008258522  0.5534272876316256  0.06497085481779753  1.0000
  C   C33       1.0  0.5464352077438257  0.5822756588388356  0.07132449312812124  1.0000
  C   C34       1.0  0.5732307545207682  0.5669051865756051  0.08658045854546402  1.0000
  C   C35       1.0  0.5547123453959912  0.5225056693925031  0.09499537684948979  1.0000
  C   C36       1.0  0.5097924639693999  0.4935256487196123  0.0879129916531168  1.0000
  H   H21       1.0  0.4807898784891727  0.5655581617215124  0.05335482849986652  1.0000
  H   H22       1.0  0.5603180233888768  0.6163537716552424  0.06461130222100338  1.0000
  H   H23       1.0  0.5751586152322993  0.5103648461989987  0.10694349786019511  1.0000
  H   H24       1.0  0.4958937075810595  0.4593680021237142  0.09444560615767932  1.0000
  C   C37       1.0  0.3822077339395662  0.24226864562042597  0.18135954354587744  1.0000
  C   C38       1.0  0.3500522302780329  0.20581608646056038  0.15953428947096268  1.0000
  C   C39       1.0  0.3295796596434689  0.16481670154067848  0.17847292113971722  1.0000
  C   C40       1.0  0.3412147938177237  0.1597744290413165  0.2192593366315339  1.0000
  C   C41       1.0  0.3736457970932666  0.19618651016113794  0.2409586499077016  1.0000
  C   C42       1.0  0.3942074463024777  0.23715857865189865  0.2219530052026564  1.0000
  H   H25       1.0  0.3413189929139632  0.20917309673867732  0.12791022356374723  1.0000
  H   H26       1.0  0.3046090521313679  0.13677189252968566  0.16139621949321253  1.0000
  H   H27       1.0  0.3822303127460209  0.19298390557269707  0.27269446811994863  1.0000
  H   H28       1.0  0.41904110180529597  0.26525332902741244  0.2390833985234901  1.0000
  C   C43       1.0  0.7272747031583898  0.8806744378954426  0.7305754501715028  1.0000
  C   C44       1.0  0.6898481504866171  0.8668357153464993  0.7056639806074296  1.0000
  C   C45       1.0  0.6712919051391727  0.8266524798151365  0.6840167604092322  1.0000
  C   C46       1.0  0.6897055758968472  0.7998484538024133  0.6875587009163084  1.0000
  C   C47       1.0  0.7271785251724193  0.8137780040403891  0.7123959596260324  1.0000
  C   C48       1.0  0.7461367128926284  0.8542040203293847  0.7334126766980855  1.0000
  H   H29       1.0  0.6748183568379936  0.8867509923894697  0.7034392890912174  1.0000
  H   H30       1.0  0.642298004193894  0.8161724804019034  0.6648797964390284  1.0000
  H   H31       1.0  0.7412529981150247  0.7932150062551021  0.7160615882340753  1.0000
  H   H32       1.0  0.7750182205700833  0.8645913886932699  0.7527043356758091  1.0000
  C   C49       1.0  0.7442366058897643  0.7008703495295397  0.8311657543710524  1.0000
  C   C50       1.0  0.7565537231341487  0.7040703464534015  0.8734275357175332  1.0000
  C   C51       1.0  0.7354328257689928  0.7153293417774161  0.9043910432706989  1.0000
  C   C52       1.0  0.7016871159170728  0.7231732823364125  0.8932427358816591  1.0000
  C   C53       1.0  0.6897113202446667  0.7204040925359197  0.8509717971398616  1.0000
  C   C54       1.0  0.7111058221603873  0.709607031337981  0.820016233215643  1.0000
  H   H33       1.0  0.7823247140565625  0.6976210238964187  0.8822392490061364  1.0000
  H   H34       1.0  0.7454235527257232  0.7180678962562339  0.9367662401618072  1.0000
  H   H35       1.0  0.6636622207426265  0.726395047447727  0.8420782653644794  1.0000
  H   H36       1.0  0.701907712817162  0.7080258010550667  0.7875520710034065  1.0000
  C   C55       1.0  0.35736343444192387  0.20623268684949841  0.6818886433723043  1.0000
  C   C56       1.0  0.31645318726460353  0.19088261384973343  0.7004977344488065  1.0000
  C   C57       1.0  0.29453323256400177  0.14923324395426057  0.7176478051313789  1.0000
  C   C58       1.0  0.31370967947417633  0.12294492295093523  0.7169924662893482  1.0000
  C   C59       1.0  0.35455258214482616  0.13824152610626214  0.698260695328671  1.0000
  C   C60       1.0  0.3762088026540256  0.17968725187824944  0.680569879157253  1.0000
  H   H37       1.0  0.3015910570455492  0.2109509429436732  0.7017639206615288  1.0000
  H   H38       1.0  0.26281326420243334  0.13755571135956635  0.7318727734337125  1.0000
  H   H39       1.0  0.36984462517329403  0.11852435373591028  0.6978615922689062  1.0000
  H   H40       1.0  0.4078204055696886  0.19131105170193527  0.6661116626841194  1.0000
  C   C61       1.0  0.3496988257562811  0.3050894492386762  0.9027217171085192  1.0000
  C   C62       1.0  0.3139871112599218  0.31135106735217044  0.9090278810444699  1.0000
  C   C63       1.0  0.2910330437262154  0.31449592937884563  0.87447476783239  1.0000
  C   C64       1.0  0.3035792432809033  0.3113768117030343  0.8334380486012402  1.0000
  C   C65       1.0  0.339321205698929  0.30514806629853375  0.8272247897886335  1.0000
  C   C66       1.0  0.3624018586641211  0.3022634612661377  0.8617069253559195  1.0000
  H   H41       1.0  0.30349763333578256  0.31296322797180254  0.9404675118733844  1.0000
  H   H42       1.0  0.26338387902792165  0.31923742592501997  0.8795681679583554  1.0000
  H   H43       1.0  0.3487986088633906  0.30187324455865827  0.7958720606750784  1.0000
  H   H44       1.0  0.39012058691044654  0.2976379912168417  0.8566222761056829  1.0000
  C   C67       1.0  0.484859958289321  0.4865328046987119  0.6763490159874516  1.0000
  C   C68       1.0  0.5160168272050699  0.5266734766938842  0.6941163306335854  1.0000
  C   C69       1.0  0.5607168960573746  0.54493616301686  0.6847332934711574  1.0000
  C   C70       1.0  0.5744472922079157  0.523650328000777  0.6567118619667004  1.0000
  C   C71       1.0  0.5433716344916387  0.4830855958143756  0.6396269550677173  1.0000
  C   C72       1.0  0.49872584227187805  0.4643954514308026  0.6496174296223586  1.0000
  H   H45       1.0  0.5055441937211032  0.543872481478329  0.7149992327324904  1.0000
  H   H46       1.0  0.5844597254798836  0.5757687076213247  0.6986148006528876  1.0000
  H   H47       1.0  0.5537994199096826  0.46633513765212425  0.618051915258354  1.0000
  H   H48       1.0  0.47498307765542425  0.4334234719933473  0.6357774998556565  1.0000
  C   C73       1.0  0.13724030255278358  0.8404895202456412  0.38026310810941294  1.0000
  C   C74       1.0  0.159641433260333  0.8860333443507412  0.3812573148474283  1.0000
  C   C75       1.0  0.19960046478383317  0.9097869001386071  0.36032214374317345  1.0000
  C   C76       1.0  0.21736085673815755  0.8881248982989041  0.33817656115498856  1.0000
  C   C77       1.0  0.19458605178655744  0.8425495120200369  0.33659800901773745  1.0000
  C   C78       1.0  0.15469096335372473  0.8187510690775909  0.35772009486610307  1.0000
  H   H49       1.0  0.14613616640346164  0.9030399600872098  0.39842645985362823  1.0000
  H   H50       1.0  0.21668055958539123  0.9448451387799929  0.36144343298853154  1.0000
  H   H51       1.0  0.2082545159810817  0.8256129249962846  0.319565396611038  1.0000
  H   H52       1.0  0.1380132963253777  0.78367561416062  0.35721313261753623  1.0000
  C   C79       1.0  0.8810161671100912  0.6583594428592081  0.5046348062377647  1.0000
  C   C80       1.0  0.899627104302132  0.703554672199485  0.5046468578679693  1.0000
  C   C81       1.0  0.8826348052603128  0.7238255922473102  0.5308216064799898  1.0000
  C   C82       1.0  0.8469533480428999  0.6992180160788362  0.557248530047888  1.0000
  C   C83       1.0  0.8283951880678799  0.6540416735899148  0.5572574664406091  1.0000
  C   C84       1.0  0.845365459241982  0.6337800408136668  0.5310828120605281  1.0000
  H   H53       1.0  0.92706979564704  0.7228806483883599  0.48450304815386347  1.0000
  H   H54       1.0  0.8972892666005103  0.7587745336194236  0.5305934583536679  1.0000
  H   H55       1.0  0.8009301157961054  0.634684640860143  0.5773785717024039  1.0000
  H   H56       1.0  0.830648253326575  0.5988184970377277  0.5312841449005032  1.0000
  C   C85       1.0  0.9060725911411387  0.1876364608636151  0.39509469514162715  1.0000
  C   C86       1.0  0.8744491536409958  0.1447856020825679  0.40467554472883377  1.0000
  C   C87       1.0  0.833347153983989  0.12423322356582472  0.3843519501204325  1.0000
  C   C88       1.0  0.8237604496152776  0.14641048537981152  0.3541479996667096  1.0000
  C   C89       1.0  0.8554199434671055  0.18911610794283626  0.3444788823129196  1.0000
  C   C90       1.0  0.8963158549239577  0.20969344045988778  0.3649505318712104  1.0000
  H   H57       1.0  0.881620906305289  0.1275082504177976  0.42806733041028233  1.0000
  H   H58       1.0  0.8091117249890737  0.09143193575107966  0.3923100117135532  1.0000
  H   H59       1.0  0.8481828565265  0.2065046936307079  0.3212572165266028  1.0000
  H   H60       1.0  0.9200921582954363  0.24268182982350964  0.35748730995987854  1.0000
  C   C91       1.0  0.00833757632861752  0.46610357995393037  0.3921427284430668  1.0000
  C   C92       1.0  0.9852176705060056  0.48688669132724  0.3801085837349612  1.0000
  C   C93       1.0  0.004177958745607209  0.5321858472751316  0.38481076018081  1.0000
  C   C94       1.0  0.04609924656984665  0.5569033534677956  0.4022991182614683  1.0000
  C   C95       1.0  0.06927611435104852  0.5361210370626394  0.41407000815913986  1.0000
  C   C96       1.0  0.050581600189668396  0.4908872040340943  0.4088292394747504  1.0000
  H   H61       1.0  0.9525630376188062  0.4678916737987636  0.3670262131365549  1.0000
  H   H62       1.0  0.9864498189625804  0.5479829602768398  0.3748602104716817  1.0000
  H   H63       1.0  0.10179022184834441  0.5550707086402586  0.42751912670979825  1.0000
  H   H64       1.0  0.06865851832157577  0.4751975062182563  0.4182651308805465  1.0000
  C   C97       1.0  0.16667459220037792  0.3602451100762723  0.516131653143049  1.0000
  C   C98       1.0  0.16748198422939928  0.3250226142477398  0.4969985822797266  1.0000
  C   C99       1.0  0.1920379017141827  0.30797984762560154  0.5150936058090074  1.0000
  C   C100      1.0  0.2163729344142601  0.3261556876216487  0.5522302176519762  1.0000
  C   C101      1.0  0.21561263830212982  0.36142991494206905  0.5713056267663245  1.0000
  C   C102      1.0  0.19078112724554586  0.37825468951123525  0.553373748539586  1.0000
  H   H65       1.0  0.14953535074421587  0.31117311207971554  0.4680996918525707  1.0000
  H   H66       1.0  0.19257257790323504  0.2808164404503117  0.500005268933369  1.0000
  H   H67       1.0  0.23412780016534201  0.37573560045904675  0.5998597922971471  1.0000
  H   H68       1.0  0.19040323885027274  0.40553998361021387  0.5683962768248997  1.0000
  C   C103      1.0  0.008282246432804063  0.28980564405609066  0.16915063938370645  1.0000
  C   C104      1.0  0.9952775822833727  0.2748141751658468  0.20992305252952784  1.0000
  C   C105      1.0  0.024750504264637208  0.29342428136844356  0.24370879673646784  1.0000
  C   C106      1.0  0.06747830625482164  0.3272128257376859  0.236979913752871  1.0000
  C   C107      1.0  0.08073032021823663  0.34180921610070286  0.19610517464144087  1.0000
  C   C108      1.0  0.051197790207918786  0.3232403330846716  0.16225531261782722  1.0000
  H   H69       1.0  0.9622733562587342  0.248682829704781  0.2154001060768868  1.0000
  H   H70       1.0  0.01455403826449686  0.2810492528164867  0.27483378997132835  1.0000
  H   H71       1.0  0.11381652433718333  0.36774729333632294  0.1906565088511774  1.0000
  H   H72       1.0  0.06170085928730475  0.33464533816576203  0.13087780320135003  1.0000
  C   C109      1.0  0.16083501609699755  0.35195772612883497  0.015570037745582743  1.0000
  C   C110      1.0  0.20090026294466248  0.3579304039157879  0.0009234217332398931  1.0000
  C   C111      1.0  0.22378646739385502  0.34183939843275607  0.023405409076262984  1.0000
  C   C112      1.0  0.2069218413019358  0.3199958921918187  0.06088531786326789  1.0000
  C   C113      1.0  0.16656230333440042  0.3135792918204253  0.0752743524330161  1.0000
  C   C114      1.0  0.1434585482763649  0.32938094701552195  0.05260530503805083  1.0000
  H   H73       1.0  0.21426313081037096  0.37500188263105644  0.9720406562982207  1.0000
  H   H74       1.0  0.2543451960785363  0.3462445098635848  0.011561558937756233  1.0000
  H   H75       1.0  0.15318987320019567  0.2966145441750118  0.10420540289042375  1.0000
  H   H76       1.0  0.11250218177711388  0.3245586680511977  0.06414543422674066  1.0000
  C   C115      1.0  0.8967301259240796  0.2006551506274725  0.8930271111605719  1.0000
  C   C116      1.0  0.8601134454514167  0.19380078569537929  0.9159931780651036  1.0000
  C   C117      1.0  0.8176230813368185  0.16583450096475252  0.9000135242239334  1.0000
  C   C118      1.0  0.8111983895358499  0.1437081864183786  0.8614069946458307  1.0000
  C   C119      1.0  0.8478403080914031  0.15010060042611537  0.8387558484713681  1.0000
  C   C120      1.0  0.8903525437538286  0.178636635006351  0.8544018045219492  1.0000
  H   H77       1.0  0.8644044075656844  0.2096933271102748  0.9461626795024392  1.0000
  H   H78       1.0  0.7894445432860042  0.16082583139331047  0.9178792504654262  1.0000
  H   H79       1.0  0.8433757528073738  0.13338744298512245  0.8089823196799834  1.0000
  H   H80       1.0  0.9184062372411688  0.1836479062478619  0.8363552860204764  1.0000
  C   C121      1.0  0.8871010469545123  0.6938740724256426  0.002253959879301215  1.0000
  C   C122      1.0  0.8471219736745049  0.6896173653635915  0.9893417682314952  1.0000
  C   C123      1.0  0.8295610392821242  0.7122379186800073  0.010578756750016183  1.0000
  C   C124      1.0  0.8513056535416407  0.738469118733514  0.04552695354001398  1.0000
  C   C125      1.0  0.8914594481901614  0.7429718785990412  0.05823595026567323  1.0000
  C   C126      1.0  0.909430661111654  0.7208893559491893  0.03657679385471742  1.0000
  H   H81       1.0  0.8297388677370727  0.6689360704070354  0.9626663594712052  1.0000
  H   H82       1.0  0.7993335917545726  0.7095061008783647  0.9997082579968838  1.0000
  H   H83       1.0  0.90851601263987  0.7632741506153511  0.08520893021224911  1.0000
  H   H84       1.0  0.9401162963502984  0.7241778728801392  0.04698533922046727  1.0000
  C   C127      1.0  0.045864843325721515  0.7014391967030674  0.15425500088399188  1.0000
  C   C128      1.0  0.062256668160093606  0.7001712351903503  0.1938796594466642  1.0000
  C   C129      1.0  0.03477779617765498  0.6870000701470254  0.228909771267763  1.0000
  C   C130      1.0  0.9908074096484408  0.6754440041915662  0.2246063788482145  1.0000
  C   C131      1.0  0.974194171923906  0.6757750742932023  0.1847554644404511  1.0000
  C   C132      1.0  0.0016099460271010724  0.688611946901393  0.14957835308711773  1.0000
  H   H85       1.0  0.09645162374446269  0.7098461378583112  0.19761336029200094  1.0000
  H   H86       1.0  0.04770708386294402  0.6860361866209671  0.25923680305269536  1.0000
  H   H87       1.0  0.9401457710735824  0.6667274301789757  0.18121054906360196  1.0000
  H   H88       1.0  0.9887074958883985  0.6894682229798246  0.11908332442970844  1.0000
  C   C133      1.0  0.03289377016524792  0.5497188548206127  0.9649671986341914  1.0000
  C   C134      1.0  0.9922334821784526  0.5334996540124733  0.9843505187482322  1.0000
  C   C135      1.0  0.969482082117055  0.4902191146826709  0.9977307335484759  1.0000
  C   C136      1.0  0.9874516944298418  0.4630616282686902  0.992385863953194  1.0000
  C   C137      1.0  0.02851279261817541  0.47951042612814043  0.9738015867781697  1.0000
  C   C138      1.0  0.050992297908620435  0.5226386102958934  0.9598855148212112  1.0000
  H   H89       1.0  0.9777859258199642  0.5539237358805731  0.987998193134286  1.0000
  H   H90       1.0  0.9376056341502321  0.4775962477384792  0.011896262268296542  1.0000
  H   H91       1.0  0.04263687198771382  0.4588547388765112  0.969505829642068  1.0000
  H   H92       1.0  0.08246171356544398  0.5350428739925724  0.9449093613193345  1.0000
  C   C139      1.0  0.1446099447610402  0.8275197055059974  0.883501459270338  1.0000
  C   C140      1.0  0.15598371266353994  0.7976729630595221  0.8675823533239981  1.0000
  C   C141      1.0  0.1871352985034001  0.8098271403753937  0.8353890708463935  1.0000
  C   C142      1.0  0.20739309085692342  0.8519161999738574  0.8189596067031123  1.0000
  C   C143      1.0  0.19650981636141018  0.8819630376352046  0.8352829257509197  1.0000
  C   C144      1.0  0.1651137025655039  0.8697066280361614  0.8672599948550689  1.0000
  H   H93       1.0  0.14036075032882409  0.7650732847930071  0.879670142612916  1.0000
  H   H94       1.0  0.19517953680535644  0.786283834202661  0.8228411941208953  1.0000
  H   H95       1.0  0.2117753771345291  0.9144179169400376  0.8228927571385978  1.0000
  H   H96       1.0  0.1565107115771802  0.893003939000378  0.8793617065234718  1.0000
  N   N1        1.0  0.3580943150492439  0.8876170373418586  0.8414856726520268  1.0000
  C   C145      1.0  0.3995125131755452  0.9051776006706883  0.8180290971744668  1.0000
  C   C146      1.0  0.3251169956840321  0.8456129123762097  0.8224131160178878  1.0000
  C   C147      1.0  0.3418854349553937  0.9186052426814311  0.8396672808595885  1.0000
  C   C148      1.0  0.3657553281775022  0.8813003850656695  0.8856288111266825  1.0000
  H   H97       1.0  0.42487989793820835  0.9374169216728352  0.8309210558536101  1.0000
  H   H98       1.0  0.39451895752611477  0.9100204922994382  0.7845639302989413  1.0000
  H   H99       1.0  0.4132267439364614  0.8830388295527243  0.8188283882500671  1.0000
  H   H100      1.0  0.3356370269398654  0.8209683169467558  0.8238709814209867  1.0000
  H   H101      1.0  0.2928619837489851  0.8322653638393843  0.8383027214892971  1.0000
  H   H102      1.0  0.3191339093682469  0.8492972086945383  0.7888371035658162  1.0000
  H   H103      1.0  0.3661403542383138  0.9511145375507274  0.8528659037563188  1.0000
  H   H104      1.0  0.31043385004009255  0.9065678640562912  0.856723673383375  1.0000
  H   H105      1.0  0.33539078623366514  0.9233794316368404  0.8067876010051857  1.0000
  H   H106      1.0  0.3781321532741725  0.8581416345695538  0.8881862902256668  1.0000
  H   H107      1.0  0.33499497618692253  0.8681459236470098  0.9040402935746783  1.0000
  H   H108      1.0  0.3903626749028582  0.912541837129917  0.9008126806263331  1.0000
  N   N2        1.0  0.2974747193050467  0.45961732127789606  0.09423052516922795  1.0000
  C   C149      1.0  0.3383180503165754  0.4949824583207556  0.07644056321684188  1.0000
  C   C150      1.0  0.2883464458462949  0.4741486350743064  0.13467281958081148  1.0000
  C   C151      1.0  0.30260541688954445  0.4214178017341932  0.1009974719711342  1.0000
  C   C152      1.0  0.26068457254376826  0.44774136129264075  0.06481784780087148  1.0000
  H   H109      1.0  0.3356243050043669  0.5242124553108647  0.07010268018958084  1.0000
  H   H110      1.0  0.346738727653738  0.4845197313907608  0.04644446656201954  1.0000
  H   H111      1.0  0.3667576001318357  0.5049462683125687  0.09797579338420942  1.0000
  H   H112      1.0  0.25750804700884616  0.44815097759590317  0.14866792959158634  1.0000
  H   H113      1.0  0.3152621612418848  0.48278867781612794  0.15774646578957152  1.0000
  H   H114      1.0  0.28466840989084896  0.5032127626959919  0.13087550861870312  1.0000
  H   H115      1.0  0.27292350557041617  0.39431719696908335  0.11543175448294551  1.0000
  H   H116      1.0  0.33114583739683756  0.4296371096678091  0.12178483536934016  1.0000
  H   H117      1.0  0.30817906076196355  0.4087918921169018  0.0709612092138372  1.0000
  H   H118      1.0  0.26718830960418144  0.4378583793852662  0.03361290879832081  1.0000
  H   H119      1.0  0.25485852505134093  0.4753312745928618  0.05983567542974829  1.0000
  H   H120      1.0  0.22960898026144286  0.4199682780642492  0.0765076860154233  1.0000
  N   N3        1.0  0.08269039207009363  0.2589619376042173  0.9052649330657518  1.0000
  C   C153      1.0  0.04039930011574265  0.21855610544118081  0.9111641592954456  1.0000
  C   C154      1.0  0.10385769644144105  0.2549091023686118  0.8668395989443016  1.0000
  C   C155      1.0  0.11156947563607719  0.26661064759817  0.9417761309625702  1.0000
  C   C156      1.0  0.07494908917269799  0.29592437066771826  0.9013327513326017  1.0000
  H   H121      1.0  0.023474363028864728  0.22067042828584224  0.9398152448229234  1.0000
  H   H122      1.0  0.04479177578504813  0.18986656971451546  0.9142829796522576  1.0000
  H   H123      1.0  0.017544507923749272  0.21201979028680493  0.8843911809306735  1.0000
  H   H124      1.0  0.0829404366959107  0.24922270804346555  0.8386739382288382  1.0000
  H   H125      1.0  0.135881370766056  0.2849293642616253  0.8615047311281817  1.0000
  H   H126      1.0  0.1102773120174495  0.22735868589908834  0.8687164249458749  1.0000
  H   H127      1.0  0.14369726694722335  0.2969391741457858  0.9383126316388252  1.0000
  H   H128      1.0  0.11810556503882333  0.23938173333302373  0.9460074406301878  1.0000
  H   H129      1.0  0.09679215369286574  0.2703193721798496  0.9712790071228163  1.0000
  H   H130      1.0  0.10611919290933071  0.32712455945565083  0.8970924834207152  1.0000
  H   H131      1.0  0.05937395396986689  0.29998697813621655  0.9299395035588349  1.0000
  H   H132      1.0  0.05268013143791356  0.2910864082375859  0.874541954907247  1.0000
  N   N4        1.0  0.6951434498598911  0.8519602213887875  0.8690950700792229  1.0000
  C   C157      1.0  0.7189581852758771  0.8606064920088041  0.909385049091855  1.0000
  C   C158      1.0  0.6958976869151597  0.8918380364559796  0.8553364307360395  1.0000
  C   C159      1.0  0.6492737619247244  0.8169421181546862  0.8742999094224371  1.0000
  C   C160      1.0  0.716441098059984  0.8383442132309341  0.8372283323599266  1.0000
  H   H133      1.0  0.7038525552588987  0.8709702689599537  0.9342581014091466  1.0000
  H   H134      1.0  0.7537921417397434  0.8866091709513446  0.9063888823955722  1.0000
  H   H135      1.0  0.7187852439624094  0.8310150393695601  0.9206792364497165  1.0000
  H   H136      1.0  0.6790825874937354  0.8866861253942473  0.8244800174363075  1.0000
  H   H137      1.0  0.6795826049155208  0.9028593130577492  0.8782502488396059  1.0000
  H   H138      1.0  0.7300610790091344  0.9190890300168386  0.8513220261918992  1.0000
  H   H139      1.0  0.6302147641081892  0.8101985378414834  0.8446360719816336  1.0000
  H   H140      1.0  0.6324869379729939  0.8255086796188508  0.8989768263673796  1.0000
  H   H141      1.0  0.6475279938118537  0.7860730359617475  0.8835645294180621  1.0000
  H   H142      1.0  0.7188545227490357  0.8098985704391002  0.8476722627332263  1.0000
  H   H143      1.0  0.7501993377149871  0.8650262001591489  0.8304180242378819  1.0000
  H   H144      1.0  0.6977551843835778  0.8289857729614831  0.8071640616669014  1.0000
  N   N5        1.0  0.8104756452418734  0.8355038821845174  0.599767713073519  1.0000
  C   C161      1.0  0.8354203286699706  0.8342652002225079  0.6363900851354058  1.0000
  C   C162      1.0  0.8359774543780927  0.8410435788175483  0.5613093951577942  1.0000
  C   C163      1.0  0.8020574120842658  0.8720726647447858  0.6049985380185756  1.0000
  C   C164      1.0  0.7682894449281483  0.7943587788376733  0.5964781906669981  1.0000
  H   H145      1.0  0.8172824821149309  0.8304080408768842  0.6660469011090853  1.0000
  H   H146      1.0  0.8677262924356508  0.8645671608222366  0.639530804079479  1.0000
  H   H147      1.0  0.8417683444837303  0.8065890639219981  0.6337323140811317  1.0000
  H   H148      1.0  0.8427278491669362  0.813734565199435  0.5568435745063456  1.0000
  H   H149      1.0  0.8180097119706926  0.8417150599689771  0.5329588906603903  1.0000
  H   H150      1.0  0.8681130901901242  0.87173968016032  0.5625679089293336  1.0000
  H   H151      1.0  0.7834274904165159  0.874142264747032  0.5778582092381124  1.0000
  H   H152      1.0  0.8331150929909963  0.9037232120372449  0.6080628367874683  1.0000
  H   H153      1.0  0.7823548787477081  0.8683160174946852  0.6336147426943904  1.0000
  H   H154      1.0  0.7732684974798547  0.7660584787286795  0.5917980378781154  1.0000
  H   H155      1.0  0.748063066757852  0.794397989139557  0.5698009343654199  1.0000
  H   H156      1.0  0.7487824492756759  0.7886578385860699  0.6253724062598081  1.0000
  N   N6        1.0  0.9906802256210783  0.3938156716415795  0.25761382953676387  1.0000
  C   C165      1.0  0.9958246916631954  0.38863425658343226  0.21229098304334015  1.0000
  C   C166      1.0  0.9557890958745733  0.35212488374708306  0.27409243716440085  1.0000
  C   C167      1.0  0.9786837310583664  0.4276969690026198  0.2646542968065494  1.0000
  C   C168      1.0  0.032438537010222035  0.4067175580037109  0.2795323550807178  1.0000
  H   H157      1.0  0.9648134726793823  0.378247701469288  0.19468291161135928  1.0000
  H   H158      1.0  0.005228314117935673  0.36346002228210694  0.2062878472576249  1.0000
  H   H159      1.0  0.02179202030484695  0.419371166194722  0.19861831701320867  1.0000
  H   H160      1.0  0.9511961079132945  0.35469669097768003  0.3083505846343943  1.0000
  H   H161      1.0  0.9237666913965761  0.3415315420750214  0.2584256169834021  1.0000
  H   H162      1.0  0.9636507624981042  0.3257150143326887  0.26913734367407327  1.0000
  H   H163      1.0  0.9742293489387476  0.4318076281933238  0.29868079802198677  1.0000
  H   H164      1.0  0.9474504939197131  0.41926673814687293  0.24842817657072866  1.0000
  H   H165      1.0  0.004583075857518049  0.45979892862065397  0.25331505203580784  1.0000
  H   H166      1.0  0.030189051456972038  0.4117566694152107  0.3136951720809851  1.0000
  H   H167      1.0  0.059819797156939414  0.4374311763524127  0.267267203085699  1.0000
  H   H168      1.0  0.04187820021206101  0.3814091761849158  0.27597473606415324  1.0000
  N   N7        1.0  0.5353044764349255  0.9655519643871117  0.4388012482937302  1.0000
  C   C169      1.0  0.4926601615150147  0.9388925102099169  0.4593687427800574  1.0000
  C   C170      1.0  0.5705416326864775  0.9848655925575327  0.4707961144834625  1.0000
  C   C171      1.0  0.5344687585289712  0.0005927092767443742  0.4152905222435521  1.0000
  C   C172      1.0  0.5435722649657521  0.9378310411079357  0.40961856394175983  1.0000
  H   H169      1.0  0.46548755885431486  0.9238651941787778  0.43588847111061774  1.0000
  H   H170      1.0  0.48520850858368675  0.9587754905471428  0.48149066515837685  1.0000
  H   H171      1.0  0.49222669393439417  0.9120839135022184  0.4773086147595282  1.0000
  H   H172      1.0  0.603251649001918  0.004651639269177554  0.4561299784894441  1.0000
  H   H173      1.0  0.5658070076938178  0.006413537379599044  0.49310425594654106  1.0000
  H   H174      1.0  0.5722014531930908  0.9593335229779967  0.4891432889452593  1.0000
  H   H175      1.0  0.565946706074009  0.020829266743580765  0.39876265819625023  1.0000
  H   H176      1.0  0.528807649251026  0.022599024734848427  0.43615409416404716  1.0000
  H   H177      1.0  0.5080092336382928  0.9871755670507082  0.39110420407895174  1.0000
  H   H178      1.0  0.5750653940733413  0.9570465557231969  0.39305481283414795  1.0000
  H   H179      1.0  0.5176758427920052  0.9225919638839964  0.38492939177063684  1.0000
  H   H180      1.0  0.5456400925132414  0.9116317449568885  0.4262655133112392  1.0000
  N   N8        1.0  0.586969763391407  0.6916092354732453  0.18523677539678468  1.0000
  C   C173      1.0  0.5565626872143146  0.6763490560129471  0.2209781072048334  1.0000
  C   C174      1.0  0.5921224533705537  0.6554795773315183  0.1683880039231534  1.0000
  C   C175      1.0  0.6300272045196199  0.7275811041931078  0.19949600555400007  1.0000
  C   C176      1.0  0.5691581341467576  0.7070753696735401  0.15204499264096782  1.0000
  H   H181      1.0  0.5519528836600928  0.7029540417593878  0.23419391463151099  1.0000
  H   H182      1.0  0.5691333918395388  0.6646039750380585  0.24664627034241604  1.0000
  H   H183      1.0  0.523771307762224  0.6490743898729787  0.21143185933436598  1.0000
  H   H184      1.0  0.614537098233717  0.6659414107199475  0.1411025272486043  1.0000
  H   H185      1.0  0.6060622931481816  0.6431413837018972  0.1921632432415902  1.0000
  H   H186      1.0  0.5603386890542651  0.6276125311827483  0.15735218258314237  1.0000
  H   H187      1.0  0.6539063089213283  0.7397235138511757  0.1734432051853886  1.0000
  H   H188      1.0  0.64441396047965  0.7173507243793176  0.22478667130571736  1.0000
  H   H189      1.0  0.6276326646197643  0.7559049626402272  0.21151381843057523  1.0000
  H   H190      1.0  0.5903404896273987  0.7169958788810309  0.12387410349450294  1.0000
  H   H191      1.0  0.5672804528022076  0.7360877447567864  0.16267520542782765  1.0000
  H   H192      1.0  0.5359235724905836  0.6813920554190563  0.14168532706726847  1.0000
  N   N9        1.0  0.9356718177855954  0.5374757400842755  0.49135558449989486  1.0000
  C   C177      1.0  0.9103905643403258  0.5372799987565038  0.5283748461678434  1.0000
  C   C178      1.0  0.9747117339291914  0.5810315181342951  0.4873937160943389  1.0000
  C   C179      1.0  0.9079781944029863  0.526895814365542  0.4533762722533738  1.0000
  C   C180      1.0  0.9496944879464637  0.5049395775867244  0.4961770539614752  1.0000
  H   H193      1.0  0.880658507360199  0.5049240880743133  0.5325178854737818  1.0000
  H   H194      1.0  0.8992754970831256  0.5615053712874852  0.5252922582011997  1.0000
  H   H195      1.0  0.9304314926500966  0.5457721218481327  0.5575666078276141  1.0000
  H   H196      1.0  0.9654210680621019  0.6065280457572336  0.48502716448885763  1.0000
  H   H197      1.0  0.9972200485569683  0.5897033845799416  0.5147714955423127  1.0000
  H   H198      1.0  0.9936906314684565  0.5829506692941963  0.45894995157387947  1.0000
  H   H199      1.0  0.9259327077154126  0.5266811261454171  0.42482968964556467  1.0000
  H   H200      1.0  0.8972870236402619  0.5511634137228021  0.44851174138070854  1.0000
  H   H201      1.0  0.8779518588032127  0.4944311073958438  0.4554317510199838  1.0000
  H   H202      1.0  0.9695081452946603  0.5049836315791495  0.4689467728167759  1.0000
  H   H203      1.0  0.9211257318552223  0.4714993391448346  0.49856913319072904  1.0000
  H   H204      1.0  0.9704141786449558  0.5117557278721488  0.5246914278815176  1.0000
  N   N10       1.0  0.4611075979644095  0.14859955302858718  0.21634439369218875  1.0000
  C   C181      1.0  0.4485810119141409  0.1669116976138619  0.18124499923733628  1.0000
  C   C182      1.0  0.5093233634261349  0.17075200022191797  0.2202615363307644  1.0000
  C   C183      1.0  0.4435870808156671  0.10163563157921601  0.20861060018650432  1.0000
  C   C184      1.0  0.44276410363628094  0.15498180767096725  0.25558782339841246  1.0000
  H   H205      1.0  0.41227153025606234  0.15074428358054887  0.17784147047267748  1.0000
  H   H206      1.0  0.4617992469191991  0.16276404093564262  0.15098261725253492  1.0000
  H   H207      1.0  0.4608602591196606  0.20225691546489827  0.18625257110030466  1.0000
  H   H208      1.0  0.5194093589814185  0.15721317367367224  0.24655078219204848  1.0000
  H   H209      1.0  0.5244627344180322  0.16678152849877387  0.19119294690804034  1.0000
  H   H210      1.0  0.5236204786616977  0.20617184224441226  0.22668002601592757  1.0000
  H   H211      1.0  0.45125076877003656  0.08653228529598112  0.2352470053914909  1.0000
  H   H212      1.0  0.4576531837845593  0.0955449565088413  0.17986571328157389  1.0000
  H   H213      1.0  0.4073229504561632  0.08404130089301468  0.20458986217394431  1.0000
  H   H214      1.0  0.4531531009672157  0.14340644003924935  0.28302219006559715  1.0000
  H   H215      1.0  0.40635237707066546  0.1367457954426653  0.25463178617798726  1.0000
  H   H216      1.0  0.45368656595968704  0.18985136145518783  0.2616108075063639  1.0000
  N   N11       1.0  0.3194718488930165  0.19165309986646475  0.5468483771843033  1.0000
  C   C185      1.0  0.32189629451573737  0.15856277691558554  0.5201494702028728  1.0000
  C   C186      1.0  0.300653448997656  0.17272725160607222  0.5878239913594636  1.0000
  C   C187      1.0  0.2914614758736953  0.20608995314123416  0.5263795058677161  1.0000
  C   C188      1.0  0.3639455623089616  0.22935275492059065  0.5532206727273109  1.0000
  H   H217      1.0  0.33572942550055607  0.1714045397393623  0.48880066636408004  1.0000
  H   H218      1.0  0.28903201471778306  0.1293910000988036  0.5148224603369501  1.0000
  H   H219      1.0  0.3430556769189427  0.1471958132708072  0.5345909177362367  1.0000
  H   H220      1.0  0.299245961486405  0.19715355467731416  0.6090747590372676  1.0000
  H   H221      1.0  0.2668456514817933  0.1445819731477404  0.5844380155308603  1.0000
  H   H222      1.0  0.3207092885616193  0.16104735399365244  0.6039638685682671  1.0000
  H   H223      1.0  0.3049496037101772  0.22104681388534547  0.49558630265093184  1.0000
  H   H224      1.0  0.2886980019771521  0.23084538452102765  0.5460310268492419  1.0000
  H   H225      1.0  0.2576845286425131  0.17847193408635934  0.5208504953563828  1.0000
  H   H226      1.0  0.38000347319703637  0.24342334982220973  0.5229419953391407  1.0000
  H   H227      1.0  0.38538966727665813  0.22022983111373592  0.5707250502322404  1.0000
  H   H228      1.0  0.363100374560478  0.25569623163216787  0.5718163066366235  1.0000
  N   N12       1.0  0.9527452767273692  0.7592979253532196  0.8828282586130439  1.0000
  C   C189      1.0  0.9055730503909144  0.7437980561032635  0.8883117097939409  1.0000
  C   C190      1.0  0.958312664016333  0.7229042505713907  0.8676473236747683  1.0000
  C   C191      1.0  0.9759619420922115  0.7759205232165507  0.9233492814653417  1.0000
  C   C192      1.0  0.9712737841790717  0.7945152668118778  0.8519818569117655  1.0000
  H   H229      1.0  0.899979725058589  0.7699217283447998  0.9010016627128394  1.0000
  H   H230      1.0  0.8905497254887502  0.716364151925478  0.9105150800526183  1.0000
  H   H231      1.0  0.887100864272866  0.731837723501382  0.8581672813958069  1.0000
  H   H232      1.0  0.9935712715062985  0.7333270633521565  0.8634663042612934  1.0000
  H   H233      1.0  0.9444560831239177  0.6956617292633314  0.8901793059574067  1.0000
  H   H234      1.0  0.9413219087976403  0.7095877106747713  0.8370734880048206  1.0000
  H   H235      1.0  0.011627752024624183  0.7876334908089746  0.9203910231416321  1.0000
  H   H236      1.0  0.9629756136940456  0.7502648749495913  0.9473811749493783  1.0000
  H   H237      1.0  0.9724906567352486  0.8033755343454786  0.935904516908692  1.0000
  H   H238      1.0  0.9547518199585405  0.7830761598355709  0.8209097191635725  1.0000
  H   H239      1.0  0.0069317291004189485  0.8069352293086627  0.8474038192166303  1.0000
  H   H240      1.0  0.967501401631351  0.822457658315697  0.8624143823897208  1.0000
  N   N13       1.0  0.7507169947550509  0.6060557142459262  0.08568249255970506  1.0000
  C   C193      1.0  0.7219294100255534  0.5679073578988935  0.11110811990873698  1.0000
  C   C194      1.0  0.7946422549127311  0.6105924765636127  0.08259197648751578  1.0000
  C   C195      1.0  0.7546393340356544  0.645562266079455  0.10578522876000133  1.0000
  C   C196      1.0  0.7315500899000258  0.6002619655788  0.04327353732356751  1.0000
  H   H241      1.0  0.6884500508348389  0.5636482324474458  0.11363516793536757  1.0000
  H   H242      1.0  0.7350572090769568  0.5713835771002072  0.1434982376218011  1.0000
  H   H243      1.0  0.7183329057112698  0.5374679375065728  0.09700958657722569  1.0000
  H   H244      1.0  0.8098745558089896  0.6144490289270186  0.11404617553808495  1.0000
  H   H245      1.0  0.7932783160791054  0.5818967929842238  0.06663258642901275  1.0000
  H   H246      1.0  0.8173263110982361  0.6397284358424394  0.0643778248992437  1.0000
  H   H247      1.0  0.7748045982852501  0.674692104173388  0.08671096014341788  1.0000
  H   H248      1.0  0.7703589500870072  0.6519424220414859  0.13727186417598367  1.0000
  H   H249      1.0  0.7220964127294915  0.642935809763875  0.10966371703591686  1.0000
  H   H250      1.0  0.7525119723350852  0.6283266612293932  0.02309349015232508  1.0000
  H   H251      1.0  0.6985469331877403  0.5972384426325901  0.04446737002263008  1.0000
  H   H252      1.0  0.7277770023992994  0.5705695937495391  0.027246707976608647  1.0000
  N   N14       1.0  0.34411856579126304  0.17473572303364474  0.841692367741023  1.0000
  C   C197      1.0  0.3538406486373841  0.19592151334359173  0.8836162229809957  1.0000
  C   C198      1.0  0.36257312497523647  0.14553351088900493  0.8384962789913378  1.0000
  C   C199      1.0  0.3637919070809733  0.20824248693999592  0.8092111410354114  1.0000
  C   C200      1.0  0.2961387671678183  0.14916822783311967  0.835376850873847  1.0000
  H   H253      1.0  0.3897131332523903  0.21679723464343123  0.8892198019554087  1.0000
  H   H254      1.0  0.34052884864748656  0.17163015101632112  0.9089752169515644  1.0000
  H   H255      1.0  0.3391546387559114  0.2171131373494019  0.8874294063435486  1.0000
  H   H256      1.0  0.35543501149910056  0.12885047089760782  0.8072033429683123  1.0000
  H   H257      1.0  0.39877329795164557  0.16372300542873067  0.8428109717813644  1.0000
  H   H258      1.0  0.34840479686581616  0.11965167946604818  0.862357049844367  1.0000
  H   H259      1.0  0.3994941721811935  0.230189812050911  0.8147137316819144  1.0000
  H   H260      1.0  0.3480790203854195  0.22861309873194552  0.8081692125181861  1.0000
  H   H261      1.0  0.3600445541040773  0.1933522192791985  0.7775316077049315  1.0000
  H   H262      1.0  0.2811124809365088  0.17021650648326941  0.8367674563023432  1.0000
  H   H263      1.0  0.2802022680021392  0.1237374221222301  0.8594704448551403  1.0000
  H   H264      1.0  0.28753358335366885  0.1321840564207413  0.8043804607192248  1.0000
  N   N15       1.0  0.24760516283340456  0.2294984920212759  0.188552023254607  1.0000
  C   C201      1.0  0.2533302514352331  0.20437627431698674  0.22194661683141167  1.0000
  C   C202      1.0  0.28698582345475343  0.27310758333185264  0.18680654070449737  1.0000
  C   C203      1.0  0.20888718427216912  0.2339300149836471  0.19752309533940493  1.0000
  C   C204      1.0  0.24128251195056438  0.20676556466965657  0.14777345875877487  1.0000
  H   H265      1.0  0.22485920673132986  0.170763087492976  0.22341759244324513  1.0000
  H   H266      1.0  0.2572203687900766  0.2201235368181027  0.2532707913221268  1.0000
  H   H267      1.0  0.28305252175370055  0.2016306611994809  0.2167150873774344  1.0000
  H   H268      1.0  0.2831035698889395  0.29323092684428725  0.16276214722080934  1.0000
  H   H269      1.0  0.29363417422748544  0.2908707825107772  0.21734134803153254  1.0000
  H   H270      1.0  0.3166919747600974  0.27120765344081244  0.17867420223678976  1.0000
  H   H271      1.0  0.178535043099996  0.20164783100802786  0.19933361394249355  1.0000
  H   H272      1.0  0.20355812863036235  0.25246205452770315  0.17257052516810004  1.0000
  H   H273      1.0  0.21270843187653635  0.2515349002820913  0.22776383408350928  1.0000
  H   H274      1.0  0.21177614075128381  0.17375835295891404  0.14782018992640023  1.0000
  H   H275      1.0  0.2698789162961308  0.20296061591322007  0.13988725827117765  1.0000
  H   H276      1.0  0.23713611292875683  0.22506679145957503  0.12186424708304425  1.0000
  N   N16       1.0  0.07345853423125186  0.8175400731984902  0.25663018837929436  1.0000
  C   C205      1.0  0.06405610344347204  0.7822696867771727  0.2859615712288922  1.0000
  C   C206      1.0  0.040305334523245  0.8310004594231117  0.26189944892386985  1.0000
  C   C207      1.0  0.07175724356012725  0.8018179263423901  0.21314977903682236  1.0000
  C   C208      1.0  0.11755925671824854  0.8548831232587569  0.26570229254293276  1.0000
  H   H277      1.0  0.03086238887812006  0.7536503625961346  0.28033245365899556  1.0000
  H   H278      1.0  0.06506354847212499  0.7929751328420149  0.319082106326508  1.0000
  H   H279      1.0  0.0882713073861838  0.7710608442738976  0.2828673318116963  1.0000
  H   H280      1.0  0.006675970509901725  0.8033606161697113  0.2553538369918089  1.0000
  H   H281      1.0  0.04055381661450751  0.8426704940255064  0.29455159238205997  1.0000
  H   H282      1.0  0.046278201282805374  0.8576789744932272  0.24035159480107882  1.0000
  H   H283      1.0  0.03906003925928959  0.7732494942392155  0.2054631574673092  1.0000
  H   H284      1.0  0.09653096449128167  0.7915751107122084  0.20803318520404998  1.0000
  H   H285      1.0  0.07826488493329736  0.8273952893382701  0.19001258292995687  1.0000
  H   H286      1.0  0.12614904731487409  0.8820230385734691  0.2438640541083464  1.0000
  H   H287      1.0  0.14329092128135576  0.8455768437281996  0.26285044666178226  1.0000
  H   H288      1.0  0.11980316911966517  0.8677733414055793  0.29815377418994704  1.0000
  N   N17       1.0  0.23033085293438021  0.8964966513417909  0.4887594384153208  1.0000
  C   C209      1.0  0.23570278578135395  0.8682959330445748  0.45769091518714367  1.0000
  C   C210      1.0  0.18340442664470621  0.8775855472237454  0.4987982912201414  1.0000
  C   C211      1.0  0.24715494486404418  0.9402280467480827  0.4712522328129796  1.0000
  C   C212      1.0  0.2551417768689024  0.8998986863413668  0.5273028876343528  1.0000
  H   H289      1.0  0.2706912422362953  0.8817395421035882  0.44912816214079976  1.0000
  H   H290      1.0  0.21742193223705714  0.8650279195440711  0.4282614398925948  1.0000
  H   H291      1.0  0.2232614810640863  0.834970805473024  0.4697476258532785  1.0000
  H   H292      1.0  0.16958920891942952  0.8445295395355504  0.5120279267351856  1.0000
  H   H293      1.0  0.17815410746418325  0.8981524744895092  0.5220372233617429  1.0000
  H   H294      1.0  0.16357749766367569  0.8742410501623978  0.47037892127420095  1.0000
  H   H295      1.0  0.2453653052324833  0.9629926023760292  0.4944171384020035  1.0000
  H   H296      1.0  0.22823936370202202  0.9392735646757533  0.4430578446365694  1.0000
  H   H297      1.0  0.2819582555829477  0.954688422284648  0.46167133440293634  1.0000
  H   H298      1.0  0.2524628567171624  0.9214918361503046  0.5513324083495966  1.0000
  H   H299      1.0  0.2906580151786436  0.9137426609570481  0.5208691580098997  1.0000
  H   H300      1.0  0.24318082646709918  0.867662704709122  0.5417683061972062  1.0000
  N   N18       1.0  0.890632952516855  0.3243137530870615  0.8924444443037997  1.0000
  C   C213      1.0  0.8872532161959502  0.3038011325364476  0.933139865107231  1.0000
  C   C214      1.0  0.8794577736622746  0.2916351284312276  0.8584144401991362  1.0000
  C   C215      1.0  0.9359300675648277  0.360518590463155  0.8870396871603894  1.0000
  C   C216      1.0  0.8600093188241266  0.3412472537739683  0.8915447138974286  1.0000
  H   H301      1.0  0.8957139532837045  0.32750477366385955  0.9596597062220382  1.0000
  H   H302      1.0  0.9098913189440629  0.29061181238652556  0.9346298395459045  1.0000
  H   H303      1.0  0.8535645214407046  0.2762881621238392  0.9384964675731485  1.0000
  H   H304      1.0  0.8458460667792204  0.2632687227892342  0.8621412706875465  1.0000
  H   H305      1.0  0.8810609666286405  0.3056473877397109  0.8271259724550597  1.0000
  H   H306      1.0  0.9023348129849599  0.278567494595392  0.8581759713594167  1.0000
  H   H307      1.0  0.939577351869808  0.3776823727308006  0.8571828549883553  1.0000
  H   H308      1.0  0.9597187786699473  0.3486264057318223  0.8866160848462882  1.0000
  H   H309      1.0  0.9459187328298717  0.3850045896372238  0.9131238818858574  1.0000
  H   H310      1.0  0.8617048179124075  0.35711712087329034  0.8612888157700246  1.0000
  H   H311      1.0  0.8677310685945346  0.3658661668653558  0.9170743980915039  1.0000
  H   H312      1.0  0.8255447262760305  0.31475056080560326  0.8957447779693375  1.0000
  N   N19       1.0  0.5929269093077111  0.04939646379986292  0.6470436773397049  1.0000
  C   C217      1.0  0.5957083732847158  0.06347881024616943  0.6912507286295753  1.0000
  C   C218      1.0  0.6350001074374818  0.053101191186155555  0.63459153635837  1.0000
  C   C219      1.0  0.583473214813516  0.0772795441394539  0.6202885155722634  1.0000
  C   C220      1.0  0.5575721760167357  0.003666362101627962  0.6421886171093906  1.0000
  H   H313      1.0  0.5642632165438917  0.06034688232300001  0.7021655271335746  1.0000
  H   H314      1.0  0.6220205324173101  0.09783959777504703  0.6962639321350715  1.0000
  H   H315      1.0  0.6032700338523511  0.0433402217206767  0.7120719132370072  1.0000
  H   H316      1.0  0.6347316721120905  0.043801017191645426  0.6011213315551004  1.0000
  H   H317      1.0  0.6629442775153848  0.08682084810765021  0.6390894941232198  1.0000
  H   H318      1.0  0.6425796110659684  0.0315557230163958  0.6534597580565379  1.0000
  H   H319      1.0  0.5519259847961832  0.07524405374744654  0.6290473080526492  1.0000
  H   H320      1.0  0.5812111835998992  0.06763717128745357  0.5866704167149221  1.0000
  H   H321      1.0  0.6096933580643825  0.11198031717632094  0.6233099413136775  1.0000
  H   H322      1.0  0.5640867345275637  0.9818365492864238  0.6618130984948974  1.0000
  H   H323      1.0  0.5544268004877214  0.9919089316381708  0.6092166913575657  1.0000
  H   H324      1.0  0.5253757135860251  0.9993991573568188  0.6520328001750096  1.0000
  N   N20       1.0  0.8198162581285597  0.06231195965147958  0.24079181344678208  1.0000
  C   C221      1.0  0.8076912268385272  0.09576755617157934  0.23260594865863285  1.0000
  C   C222      1.0  0.7896132653293629  0.02173232120308751  0.21771164542323737  1.0000
  C   C223      1.0  0.816721753341231  0.05375811321033356  0.2861321944208836  1.0000
  C   C224      1.0  0.8652115512419324  0.07801677801823786  0.22695737698886842  1.0000
  H   H325      1.0  0.7733657939901312  0.08470466205582758  0.24222214556709237  1.0000
  H   H326      1.0  0.8104583115496795  0.1038837752149378  0.19884129764931213  1.0000
  H   H327      1.0  0.8289262992641824  0.1263366467934067  0.25073282719815365  1.0000
  H   H328      1.0  0.7976580183172408  0.9956593676971626  0.22337632454017395  1.0000
  H   H329      1.0  0.7551255966728088  0.00866088904550022  0.22790601818530154  1.0000
  H   H330      1.0  0.7906496911038963  0.02683319599266274  0.18336702408591718  1.0000
  H   H331      1.0  0.8400225785231289  0.08321996237576132  0.30461198857801747  1.0000
  H   H332      1.0  0.8232722536804598  0.027031216018913447  0.2935382767651956  1.0000
  H   H333      1.0  0.783452299991557  0.04394549116276682  0.29767117060979437  1.0000
  H   H334      1.0  0.8754465823763677  0.05363961436970274  0.23309831664380792  1.0000
  H   H335      1.0  0.8886955598915687  0.10871298970704041  0.24375867231524628  1.0000
  H   H336      1.0  0.8687452734612406  0.08469159634910953  0.1928070516306337  1.0000
  N   N21       1.0  0.06631818859830907  0.596118042810996  0.0974790623650825  1.0000
  C   C225      1.0  0.09281123160287574  0.6162810727526389  0.1357632256593119  1.0000
  C   C226      1.0  0.08781596836222949  0.6245751377054768  0.06155493967207161  1.0000
  C   C227      1.0  0.02217416981229592  0.5904642165403658  0.1031021810967029  1.0000
  C   C228      1.0  0.06243125924341508  0.5532838159746916  0.08928621338341979  1.0000
  H   H337      1.0  0.12648437020891046  0.6214568246947554  0.13249098229950984  1.0000
  H   H338      1.0  0.07759569648940001  0.5958954802747903  0.16366732148700072  1.0000
  H   H339      1.0  0.096122803679634  0.6486723073348523  0.14249364090339814  1.0000
  H   H340      1.0  0.0675422787551665  0.6116085229815519  0.03273647429767876  1.0000
  H   H341      1.0  0.09309982630608449  0.6577775718279745  0.0671720963659651  1.0000
  H   H342      1.0  0.12027649745858104  0.6279234199095993  0.054783219818595165  1.0000
  H   H343      1.0  0.001006064805391338  0.5745451044064938  0.07506759695892079  1.0000
  H   H344      1.0  0.023850428387071965  0.6223189437766351  0.10814819265250122  1.0000
  H   H345      1.0  0.005364866007759206  0.5701419697378683  0.13063343318797344  1.0000
  H   H346      1.0  0.04312035359269162  0.5377386171097513  0.06014295853309594  1.0000
  H   H347      1.0  0.04572222822791017  0.5305956822458916  0.11537752917573539  1.0000
  H   H348      1.0  0.09511212239825251  0.5562399505745372  0.08499091866800386  1.0000
  N   N22       1.0  0.02564590063992145  0.24814754846478318  0.5374332014640038  1.0000
  C   C229      1.0  0.9797123277739999  0.23701279385037022  0.5304241789775578  1.0000
  C   C230      1.0  0.0512461019549979  0.29296482862076834  0.5545749706473829  1.0000
  C   C231      1.0  0.04474012668504512  0.2450926797832004  0.49725141591084765  1.0000
  C   C232      1.0  0.027018365144305  0.21752293870153974  0.5672851363841773  1.0000
  H   H349      1.0  0.9596156385361815  0.20359059318095804  0.516882306043294  1.0000
  H   H350      1.0  0.9775280914120259  0.259327002897054  0.5077346061592831  1.0000
  H   H351      1.0  0.9640121036016709  0.23888515291073856  0.5599767594465381  1.0000
  H   H352      1.0  0.08624771254584118  0.302654610274324  0.5596400354727619  1.0000
  H   H353      1.0  0.05103890102669295  0.3169834207111166  0.5327421032753328  1.0000
  H   H354      1.0  0.03802612348966394  0.29668621806301715  0.5849840267125586  1.0000
  H   H355      1.0  0.025503480602813156  0.21216621050127243  0.48249735316798886  1.0000
  H   H356      1.0  0.07915654655746862  0.25255425831277156  0.501258772375489  1.0000
  H   H357      1.0  0.04494851328497984  0.26846018879216854  0.4745343459013564  1.0000
  H   H358      1.0  0.008244683458548119  0.18346442396299362  0.5550528518097174  1.0000
  H   H359      1.0  0.012703037618602808  0.21883018656782116  0.5979617449030814  1.0000
  H   H360      1.0  0.06132215995808865  0.2252078564706511  0.5732027170492774  1.0000
  N   N23       1.0  0.5612469127647821  0.6357283044838736  0.6048952073197896  1.0000
  C   C233      1.0  0.570383122450331  0.6437710706278218  0.6503053649846048  1.0000
  C   C234      1.0  0.5928613029989472  0.6746632821006321  0.5818781123743424  1.0000
  C   C235      1.0  0.5162065684162446  0.6264436314439081  0.5961324244874987  1.0000
  C   C236      1.0  0.5655410936822269  0.5980772548622064  0.5913827845125974  1.0000
  H   H361      1.0  0.5462930617746637  0.6157862171996059  0.6688789586386993  1.0000
  H   H362      1.0  0.5693949832344574  0.673141511939615  0.6612974536848487  1.0000
  H   H363      1.0  0.6035659118745982  0.6494269628925551  0.6581557987514691  1.0000
  H   H364      1.0  0.5869844505568959  0.6700869628812882  0.5474826761668756  1.0000
  H   H365      1.0  0.5910802124762774  0.7038900951137906  0.591889589101201  1.0000
  H   H366      1.0  0.6271066137152826  0.6824129324553259  0.5879184677591264  1.0000
  H   H367      1.0  0.5081531339214262  0.6201719554947651  0.562129199146086  1.0000
  H   H368      1.0  0.5117919943053139  0.6541369160719277  0.6061067287019346  1.0000
  H   H369      1.0  0.49160968129272814  0.5971497219499353  0.6131140038053544  1.0000
  H   H370      1.0  0.5606420660501843  0.5920463886130637  0.5570110171191569  1.0000
  H   H371      1.0  0.5409989010555696  0.5677523311350379  0.606913273860413  1.0000
  H   H372      1.0  0.5985247566143878  0.6029965991468398  0.599235968025334  1.0000
  N   N24       1.0  0.4256742477085056  0.4442822750662959  0.8155101991920497  1.0000
  C   C237      1.0  0.4512402638519359  0.49184982216765355  0.8102121126397104  1.0000
  C   C238      1.0  0.38162542241326425  0.42722717653100756  0.7968036211841101  1.0000
  C   C239      1.0  0.4214057651696193  0.4340151044813491  0.8605743560753568  1.0000
  C   C240      1.0  0.44839628853026176  0.42399663887030087  0.7943025455544964  1.0000
  H   H373      1.0  0.45477253598447187  0.500293472230716  0.776395591919663  1.0000
  H   H374      1.0  0.48481964309658954  0.5059165248836568  0.823702037485552  1.0000
  H   H375      1.0  0.4350859022677869  0.5083197358369353  0.8256913634442693  1.0000
  H   H376      1.0  0.36180153081850763  0.3913774576362824  0.7992351339258775  1.0000
  H   H377      1.0  0.36308522610038374  0.4410642593704294  0.8125122200019623  1.0000
  H   H378      1.0  0.38340069653722475  0.4348140681202118  0.7629478961512983  1.0000
  H   H379      1.0  0.40186819525203643  0.39828815850601773  0.8654708886705055  1.0000
  H   H380      1.0  0.40457864031437013  0.4489320603745188  0.8776683966234827  1.0000
  H   H381      1.0  0.4539695284563527  0.4460049386825016  0.8757376921646278  1.0000
  H   H382      1.0  0.43027204334052155  0.3881006136639042  0.7979782957866348  1.0000
  H   H383      1.0  0.48200833258024617  0.4366315062116121  0.8071779334646493  1.0000
  H   H384      1.0  0.45168231535235365  0.43064098799203865  0.7600856952964375  1.0000
