data_image0
_chemical_formula_structural       FeS2FeS2FeSFeS3FeS2FeS2FeSFeS3FeS2FeS2FeSFeS3FeS2FeS2FeSFeS3FeS2FeS2FeSFeS3FeS2FeS2FeSFeS3FeS2FeS2FeSFeS3FeS2FeS2FeSFeS3FeS2FeS2FeSFeS3FeS2FeS2FeSFeS3FeS2FeS2FeSFeS3FeS2FeS2FeSFeS3C6H4C6H4C6H4C6H4C6H4C6H4C6H4C6H4C6H4C6H4C6H4C6H4C6H4C6H4C6H4C6H4C6H4C6H4C6H4C6H4C6H4C6H4C6H4C6H4FeS2FeS2FeSFeS3FeS2FeS2FeSFeS3FeS2FeS2FeSFeS3FeS2FeS2FeSFeS3FeS2FeS2FeSFeS3FeS2FeS2FeSFeS3FeS2FeS2FeSFeS3FeS2FeS2FeSFeS3FeS2FeS2FeSFeS3FeS2FeS2FeSFeS3FeS2FeS2FeSFeS3FeS2FeS2FeSFeS3C6H4C6H4C6H4C6H4C6H4C6H4C6H4C6H4C6H4C6H4C6H4C6H4C6H4C6H4C6H4C6H4C6H4C6H4C6H4C6H4C6H4C6H4C6H4C6H4NC4H12NC4H12NC4H12NC4H12NC4H12NC4H12NC4H12NC4H12NC4H12NC4H12NC4H12NC4H12NC4H12NC4H12NC4H12NC4H12NC4H12NC4H12NC4H12NC4H12NC4H12NC4H12NC4H12NC4H12NC4H12NC4H12NC4H12NC4H12NC4H12NC4H12NC4H12NC4H12NC4H12NC4H12NC4H12NC4H12NC4H12NC4H12NC4H12NC4H12NC4H12NC4H12NC4H12NC4H12NC4H12NC4H12NC4H12NC4H12
_chemical_formula_sum              "Fe96 S192 C480 H768 N48"
_cell_length_a       42.980943206921765
_cell_length_b       43.22584852342264
_cell_length_c       47.23282704784995
_cell_angle_alpha    89.64907594157982
_cell_angle_beta     90.33173344526112
_cell_angle_gamma    120.1173698383558

_space_group_name_H-M_alt    "P 1"
_space_group_IT_number       1

loop_
  _space_group_symop_operation_xyz
  'x, y, z'

loop_
  _atom_site_type_symbol
  _atom_site_label
  _atom_site_symmetry_multiplicity
  _atom_site_fract_x
  _atom_site_fract_y
  _atom_site_fract_z
  _atom_site_occupancy
  Fe  Fe1       1.0  0.10586738919677152  0.43452229739238085  0.4840105097878858  1.0000
  S   S1        1.0  0.15521685024283802  0.4751889690647796  0.5069561075573175  1.0000
  S   S2        1.0  0.09402227880401318  0.39602176567662056  0.030252143570855407  1.0000
  Fe  Fe2       1.0  0.12860350278721736  0.4758750404278575  0.42759114791243114  1.0000
  S   S3        1.0  0.17976827387515287  0.519437956801327  0.44700292523570506  1.0000
  S   S4        1.0  0.11813454593158777  0.48848695268041836  0.3829704760240728  1.0000
  Fe  Fe3       1.0  0.18430181851678784  0.47487919323236333  0.467669191808772  1.0000
  S   S5        1.0  0.23277243998786684  0.4672473721552277  0.46559907570072223  1.0000
  Fe  Fe4       1.0  0.14515138412567408  0.5150572315649736  0.48407146358998215  1.0000
  S   S6        1.0  0.1478914783729997  0.5624858596209588  0.5066485031552321  1.0000
  S   S7        1.0  0.13515895816560836  0.4312311746419996  0.4458332365920674  1.0000
  S   S8        1.0  0.09400681633872966  0.47438433625654736  0.46345158034021  1.0000
  Fe  Fe5       1.0  0.019683202249030973  0.6342823474037039  0.483825676115933  1.0000
  S   S9        1.0  0.07521790705851983  0.6812971562567532  0.4800610325267234  1.0000
  S   S10       1.0  0.0104006334000184  0.5794276309394586  0.4939787813301256  1.0000
  Fe  Fe6       1.0  0.9839000879135018  0.6778092356755135  0.47003842306234206  1.0000
  S   S11       1.0  0.037232569298814244  0.7283668516438532  0.4650055718950824  1.0000
  S   S12       1.0  0.9342554689866518  0.6819610515820289  0.46061979787507257  1.0000
  Fe  Fe7       1.0  0.05440026008784904  0.6947182931973463  0.44101340382662313  1.0000
  S   S13       1.0  0.09341490227850824  0.716385233871649  0.40424902665891493  1.0000
  Fe  Fe8       1.0  0.05300998338246643  0.710193357507755  0.504296757141016  1.0000
  S   S14       1.0  0.09526436435695596  0.73551939525813  0.028251189586536756  1.0000
  S   S15       1.0  0.9999539816746469  0.6453259052725862  0.4428908901443364  1.0000
  S   S16       1.0  0.9985411909903686  0.6618926869602512  0.5112227493505607  1.0000
  Fe  Fe9       1.0  0.03249150189175953  0.3870297824736767  0.24377290169599503  1.0000
  S   S17       1.0  0.9789323517207089  0.37601502167754336  0.22677302367340957  1.0000
  S   S18       1.0  0.03429306591499692  0.370302544774259  0.2890041306079538  1.0000
  Fe  Fe10      1.0  0.06809155119702748  0.409815616216761  0.18527208974850023  1.0000
  S   S19       1.0  0.01708502750901597  0.3997494096046913  0.1642220777458637  1.0000
  S   S20       1.0  0.11914761185412574  0.42813828345740645  0.16031140572390562  1.0000
  Fe  Fe11      1.0  0.011678893477028884  0.4271333351522053  0.20239190244216593  1.0000
  S   S21       1.0  0.9965234406972476  0.4695692027094346  0.19777778973221924  1.0000
  Fe  Fe12      1.0  0.9899991086701971  0.3497718292064775  0.19045218099237635  1.0000
  S   S22       1.0  0.9551732930973883  0.2952801824399234  0.17087538291924675  1.0000
  S   S23       1.0  0.0644425321260469  0.4403614473755537  0.2222879982368912  1.0000
  S   S24       1.0  0.04165808036975327  0.35759445377250726  0.20879147971052767  1.0000
  Fe  Fe13      1.0  0.1250278856831588  0.6625734914220791  0.18881906370005436  1.0000
  S   S25       1.0  0.07228754478192088  0.6566529650945105  0.2014646436888273  1.0000
  S   S26       1.0  0.12758258595764543  0.6195986765250797  0.1635920453072449  1.0000
  Fe  Fe14      1.0  0.16722414276389846  0.7367338675051476  0.21521478815332365  1.0000
  S   S27       1.0  0.11696873677245605  0.7357802262659334  0.22997598668653654  1.0000
  S   S28       1.0  0.220582699387267  0.7860504710682368  0.22563841824267492  1.0000
  Fe  Fe15      1.0  0.09863243679223287  0.6791856337899869  0.24340009736936866  1.0000
  S   S29       1.0  0.06569530762449381  0.6477763259574225  0.2815600769628706  1.0000
  Fe  Fe16      1.0  0.09573253954047851  0.7132526633797781  0.18676806834862647  1.0000
  S   S30       1.0  0.062427646179345944  0.7286675116815666  0.15927719399505275  1.0000
  S   S31       1.0  0.15037061266689522  0.6814548918584863  0.2317281865016209  1.0000
  S   S32       1.0  0.14703627622644067  0.7178945854789889  0.1711783904912362  1.0000
  Fe  Fe17      1.0  0.41295396270299456  0.0938212125014626  0.41306104712915637  1.0000
  S   S33       1.0  0.4669090768761522  0.14345142424600554  0.4115574343462731  1.0000
  S   S34       1.0  0.3813357201348485  0.06517018464430577  0.45214176179409427  1.0000
  Fe  Fe18      1.0  0.4041930789522042  0.0919430788282525  0.3489375048860472  1.0000
  S   S35       1.0  0.4572811472087907  0.14251471404849383  0.34209385114472274  1.0000
  S   S36       1.0  0.36382311980197674  0.051476396263301326  0.3185119293371046  1.0000
  Fe  Fe19      1.0  0.47787662673595865  0.11842427504481626  0.3743008690328684  1.0000
  S   S37       1.0  0.5317791210169841  0.12188367810369427  0.3695395104440536  1.0000
  Fe  Fe20      1.0  0.44170630051375814  0.16353311957684474  0.3798826084164417  1.0000
  S   S38       1.0  0.45158763603886204  0.21852530876256684  0.391933393765294  1.0000
  S   S39       1.0  0.42600980046854403  0.06688197516833085  0.37875928464772773  1.0000
  S   S40       1.0  0.38677461625513887  0.11499333535186695  0.383749111973497  1.0000
  Fe  Fe21      1.0  0.5971432222264098  0.9916620593281291  0.37861376974682437  1.0000
  S   S41       1.0  0.6431685488228447  0.04691083491756833  0.38563530752105607  1.0000
  S   S42       1.0  0.542212277906515  0.9814866777121735  0.3657521251466815  1.0000
  Fe  Fe22      1.0  0.6416522168740554  0.9572882853758679  0.3945653710247813  1.0000
  S   S43       1.0  0.6912159704167011  0.010559838624141005  0.4033378298226445  1.0000
  S   S44       1.0  0.6450416134939292  0.9069828119540426  0.4010708204101764  1.0000
  Fe  Fe23      1.0  0.6536985038114218  0.0247213070804988  0.42529899818280364  1.0000
  S   S45       1.0  0.6603585124406939  0.05917253192905285  0.46361450334138565  1.0000
  Fe  Fe24      1.0  0.6758937546225976  0.02764746425256015  0.36305895482317124  1.0000
  S   S46       1.0  0.7179296021159943  0.06316249051781284  0.33119708843132867  1.0000
  S   S47       1.0  0.6051687193489532  0.9701538830208865  0.41972983028735733  1.0000
  S   S48       1.0  0.6288631984375582  0.973656948561972  0.35292974278319206  1.0000
  Fe  Fe25      1.0  0.3466379963345218  0.9572097431073746  0.13399276614213607  1.0000
  S   S49       1.0  0.3427038360661622  0.006651624869503436  0.12759846496780278  1.0000
  S   S50       1.0  0.2995283317956579  0.9009616152730366  0.12882979077654075  1.0000
  Fe  Fe26      1.0  0.4279421295813267  0.9982188093571394  0.13363665999108176  1.0000
  S   S51       1.0  0.43131974959566954  0.05101761469358291  0.1265400319053098  1.0000
  S   S52       1.0  0.4742179605288745  0.9876873738953055  0.1372475735189892  1.0000
  Fe  Fe27      1.0  0.38778535915372525  0.032127055545264085  0.15918599797029334  1.0000
  S   S53       1.0  0.3958106512900719  0.07765872453985274  0.18713157178071677  1.0000
  Fe  Fe28      1.0  0.3864415540580012  0.02279101021264629  0.09540380055508081  1.0000
  S   S54       1.0  0.3817275583452525  0.052202331227598084  0.05736389501443698  1.0000
  S   S55       1.0  0.38778796421330886  0.9811131725780764  0.16900036092166032  1.0000
  S   S56       1.0  0.3869980570919486  0.9714115661624722  0.0990890513721087  1.0000
  Fe  Fe29      1.0  0.676311004718072  0.11559923515134102  0.1407989929965005  1.0000
  S   S57       1.0  0.6793051529496105  0.06698063807875224  0.12916064977459787  1.0000
  S   S58       1.0  0.6297018128983342  0.12553231320299893  0.1392027571961922  1.0000
  Fe  Fe30      1.0  0.7530735793519  0.15598431973824997  0.16314711655698683  1.0000
  S   S59       1.0  0.7631238953240912  0.1107053341570719  0.15392584266837958  1.0000
  S   S60       1.0  0.7858432098225338  0.20909213343134206  0.1854012764315382  1.0000
  Fe  Fe31      1.0  0.7342612323755443  0.10608104095109  0.11256408707850916  1.0000
  S   S61       1.0  0.7556637413422426  0.0979213148498688  0.07122834133484246  1.0000
  Fe  Fe32      1.0  0.7074347697742817  0.07505714759908869  0.17102986870551942  1.0000
  S   S62       1.0  0.6874931457641807  0.02789817227152065  0.20067313782005383  1.0000
  S   S63       1.0  0.7288740871548861  0.15433122842496763  0.12056781270321879  1.0000
  S   S64       1.0  0.6998993806769863  0.1203882524773621  0.18384895580083824  1.0000
  Fe  Fe33      1.0  0.6517164392934367  0.7680333283076501  0.2998828389628934  1.0000
  S   S65       1.0  0.6958234778751463  0.761785509030116  0.279920522012176  1.0000
  S   S66       1.0  0.6469552726656819  0.8178111167965716  0.295582283367126  1.0000
  Fe  Fe34      1.0  0.6104263156666657  0.6903035037034132  0.3198797831865032  1.0000
  S   S67       1.0  0.6509045749691124  0.6780579326901537  0.3016754494454462  1.0000
  S   S68       1.0  0.5608736650066395  0.6520827312111585  0.34474241172085  1.0000
  Fe  Fe35      1.0  0.6916925702528708  0.7310267729815163  0.319865374502476  1.0000
  S   S69       1.0  0.7366962667373117  0.7309471641560509  0.34458224412798016  1.0000
  Fe  Fe36      1.0  0.6510293600480965  0.7093022876654753  0.2634303412610766  1.0000
  S   S70       1.0  0.641533351401437  0.6830995931870819  0.2201342732126267  1.0000
  S   S71       1.0  0.6510712068836022  0.7412089064208539  0.3408786183664212  1.0000
  S   S72       1.0  0.6071899682405455  0.7177755299838434  0.280536156500022  1.0000
  Fe  Fe37      1.0  0.4169103933892291  0.3671283673838529  0.3275389668078691  1.0000
  S   S73       1.0  0.3683844412920165  0.3735832743795084  0.32210231313890075  1.0000
  S   S74       1.0  0.40998744969951045  0.3134446344531102  0.3145553044740968  1.0000
  Fe  Fe38      1.0  0.4651836837821448  0.44642404999335483  0.3408580254905077  1.0000
  S   S75       1.0  0.4206277023457871  0.4585264062180507  0.3359647367718613  1.0000
  S   S76       1.0  0.5213831120821079  0.48994995263210045  0.35206727621003714  1.0000
  Fe  Fe39      1.0  0.38833410606298957  0.40796805736025527  0.36077637666813267  1.0000
  S   S77       1.0  0.3517593487361951  0.41039571106569067  0.3937045443044097  1.0000
  Fe  Fe40      1.0  0.40505995953660273  0.42339554165574456  0.29772112671266465  1.0000
  S   S78       1.0  0.3836630237399734  0.4358296972380516  0.25801448192973336  1.0000
  S   S79       1.0  0.4341691443637693  0.3977913690149314  0.36846956766426353  1.0000
  S   S80       1.0  0.45236857181282975  0.4150072547858834  0.3004593807170476  1.0000
  Fe  Fe41      1.0  0.7253505828430866  0.7160994460666429  0.019518113627980144  1.0000
  S   S81       1.0  0.7578374767486622  0.6808934190270118  0.49645147951186896  1.0000
  S   S82       1.0  0.7458777253021881  0.7643382060806907  0.4758868235264128  1.0000
  Fe  Fe42      1.0  0.7473330297966884  0.7176298373608397  0.08135851825682036  1.0000
  S   S83       1.0  0.7616266822599814  0.6749616249688326  0.07473138251892746  1.0000
  S   S84       1.0  0.7571069921228869  0.7491536444131968  0.12157129466902342  1.0000
  Fe  Fe43      1.0  0.7878247920642062  0.7042622419675378  0.03441927104685695  1.0000
  S   S85       1.0  0.8469285248569313  0.726659423276618  0.02510574814630244  1.0000
  Fe  Fe44      1.0  0.711063961368281  0.648241687435782  0.04844310203888648  1.0000
  S   S86       1.0  0.668827236927147  0.5904432955391822  0.053511117310738314  1.0000
  S   S87       1.0  0.776943870284219  0.7489577558798929  0.04296163317602247  1.0000
  S   S88       1.0  0.6947051355991568  0.6885030193381634  0.05875543907119835  1.0000
  Fe  Fe45      1.0  0.46745875961156724  0.5168413586632008  0.05795522770419671  1.0000
  S   S89       1.0  0.4777427798797648  0.4716626781207561  0.06506991113456574  1.0000
  S   S90       1.0  0.5133163725945363  0.5718703908792383  0.04787067984488075  1.0000
  Fe  Fe46      1.0  0.38678426253463305  0.46890357294915447  0.06532666543118575  1.0000
  S   S91       1.0  0.39170700794894686  0.4202175039936948  0.0742325127614698  1.0000
  S   S92       1.0  0.33069556316678317  0.4611629362970898  0.06599961395950735  1.0000
  Fe  Fe47      1.0  0.4392122632175723  0.4571847094781202  0.101138220246247  1.0000
  S   S93       1.0  0.4613509456751388  0.4476808050266677  0.14167551809814757  1.0000
  Fe  Fe48      1.0  0.4298254864529953  0.43997510161951725  0.037451045172143836  1.0000
  S   S94       1.0  0.4010075815536156  0.4027406347368412  0.5181426836677592  1.0000
  S   S95       1.0  0.4312974655077784  0.5043291811015173  0.09547384603778475  1.0000
  S   S96       1.0  0.4129317879959129  0.4983559802454244  0.5163525921800319  1.0000
  C   C1        1.0  0.6257813637605096  0.5855396296767492  0.05220050581426721  1.0000
  C   C2        1.0  0.597323759531388  0.5572582476382826  0.06670380888010369  1.0000
  C   C3        1.0  0.5628816312223272  0.5533309314560644  0.06596875133038908  1.0000
  C   C4        1.0  0.5566045383518895  0.5772879880357025  0.05034968735194987  1.0000
  C   C5        1.0  0.5850585161495346  0.6054949888317467  0.035781889191295844  1.0000
  C   C6        1.0  0.6195411033303599  0.6095301628779913  0.03659328569990485  1.0000
  H   H1        1.0  0.6020923232008194  0.5386961614690507  0.07882560843533444  1.0000
  H   H2        1.0  0.5414939813575168  0.5321646006948187  0.07793210140632181  1.0000
  H   H3        1.0  0.5803723629775936  0.6240677118372296  0.023594247584731328  1.0000
  H   H4        1.0  0.6411600700871343  0.6308860006480052  0.02472304860888732  1.0000
  C   C7        1.0  0.4066977085294982  0.4418966643935693  0.2258906075493656  1.0000
  C   C8        1.0  0.39017391172152965  0.4423987677561037  0.20031969345648268  1.0000
  C   C9        1.0  0.40706445019978466  0.4450090350040167  0.17429255925468015  1.0000
  C   C10       1.0  0.4404606158604981  0.44685276216669245  0.17378830186383773  1.0000
  C   C11       1.0  0.45730815899958643  0.44703046907344385  0.19935801254327906  1.0000
  C   C12       1.0  0.44061181079803824  0.4448792458883566  0.225347422781427  1.0000
  H   H5        1.0  0.3640139000547133  0.44033522006463494  0.20062724225707296  1.0000
  H   H6        1.0  0.39393064414214757  0.444962706872898  0.15465659852079588  1.0000
  H   H7        1.0  0.4832644619372539  0.44867154454632346  0.19908519959509002  1.0000
  H   H8        1.0  0.453938227238548  0.44547065627899135  0.24495048994632818  1.0000
  C   C13       1.0  0.3618132042982106  0.40435936022497077  0.42862933536210235  1.0000
  C   C14       1.0  0.3532173120369313  0.4200930650618155  0.45079390193071506  1.0000
  C   C15       1.0  0.3640122557521617  0.4184388468548772  0.4785527919128833  1.0000
  C   C16       1.0  0.38303750412530824  0.4006937782373271  0.4842932251130811  1.0000
  C   C17       1.0  0.3900031834499949  0.383375304295317  0.46235724348068924  1.0000
  C   C18       1.0  0.37949329329497694  0.3853041676557034  0.43450827650577245  1.0000
  H   H9        1.0  0.3391627622536473  0.4344976075253546  0.44647342043019644  1.0000
  H   H10       1.0  0.357502875566944  0.43080232681496383  0.4955526502764108  1.0000
  H   H11       1.0  0.4044417040717966  0.3693425004193454  0.46676373782639674  1.0000
  H   H12       1.0  0.38531435283616333  0.3722620027711438  0.41759399624311266  1.0000
  C   C19       1.0  0.5488777208537573  0.606594292181579  0.34406837405121904  1.0000
  C   C20       1.0  0.5144685686911357  0.5803403049779415  0.35288392432936655  1.0000
  C   C21       1.0  0.5051138588058983  0.5441659000193944  0.3539841810580757  1.0000
  C   C22       1.0  0.5306366029463265  0.5342469976608345  0.3474014718745302  1.0000
  C   C23       1.0  0.5650586437176194  0.5605345345766639  0.3387904722226674  1.0000
  C   C24       1.0  0.573841173715525  0.5964046732145037  0.336481593101533  1.0000
  H   H13       1.0  0.49491120612274236  0.5879386956441127  0.3586879197345022  1.0000
  H   H14       1.0  0.4785086199810267  0.524223482346897  0.36072637352442566  1.0000
  H   H15       1.0  0.5848550507930461  0.5530358250431117  0.333501325529318  1.0000
  H   H16       1.0  0.6001304872170098  0.6160937756303131  0.32918785792372585  1.0000
  C   C25       1.0  0.6742705815930276  0.7017355883258288  0.19319300637963796  1.0000
  C   C26       1.0  0.6683382165336574  0.6830090877164166  0.1676692509102314  1.0000
  C   C27       1.0  0.6937418387573774  0.6970863473886023  0.14568980930190914  1.0000
  C   C28       1.0  0.7251541310809296  0.7301831029115122  0.14903337100216305  1.0000
  C   C29       1.0  0.7310003739716164  0.7490168619724502  0.1744482466023592  1.0000
  C   C30       1.0  0.7057120386701504  0.7347981373897576  0.19652103094000378  1.0000
  H   H17       1.0  0.6441259400405996  0.6573995114474501  0.16499889737360032  1.0000
  H   H18       1.0  0.6890363226702515  0.6822795726204195  0.12624042280217723  1.0000
  H   H19       1.0  0.7552109654918718  0.7746570180779564  0.1771670760241558  1.0000
  H   H20       1.0  0.7104960442980897  0.7494366365836095  0.21607464838685003  1.0000
  C   C31       1.0  0.7393620668768519  0.7407197240271054  0.3809683602845794  1.0000
  C   C32       1.0  0.7530872299562588  0.7251970370622128  0.39972965472181043  1.0000
  C   C33       1.0  0.7546652256679285  0.7318032295004232  0.42895236131340586  1.0000
  C   C34       1.0  0.7434329734494869  0.7547799153190844  0.4394768480596038  1.0000
  C   C35       1.0  0.7301248803536433  0.7706603445963215  0.4206560743613024  1.0000
  C   C36       1.0  0.7275963035891859  0.7632509780034546  0.3915208207129991  1.0000
  H   H21       1.0  0.7625517187608821  0.7080366665655571  0.39161104708700434  1.0000
  H   H22       1.0  0.7656334489670941  0.7200457405326027  0.4431911868324684  1.0000
  H   H23       1.0  0.7217164860709153  0.788717236688307  0.42866382308227086  1.0000
  H   H24       1.0  0.7175913168291058  0.77583843065957  0.37715872971321635  1.0000
  C   C37       1.0  0.5173777128381445  0.0261045217583471  0.13796715905794218  1.0000
  C   C38       1.0  0.5217480759642712  0.06018970594755004  0.1413070936279347  1.0000
  C   C39       1.0  0.5562877832590222  0.09054589052112763  0.1413237814560677  1.0000
  C   C40       1.0  0.5867384291155183  0.0870023927645006  0.1383036098473282  1.0000
  C   C41       1.0  0.5824935067292482  0.05287893174635804  0.1355559397562663  1.0000
  C   C42       1.0  0.547889888146324  0.022509200070639945  0.13537632788889817  1.0000
  H   H25       1.0  0.4985939666958731  0.06324958498164912  0.14410497725417398  1.0000
  H   H26       1.0  0.5593614713140005  0.11679930746605265  0.14381001971699012  1.0000
  H   H27       1.0  0.6057484605989075  0.04981441585775121  0.1332068543605683  1.0000
  H   H28       1.0  0.5447572293826778  0.9962364948452965  0.13280351383032124  1.0000
  C   C43       1.0  0.6437899119607063  0.8809944117221797  0.3719551065633026  1.0000
  C   C44       1.0  0.6567167525211637  0.8570889751030659  0.37518933080892214  1.0000
  C   C45       1.0  0.6574331063325782  0.8371342091363003  0.3520203898639996  1.0000
  C   C46       1.0  0.644986309901447  0.8408565114528858  0.32552124649839537  1.0000
  C   C47       1.0  0.6313858090512029  0.8641851975471413  0.32244271100745087  1.0000
  C   C48       1.0  0.6306403222904651  0.8840685497385193  0.3455853276209529  1.0000
  H   H29       1.0  0.666951356661539  0.85459557563238  0.3955613169427374  1.0000
  H   H30       1.0  0.6684438609452512  0.8195999648114775  0.3545151461355816  1.0000
  H   H31       1.0  0.6214928401214315  0.8669902026917121  0.30201371153549605  1.0000
  H   H32       1.0  0.6198497236583418  0.9017453331898383  0.34301184687086983  1.0000
  C   C49       1.0  0.7078441933068934  0.05365833564682623  0.294991034305059  1.0000
  C   C50       1.0  0.6813862431558253  0.0196960902660952  0.285983521771583  1.0000
  C   C51       1.0  0.6757628241526271  0.011872518655564823  0.2569758473046979  1.0000
  C   C52       1.0  0.6956962720077225  0.03833010470580846  0.2367987225455914  1.0000
  C   C53       1.0  0.721526482705384  0.07257722867098662  0.24571448585921188  1.0000
  C   C54       1.0  0.7279374436218716  0.08004131429247285  0.2747689539100335  1.0000
  H   H33       1.0  0.6657809126599836  0.9991773398339253  0.3012679895765433  1.0000
  H   H34       1.0  0.6556944876935703  0.9853535727418953  0.25013546053294566  1.0000
  H   H35       1.0  0.7371199317720926  0.09309127797170295  0.2302351614345989  1.0000
  H   H36       1.0  0.7485282752038017  0.10634563394917868  0.2815884693591336  1.0000
  C   C55       1.0  0.6832265114741896  0.059568048759650216  0.4948131538305946  1.0000
  C   C56       1.0  0.6883646679903571  0.08428115901397412  0.5160762366740571  1.0000
  C   C57       1.0  0.705936668845704  0.08516577879858296  0.5414872525995695  1.0000
  C   C58       1.0  0.72754622778589  0.08594440612857758  0.041077317574997024  1.0000
  C   C59       1.0  0.7368145555505303  0.07408795868700722  0.01660075405085896  1.0000
  C   C60       1.0  0.6957589489229634  0.03567935642205529  0.4991148868843501  1.0000
  H   H37       1.0  0.6789029085820051  0.10298421854005012  0.512770656880701  1.0000
  H   H38       1.0  0.689184211194803  0.09788282265926672  0.05964422027543555  1.0000
  H   H39       1.0  0.760571096474057  0.0714832705165692  0.016764834657968145  1.0000
  H   H40       1.0  0.6918760874923182  0.016509885890391596  0.48285076237341223  1.0000
  C   C61       1.0  0.43960325042659054  0.2443680286343503  0.370157082493716  1.0000
  C   C62       1.0  0.4459727658713468  0.2776909030512028  0.3799878263110556  1.0000
  C   C63       1.0  0.4368885630420835  0.29910711902253656  0.36327312393452127  1.0000
  C   C64       1.0  0.421409602033542  0.28732571758583736  0.33654067852770586  1.0000
  C   C65       1.0  0.4149656096102025  0.2539637112003225  0.326739443260927  1.0000
  C   C66       1.0  0.4239626160701911  0.23250257062958823  0.343484588182962  1.0000
  H   H41       1.0  0.45813575309652227  0.28708739269864864  0.4005707154913432  1.0000
  H   H42       1.0  0.4420207924464426  0.3247559228695161  0.371002674667507  1.0000
  H   H43       1.0  0.4029829580301023  0.24464784248576005  0.3060935760907474  1.0000
  H   H44       1.0  0.41896044692703494  0.20690787130391367  0.33571000361886993  1.0000
  C   C67       1.0  0.3746458257599345  0.05867724935175532  0.2822525650204054  1.0000
  C   C68       1.0  0.397842964373313  0.09301912887666985  0.27177531853720144  1.0000
  C   C69       1.0  0.4043392277662512  0.09848320058762826  0.24254348944841117  1.0000
  C   C70       1.0  0.3884793024600349  0.06954341757922992  0.22375215351943217  1.0000
  C   C71       1.0  0.36600650789681444  0.03504035623625989  0.2342892490985172  1.0000
  C   C72       1.0  0.35872243031035417  0.0297122850331495  0.2634587972826664  1.0000
  H   H45       1.0  0.41002169000427857  0.11550726080657771  0.28609189116939304  1.0000
  H   H46       1.0  0.42167841747397733  0.12522626536065556  0.23449853891414454  1.0000
  H   H47       1.0  0.35352533069175235  0.012636947877021852  0.21990546690285212  1.0000
  H   H48       1.0  0.34068735595634525  0.0031107703771209305  0.27145464012574494  1.0000
  C   C73       1.0  0.4050000325138707  0.0619208827649043  0.4815881003577732  1.0000
  C   C74       1.0  0.38632677239390983  0.045847509108487776  0.5066671356736626  1.0000
  C   C75       1.0  0.4014686805374231  0.07376741944846596  0.00252368287885929  1.0000
  C   C76       1.0  0.40557859578626154  0.05606582531611871  0.026027275268315487  1.0000
  C   C77       1.0  0.42869511642861247  0.04218954451561851  0.024220805711720146  1.0000
  C   C78       1.0  0.4422047720619903  0.07593981231968168  0.4805963236201702  1.0000
  H   H49       1.0  0.35753755644768864  0.034957232655170666  0.5075661477583423  1.0000
  H   H50       1.0  0.38355629435092375  0.08449065498011406  0.0037774489716631  1.0000
  H   H51       1.0  0.4320744585806682  0.028575212639679687  0.04224340099729687  1.0000
  H   H52       1.0  0.4568208928185394  0.08831152431320673  0.46135844293260864  1.0000
  C   C79       1.0  0.5328377783001184  0.08216483347736997  0.36402504409902425  1.0000
  C   C80       1.0  0.5657215689259714  0.08442411564199555  0.3577127984051106  1.0000
  C   C81       1.0  0.5684799604008107  0.05342728645491998  0.3568809209501538  1.0000
  C   C82       1.0  0.5383639204764292  0.01999413976523745  0.3624212656325658  1.0000
  C   C83       1.0  0.5050701958759681  0.017508072029506883  0.3672587628009007  1.0000
  C   C84       1.0  0.5023114113608301  0.048515594517833  0.36806411311244963  1.0000
  H   H53       1.0  0.5893597765115987  0.11032370085735597  0.3541912393924241  1.0000
  H   H54       1.0  0.5939518338641415  0.055494271016007714  0.352056895657733  1.0000
  H   H55       1.0  0.4816118559491752  0.9916673364212903  0.37134664132951894  1.0000
  H   H56       1.0  0.47686803796312804  0.0463333997677226  0.37286622012732706  1.0000
  C   C85       1.0  0.2446756515111607  0.8173916239583864  0.19874651766458032  1.0000
  C   C86       1.0  0.2700023861438134  0.852793456033901  0.20598032848436237  1.0000
  C   C87       1.0  0.2878390524494849  0.8787727604431114  0.1847819519969292  1.0000
  C   C88       1.0  0.2803576463559994  0.8692907761175477  0.1562783412019077  1.0000
  C   C89       1.0  0.2559047969105107  0.8336979591494795  0.14908233481460006  1.0000
  C   C90       1.0  0.23826784636950007  0.8078096442326285  0.1702225659903559  1.0000
  H   H57       1.0  0.2752581316458711  0.8602904146263065  0.2280615594982646  1.0000
  H   H58       1.0  0.30668482756644533  0.9061832945611406  0.19051547335486854  1.0000
  H   H59       1.0  0.25021098742908293  0.8261733804502507  0.12703021775718504  1.0000
  H   H60       1.0  0.21955728048745293  0.7804508404643876  0.16444586001396716  1.0000
  C   C91       1.0  0.9081418120563797  0.2719568772398617  0.17504169805239175  1.0000
  C   C92       1.0  0.8878375784173339  0.23813911229762894  0.16260235027669348  1.0000
  C   C93       1.0  0.8502701546584742  0.218612823858978  0.16561722903771303  1.0000
  C   C94       1.0  0.8328720803789702  0.23278360729103267  0.18125022599265744  1.0000
  C   C95       1.0  0.8531978393925868  0.26654520958587413  0.19385758025740799  1.0000
  C   C96       1.0  0.890779439810689  0.28618474632720164  0.19070046382314781  1.0000
  H   H61       1.0  0.9011359698870167  0.22696623840896313  0.1505093504091268  1.0000
  H   H62       1.0  0.8347894556122863  0.19259925506286898  0.15585754249440173  1.0000
  H   H63       1.0  0.8397912229337154  0.27764504638576637  0.20590030814507385  1.0000
  H   H64       1.0  0.9062055271040325  0.31236758567793965  0.20014910869088776  1.0000
  C   C97       1.0  0.031680450492455256  0.5097198124265855  0.18395028978077213  1.0000
  C   C98       1.0  0.06514498415865523  0.5133022157582948  0.177686247289496  1.0000
  C   C99       1.0  0.094241332965913  0.5468667600360071  0.17013461902091667  1.0000
  C   C100      1.0  0.08994687086366518  0.5768990333195773  0.16896732312430904  1.0000
  C   C101      1.0  0.0559146143100233  0.5727422983323055  0.17343329691966736  1.0000
  C   C102      1.0  0.026872759651657807  0.5392651621919052  0.18093371275813094  1.0000
  H   H65       1.0  0.06891391470162302  0.4904597122643051  0.17927746885472007  1.0000
  H   H66       1.0  0.12040983604387061  0.5497891694120784  0.1664087852673109  1.0000
  H   H67       1.0  0.05185429383529377  0.5952800401812782  0.17128655296117826  1.0000
  H   H68       1.0  0.0008650042217319687  0.5364884755510427  0.18518853055020057  1.0000
  C   C103      1.0  0.9057513343909296  0.6833610999955876  0.48667011940799293  1.0000
  C   C104      1.0  0.9177956904214188  0.6953254995988701  0.0029459588167093376  1.0000
  C   C105      1.0  0.9023873305903986  0.7157631823019327  0.011483246419328852  1.0000
  C   C106      1.0  0.8649528753978815  0.6999232646304744  0.014434072589409135  1.0000
  C   C107      1.0  0.8600285007062215  0.6984897464202143  0.4995445733888727  1.0000
  C   C108      1.0  0.8830985758720629  0.6968669847302084  0.4793619889457207  1.0000
  H   H69       1.0  0.9466594944796124  0.7077182869922899  0.0007798731946124792  1.0000
  H   H70       1.0  0.9195434399997278  0.7439830378922767  0.015733765823240084  1.0000
  H   H71       1.0  0.8429086833857172  0.7092360681194998  0.49374208472978576  1.0000
  H   H72       1.0  0.8835547546687118  0.7063265210046158  0.4580012200254926  1.0000
  C   C109      1.0  0.08370286593899992  0.6982238090101808  0.3697375590931828  1.0000
  C   C110      1.0  0.10950925103141697  0.715296476696299  0.3483984519001875  1.0000
  C   C111      1.0  0.10390317389042089  0.7005909168133534  0.3210768774162936  1.0000
  C   C112      1.0  0.07264163695411525  0.6683097241213837  0.3150311702446192  1.0000
  C   C113      1.0  0.04685181625841549  0.6511134216378033  0.3363857223610808  1.0000
  C   C114      1.0  0.052117120979905486  0.6662156507011086  0.3635544204925973  1.0000
  H   H73       1.0  0.13404975827932306  0.7400116884956329  0.3530307979866279  1.0000
  H   H74       1.0  0.12400337080832415  0.7139876020842911  0.3048237497901341  1.0000
  H   H75       1.0  0.022484496748925737  0.6262408037928076  0.33178193172016673  1.0000
  H   H76       1.0  0.03182194984243193  0.6530166264166398  0.3796710041088788  1.0000
  C   C115      1.0  0.08522258136093187  0.7339983027238717  0.06437788163069788  1.0000
  C   C116      1.0  0.050245830662982494  0.7223401348792279  0.07384202682068963  1.0000
  C   C117      1.0  0.04335444937326716  0.7210230093341314  0.10305003950776075  1.0000
  C   C118      1.0  0.07117457771514692  0.7303471350516126  0.12277735222425781  1.0000
  C   C119      1.0  0.10599980156573556  0.7418851163978943  0.11316320245839832  1.0000
  C   C120      1.0  0.11311270604213278  0.7443160292531545  0.08409348890518903  1.0000
  H   H77       1.0  0.028640180480591804  0.714625622409905  0.05866940053686774  1.0000
  H   H78       1.0  0.016370414313440662  0.712307969448088  0.11036130959312693  1.0000
  H   H79       1.0  0.1277254987639928  0.7498131801341024  0.12802810959680486  1.0000
  H   H80       1.0  0.14025558090796741  0.7536744750288715  0.07682003017138773  1.0000
  C   C121      1.0  0.26594358370416055  0.4833982238449273  0.4923014236595008  1.0000
  C   C122      1.0  0.2556418062834768  0.4565761501103009  0.011090757849839816  1.0000
  C   C123      1.0  0.27324489211329656  0.45441809851735593  0.035561226059786545  1.0000
  C   C124      1.0  0.31015096096037786  0.4660755918521614  0.035135624683970614  1.0000
  C   C125      1.0  0.31603342547036084  0.48166768480796684  0.5152442125871729  1.0000
  C   C126      1.0  0.28962540412626525  0.4699788054412997  0.493957446285266  1.0000
  H   H81       1.0  0.22712341630797228  0.44725113595770055  0.011653065479633629  1.0000
  H   H82       1.0  0.2581524634783839  0.4435310446215932  0.05490018907737415  1.0000
  H   H83       1.0  0.33344399236454975  0.4703919944584736  0.5167817336801287  1.0000
  H   H84       1.0  0.2872024681867513  0.4499984339433341  0.47903697647597426  1.0000
  C   C127      1.0  0.10935220607355517  0.5668637395877337  0.5041057147130988  1.0000
  C   C128      1.0  0.11242549066364738  0.6003229092329371  0.5085430648231283  1.0000
  C   C129      1.0  0.08208512852876364  0.6044303861777358  0.5059441004657221  1.0000
  C   C130      1.0  0.04854428175616355  0.5750636772378052  0.4990909347597053  1.0000
  C   C131      1.0  0.04529319960307587  0.5414857399206335  0.4956539907678994  1.0000
  C   C132      1.0  0.07556725701666887  0.5374555115471353  0.4980223965665186  1.0000
  H   H85       1.0  0.13840919779531616  0.6231652182175982  0.5135340699723068  1.0000
  H   H86       1.0  0.08456553159303275  0.6301638320878373  0.5093814392014172  1.0000
  H   H87       1.0  0.019342352751912317  0.5185664095220228  0.49062525567001525  1.0000
  H   H88       1.0  0.0723688633458817  0.5114163333184002  0.4952295055732107  1.0000
  C   C133      1.0  0.09496733215277374  0.45513087312092043  0.3571982679117144  1.0000
  C   C134      1.0  0.07954422150169152  0.41874309258791287  0.3636161882559948  1.0000
  C   C135      1.0  0.061011097460399955  0.39297088404740294  0.3425158373366811  1.0000
  C   C136      1.0  0.05796334986635544  0.4034059982851866  0.31488645444338836  1.0000
  C   C137      1.0  0.07342231107286423  0.43979985863322196  0.30847219648054447  1.0000
  C   C138      1.0  0.09177579261559453  0.4655437418096702  0.3295879132513892  1.0000
  H   H89       1.0  0.08178325122249804  0.41048688002785216  0.3848403436131468  1.0000
  H   H90       1.0  0.04910688252395759  0.36487432911296386  0.34763415098992423  1.0000
  H   H91       1.0  0.07130201361957389  0.4480799791644691  0.28726906602359925  1.0000
  H   H92       1.0  0.10378456682313995  0.49365502370715664  0.3245077849348026  1.0000
  C   C139      1.0  0.10562419022875737  0.41338430995669917  0.06458504319816852  1.0000
  C   C140      1.0  0.13679097921003372  0.4177260577101731  0.0777383741310162  1.0000
  C   C141      1.0  0.1416397398124789  0.42397970993076123  0.1070402856475344  1.0000
  C   C142      1.0  0.11538650845251064  0.42591796507380913  0.12316656040867174  1.0000
  C   C143      1.0  0.085607738848964  0.42417547399596317  0.10952272814789778  1.0000
  C   C144      1.0  0.08057909026297871  0.4176155183353073  0.0803626939039183  1.0000
  H   H93       1.0  0.15614527841346534  0.4142224197213721  0.06568167921078563  1.0000
  H   H94       1.0  0.1649852598782939  0.4257073813970573  0.11742556331923132  1.0000
  H   H95       1.0  0.06614899235791882  0.4273529877331029  0.12143780387221938  1.0000
  H   H96       1.0  0.05655761580018592  0.4145335055235311  0.07018026465978769  1.0000
  Fe  Fe49      1.0  0.1281558999178861  0.4309194185006585  0.9944213203039508  1.0000
  S   S97       1.0  0.179823408300567  0.48299279063267125  0.9990387195473273  1.0000
  S   S98       1.0  0.062017615896099186  0.3899279380936051  0.5096355703286148  1.0000
  Fe  Fe50      1.0  0.12645668406962896  0.4370709619710062  0.9299930270441273  1.0000
  S   S99       1.0  0.17768926287876785  0.4900922603837381  0.9295001761098101  1.0000
  S   S100      1.0  0.09376348971498784  0.4042787429315187  0.8924023289122273  1.0000
  Fe  Fe51      1.0  0.19779356114593688  0.4650157584814915  0.961154107924351  1.0000
  S   S101      1.0  0.25296321550591394  0.47169645250037495  0.9546499168164138  1.0000
  Fe  Fe52      1.0  0.15502631669751488  0.5033280667060309  0.9673193879653942  1.0000
  S   S102      1.0  0.16228404439443578  0.5583600833482983  0.9741148566869611  1.0000
  S   S103      1.0  0.14806100557358395  0.4109354097521165  0.9591555850675999  1.0000
  S   S104      1.0  0.10201439358316351  0.4522375104835569  0.9652578546988508  1.0000
  Fe  Fe53      1.0  0.023978180306411412  0.6233803444919551  0.9760677282585709  1.0000
  S   S105      1.0  0.07129929717760929  0.6761337952742809  0.9635060981558234  1.0000
  S   S106      1.0  0.022297456621242384  0.5712068052863439  0.9842768587283206  1.0000
  Fe  Fe54      1.0  0.9733568807237541  0.6535988527692503  0.980619251496043  1.0000
  S   S107      1.0  0.017178406252688738  0.7092326897728084  0.9698346023996035  1.0000
  S   S108      1.0  0.9135778441621464  0.6326289842900803  0.9849769447249377  1.0000
  Fe  Fe55      1.0  0.03225343970688965  0.6828190324003087  0.9358161904128555  1.0000
  S   S109      1.0  0.038290664804707  0.7069108592670476  0.8918798690472167  1.0000
  Fe  Fe56      1.0  0.05203496628053483  0.697588426778626  0.998375959512473  1.0000
  S   S110      1.0  0.08788441075112745  0.7508585149908228  0.5370450563469106  1.0000
  S   S111      1.0  0.9865646473626931  0.6277944944859513  0.9452225695141753  1.0000
  S   S112      1.0  0.006857475041884831  0.6443423308002784  0.01240953782368992  1.0000
  Fe  Fe57      1.0  0.08131474814350503  0.4323309621809284  0.7302649347159402  1.0000
  S   S113      1.0  0.02702445891726457  0.42745006336051633  0.726198300773178  1.0000
  S   S114      1.0  0.11924227763067008  0.4637115575441107  0.7662790281224142  1.0000
  Fe  Fe58      1.0  0.07709880433164185  0.403948130864584  0.6699477985659911  1.0000
  S   S115      1.0  0.022511246656737205  0.39720000055092186  0.6615250206205961  1.0000
  S   S116      1.0  0.11147397580167753  0.3972228163800751  0.6370844461470428  1.0000
  Fe  Fe59      1.0  0.04465801171992245  0.45048630848541554  0.6827436324938777  1.0000
  S   S117      1.0  0.0335515506663  0.4931755836128219  0.6664591285716438  1.0000
  Fe  Fe60      1.0  0.00977957637779081  0.3743415227067702  0.7055755083905947  1.0000
  S   S118      1.0  0.9560691330283375  0.32715254559827217  0.7187688299860886  1.0000
  S   S119      1.0  0.10002794943462352  0.45901942434016196  0.6879005163684  1.0000
  S   S120      1.0  0.06324918702461413  0.3773905299046142  0.7129221043979569  1.0000
  Fe  Fe61      1.0  0.15055372671673733  0.6889753069695149  0.690351523450095  1.0000
  S   S121      1.0  0.09571976973276787  0.6692368295456439  0.7081500100075968  1.0000
  S   S122      1.0  0.16325351907740987  0.6522800004076748  0.6656376989773116  1.0000
  Fe  Fe62      1.0  0.18003523733973953  0.7638182548901615  0.7150789588378152  1.0000
  S   S123      1.0  0.12646514585089627  0.7497708276694217  0.7340861535206766  1.0000
  S   S124      1.0  0.2295463353803552  0.8165690620561744  0.7267033261601618  1.0000
  Fe  Fe63      1.0  0.12361328246889623  0.6984906998616491  0.7477483578389496  1.0000
  S   S125      1.0  0.1115738339066829  0.6707238569615357  0.7905645827588372  1.0000
  Fe  Fe64      1.0  0.10369911252254158  0.7218897318837175  0.6925913653062699  1.0000
  S   S126      1.0  0.057325990624932176  0.7190782217408377  0.6680203736478837  1.0000
  S   S127      1.0  0.1783589451685054  0.714046039670859  0.7310985471635014  1.0000
  S   S128      1.0  0.15733511712748846  0.7401630489394193  0.6723745508300627  1.0000
  Fe  Fe65      1.0  0.4609299017643343  0.09430520872315727  0.9049561392772286  1.0000
  S   S129      1.0  0.5072134882139148  0.14784550367299273  0.8928474127320737  1.0000
  S   S130      1.0  0.467014595199736  0.06717286057752693  0.9440357832995957  1.0000
  Fe  Fe66      1.0  0.4246702874997463  0.08624782268069242  0.8472874623379867  1.0000
  S   S131      1.0  0.46807518832044437  0.1394082274947545  0.8310998453036992  1.0000
  S   S132      1.0  0.38171032731959453  0.04570069410143988  0.8186202976169713  1.0000
  Fe  Fe67      1.0  0.5054278409274372  0.12337057942641097  0.8508855378061565  1.0000
  S   S133      1.0  0.5567035608112226  0.13340399207643314  0.8300801755908662  1.0000
  Fe  Fe68      1.0  0.4654577963383346  0.15910257678238457  0.8745404389890785  1.0000
  S   S134      1.0  0.4728819559596531  0.21325505491438565  0.8864093223854094  1.0000
  S   S135      1.0  0.46240523777646886  0.0690813410873718  0.8641308522824899  1.0000
  S   S136      1.0  0.41866246299208726  0.1066802876669083  0.8896072557805174  1.0000
  Fe  Fe69      1.0  0.6301947052793656  0.013772781308290183  0.8638988798812882  1.0000
  S   S137      1.0  0.6664256777085342  0.0676256288112219  0.8822831614695743  1.0000
  S   S138      1.0  0.5781312643102829  0.9992914462569076  0.8418663214173231  1.0000
  Fe  Fe70      1.0  0.6761555457438356  0.9836581418924484  0.8855682674209603  1.0000
  S   S139      1.0  0.71662960486269  0.03548384408377081  0.9062090858611728  1.0000
  S   S140      1.0  0.6774505114040207  0.9322893537497396  0.8906017366858623  1.0000
  Fe  Fe71      1.0  0.6686507784230058  0.038588588919679034  0.920935059223236  1.0000
  S   S141      1.0  0.657476708837479  0.059162831958060935  0.9612433890765023  1.0000
  Fe  Fe72      1.0  0.711067837283867  0.0603178856502513  0.8659204515585885  1.0000
  S   S142      1.0  0.7560842564571741  0.10825984610687941  0.8442645686112289  1.0000
  S   S143      1.0  0.6285257438021361  0.9848060966320559  0.9038063976930887  1.0000
  S   S144      1.0  0.6744691295157828  0.00838461454870898  0.8440872714199209  1.0000
  Fe  Fe73      1.0  0.38839761852197396  0.9650367278653913  0.6361482744197378  1.0000
  S   S145      1.0  0.38624533170000463  0.013276450493977743  0.6202244586402468  1.0000
  S   S146      1.0  0.3388595526434131  0.9105344646880232  0.6296654658034415  1.0000
  Fe  Fe74      1.0  0.4671235650597411  0.00975981812973159  0.654184341550681  1.0000
  S   S147      1.0  0.4701175700820764  0.060628249741216805  0.640127899620462  1.0000
  S   S148      1.0  0.5147383666043504  0.009633010386465912  0.6749245458690003  1.0000
  Fe  Fe75      1.0  0.4163493822974495  0.038725461129532554  0.6604572168600287  1.0000
  S   S149      1.0  0.4085054664019277  0.07717112729901002  0.6873639450477512  1.0000
  Fe  Fe76      1.0  0.4404668491723644  0.030390434107703267  0.6012318841059604  1.0000
  S   S150      1.0  0.46647436005948234  0.056768236897064527  0.5594445842400599  1.0000
  S   S151      1.0  0.41494904435223967  0.9895666407887205  0.6776063618426265  1.0000
  S   S152      1.0  0.4406148768240046  0.9803397505418969  0.614194061844265  1.0000
  Fe  Fe77      1.0  0.7154731695922097  0.13310966794210535  0.6502243338276594  1.0000
  S   S153      1.0  0.7070143532546063  0.0775725242359197  0.651961884501095  1.0000
  S   S154      1.0  0.6687634729175558  0.142750516205763  0.6495270071419487  1.0000
  Fe  Fe78      1.0  0.7962585546605974  0.16811050204842554  0.6417972737731328  1.0000
  S   S155      1.0  0.7936257329016321  0.11505525440097358  0.6431565957889264  1.0000
  S   S156      1.0  0.8508557644028443  0.21368896131151582  0.6290406016224841  1.0000
  Fe  Fe79      1.0  0.7450778534264008  0.09549927530637244  0.6152319440872068  1.0000
  S   S157      1.0  0.7395067541502078  0.06060899576755836  0.5778474941157853  1.0000
  Fe  Fe80      1.0  0.7562182021941292  0.10262698306363172  0.6796773876630162  1.0000
  S   S158      1.0  0.7628371742541183  0.0718061224470712  0.7155693641536232  1.0000
  S   S159      1.0  0.7500107054716735  0.14924813986306787  0.6112682305788874  1.0000
  S   S160      1.0  0.7622591793529802  0.15741304253460056  0.6806986667412092  1.0000
  Fe  Fe81      1.0  0.6793167059049147  0.7900885264562578  0.794319714318663  1.0000
  S   S161      1.0  0.7335376715768743  0.7944803313901511  0.7935094614439321  1.0000
  S   S162      1.0  0.6775842513120047  0.8408910769402901  0.7858315656900675  1.0000
  Fe  Fe82      1.0  0.6408775175459489  0.708884917919787  0.798999696686603  1.0000
  S   S163      1.0  0.6922693167013487  0.7074295771490022  0.797811712393466  1.0000
  S   S164      1.0  0.5867796882369978  0.6592440920450796  0.8058120889019815  1.0000
  Fe  Fe83      1.0  0.7124438921658359  0.7533575944905919  0.8280583218254869  1.0000
  S   S165      1.0  0.7478411256282973  0.7532262679848589  0.8633944142027921  1.0000
  Fe  Fe84      1.0  0.7084291658451568  0.7484162400373863  0.7632534754389114  1.0000
  S   S166      1.0  0.7439287892775801  0.7528488297892157  0.7264228455002498  1.0000
  S   S167      1.0  0.6599645965027819  0.7524812494369174  0.8316394257905656  1.0000
  S   S168      1.0  0.6551251513796292  0.7462163021542435  0.7617690196439549  1.0000
  Fe  Fe85      1.0  0.47896178216279933  0.3794755901883344  0.8099338957491827  1.0000
  S   S169      1.0  0.4267116823815437  0.37956643112307753  0.8109011606572628  1.0000
  S   S170      1.0  0.47810074698725014  0.3278856199955383  0.7988849073029138  1.0000
  Fe  Fe86      1.0  0.5228668990052698  0.46131524378878014  0.8068326272733226  1.0000
  S   S171      1.0  0.4738963115006441  0.4669140590817415  0.8061491496275695  1.0000
  S   S172      1.0  0.578467247089155  0.5091277368451494  0.8017513317392587  1.0000
  Fe  Fe87      1.0  0.45482177168652765  0.4256890434697596  0.8408665831346355  1.0000
  S   S173      1.0  0.42713926394192037  0.4386570531610815  0.8753367064043799  1.0000
  Fe  Fe88      1.0  0.45052779950807853  0.4206367802011006  0.776366780706745  1.0000
  S   S174      1.0  0.41501479897525617  0.4143462733141989  0.7388348537882404  1.0000
  S   S175      1.0  0.5055442754616141  0.42246734792022544  0.8432972540195806  1.0000
  S   S176      1.0  0.501271657169811  0.41858223799554173  0.7737169368967225  1.0000
  Fe  Fe89      1.0  0.7454899392324587  0.7242643966497327  0.506900855998412  1.0000
  S   S177      1.0  0.738244199162318  0.6736687323089947  0.0072891839900754984  1.0000
  S   S178      1.0  0.6998926555232308  0.7396497978504551  0.9915296758505083  1.0000
  Fe  Fe90      1.0  0.7192124978911537  0.6958971272593092  0.5670515326031247  1.0000
  S   S179      1.0  0.7293170321310649  0.6502450314863284  0.5610032650957569  1.0000
  S   S180      1.0  0.6844486501859208  0.6965511311555052  0.6027808829284432  1.0000
  Fe  Fe91      1.0  0.781240996708079  0.6908649303820578  0.5404166630024325  1.0000
  S   S181      1.0  0.8305525427650637  0.6875708405293794  0.5530083764412829  1.0000
  Fe  Fe92      1.0  0.7053713554362526  0.6446242572287327  0.517850897749504  1.0000
  S   S182      1.0  0.6647194969380872  0.5902565374901523  0.501284287675789  1.0000
  S   S183      1.0  0.7728971886972275  0.7374420549470848  0.5496146528459744  1.0000
  S   S184      1.0  0.691394190932178  0.6870653789774436  0.5251707641106225  1.0000
  Fe  Fe93      1.0  0.4691095366246909  0.5339268302549077  0.531899521634985  1.0000
  S   S185      1.0  0.4746817250550253  0.48987331588163124  0.5514971154075248  1.0000
  S   S186      1.0  0.5110978882085123  0.5760798134777984  0.5035448592322823  1.0000
  Fe  Fe94      1.0  0.39544621247561523  0.5079100467951788  0.5584570703812368  1.0000
  S   S187      1.0  0.39552287806226927  0.46175793252236635  0.5808822830085334  1.0000
  S   S188      1.0  0.3502014250499723  0.52002240293037  0.563150490270289  1.0000
  Fe  Fe95      1.0  0.4534991854296198  0.5012362790895025  0.5909916177096034  1.0000
  S   S189      1.0  0.4872395018808446  0.5098457199927178  0.6303809140326433  1.0000
  Fe  Fe96      1.0  0.4168091526894038  0.4549258404841359  0.5394300901949381  1.0000
  S   S190      1.0  0.4322605398098925  0.40323767564087  0.004840573458014585  1.0000
  S   S191      1.0  0.4517635577796235  0.5481288883733931  0.5720656500446005  1.0000
  S   S192      1.0  0.4223892292935498  0.4865227456041208  0.027112948066848164  1.0000
  C   C145      1.0  0.6215867720490966  0.5852750335332861  0.49993502565983955  1.0000
  C   C146      1.0  0.591270581003479  0.5522211509688533  0.5063201429627708  1.0000
  C   C147      1.0  0.5571192806517191  0.5490050414178141  0.5075861335320643  1.0000
  C   C148      1.0  0.553149707121738  0.5786655228301197  0.501849712055013  1.0000
  C   C149      1.0  0.5832471472095934  0.6112025190721402  0.4942250818058129  1.0000
  C   C150      1.0  0.6173714653749199  0.6145545611896039  0.49351290711710993  1.0000
  H   H97       1.0  0.5943391780065445  0.5293835531080594  0.511158570706084  1.0000
  H   H98       1.0  0.5340721052901877  0.5236210640725241  0.5131120194792819  1.0000
  H   H99       1.0  0.5803011397796685  0.6341441390152155  0.48948671544133937  1.0000
  H   H100      1.0  0.6404086193408245  0.6398373005137519  0.4878175802754149  1.0000
  C   C151      1.0  0.4353864272301527  0.4384815660775122  0.707752856138834  1.0000
  C   C152      1.0  0.41372267342852415  0.4396996958294253  0.6859715841910303  1.0000
  C   C153      1.0  0.4293630837885228  0.46063988960804775  0.6616730106316495  1.0000
  C   C154      1.0  0.46677208307312007  0.48050475976896356  0.6591139215674784  1.0000
  C   C155      1.0  0.48843568223834594  0.4785229009011709  0.6805791123311805  1.0000
  C   C156      1.0  0.4727796989244532  0.45737350789770487  0.7047988746009931  1.0000
  H   H101      1.0  0.38475443958728667  0.4250262510858122  0.6881415273216634  1.0000
  H   H102      1.0  0.41248302420156924  0.4620973475442728  0.6452635232354192  1.0000
  H   H103      1.0  0.5174061813899976  0.49354330769557764  0.6785262883868467  1.0000
  H   H104      1.0  0.4896235892936395  0.45617169672410096  0.7213635417342997  1.0000
  C   C157      1.0  0.43009951066916075  0.4290019451631176  0.9110451734586306  1.0000
  C   C158      1.0  0.4204397890247235  0.4457405589812073  0.9316818169344899  1.0000
  C   C159      1.0  0.42151939937339894  0.43829424547406615  0.9604396655387348  1.0000
  C   C160      1.0  0.4316101804748362  0.41352896589624283  0.968812793126892  1.0000
  C   C161      1.0  0.44123676055716105  0.39664373686953014  0.9481868175573804  1.0000
  C   C162      1.0  0.44084697799444106  0.4046320781594116  0.9192977193446722  1.0000
  H   H105      1.0  0.4121252410311863  0.46462665005114573  0.9253408621937543  1.0000
  H   H106      1.0  0.4140980156357994  0.4514885682875255  0.9759686889553365  1.0000
  H   H107      1.0  0.44898255990962155  0.3773316468936713  0.9545161709780339  1.0000
  H   H108      1.0  0.44809867625917205  0.39143155170419797  0.9034177121526428  1.0000
  C   C163      1.0  0.5861204557930106  0.6182723001525299  0.8061350838897895  1.0000
  C   C164      1.0  0.5577433736888856  0.5886350568740077  0.8195892324511284  1.0000
  C   C165      1.0  0.5556128131979227  0.5551658281687791  0.8189169233445633  1.0000
  C   C166      1.0  0.5818256674338078  0.5511840147181651  0.8046770000964568  1.0000
  C   C167      1.0  0.6107367554846835  0.5810460754977579  0.79189226792758  1.0000
  C   C168      1.0  0.6127809667214158  0.6144947396633553  0.7924656191516469  1.0000
  H   H109      1.0  0.5371854955622634  0.591497018630959  0.8303894331948566  1.0000
  H   H110      1.0  0.5336629549335515  0.532450569955968  0.8293815644264375  1.0000
  H   H111      1.0  0.6310997845808888  0.5780865973307071  0.7808550709087456  1.0000
  H   H112      1.0  0.6344457874676808  0.6370292054052126  0.7816211996592157  1.0000
  C   C169      1.0  0.7267660709046775  0.7365116087057393  0.6923317968357512  1.0000
  C   C170      1.0  0.6903851693847993  0.7225509697834783  0.6858041571343916  1.0000
  C   C171      1.0  0.6778479245429173  0.7105631052373559  0.6581937548884786  1.0000
  C   C172      1.0  0.7015130947967558  0.7122481416298565  0.6370244443638997  1.0000
  C   C173      1.0  0.7378769511081719  0.7262291772025214  0.6435634160639041  1.0000
  C   C174      1.0  0.7504549870284245  0.7384503939632604  0.6711232863786479  1.0000
  H   H113      1.0  0.6719724530755694  0.7210698008609162  0.7019731041823527  1.0000
  H   H114      1.0  0.649731530962643  0.7000126043550309  0.6532126652542757  1.0000
  H   H115      1.0  0.7563038222764008  0.727656799993356  0.6274009533167435  1.0000
  H   H116      1.0  0.7786487141742879  0.7492446616604693  0.6760545351986496  1.0000
  C   C175      1.0  0.7350233229028634  0.7514232191926752  0.8989592630404788  1.0000
  C   C176      1.0  0.7530176719410011  0.7431851981302804  0.9198831021908862  1.0000
  C   C177      1.0  0.7424152667315249  0.7396733836382666  0.9483172060075885  1.0000
  C   C178      1.0  0.7139110482502004  0.7446953385340482  0.9560347418299906  1.0000
  C   C179      1.0  0.6961015104240081  0.7533210937864171  0.935178423027185  1.0000
  C   C180      1.0  0.7065729941359755  0.7566033946941055  0.9066517144592513  1.0000
  H   H117      1.0  0.775182637833733  0.7393704478706108  0.9140741406651464  1.0000
  H   H118      1.0  0.7566019761230856  0.7334665608438223  0.9642877526293138  1.0000
  H   H119      1.0  0.6741890644560881  0.7574811706974476  0.9410798501990821  1.0000
  H   H120      1.0  0.692864373077933  0.7634511825233568  0.8907177427443269  1.0000
  C   C181      1.0  0.5575609505816095  0.046893155985552694  0.6681922573687153  1.0000
  C   C182      1.0  0.5615443603601763  0.07486927412435768  0.6507487108335148  1.0000
  C   C183      1.0  0.5956862738736909  0.1045387797095372  0.6458504179768827  1.0000
  C   C184      1.0  0.6263114808947471  0.10609890268769946  0.6577498681405491  1.0000
  C   C185      1.0  0.6226027005877546  0.0779362079773102  0.6749179615139517  1.0000
  C   C186      1.0  0.5882151771707278  0.04853712576665422  0.6803441170647565  1.0000
  H   H121      1.0  0.5385410855917816  0.07360185787960793  0.6405451390807276  1.0000
  H   H122      1.0  0.5984349312527478  0.12605573784050766  0.6322930686514397  1.0000
  H   H123      1.0  0.6461428405939411  0.07908383740818078  0.6843696441731296  1.0000
  H   H124      1.0  0.5854049779506882  0.027007355099727404  0.6938953316589779  1.0000
  C   C187      1.0  0.6795218176288372  0.9082123653782491  0.8612858664895925  1.0000
  C   C188      1.0  0.6742750260455969  0.8737810767141171  0.8656548587272423  1.0000
  C   C189      1.0  0.6743216231358127  0.8532111514633052  0.8427281583656236  1.0000
  C   C190      1.0  0.6794179843186109  0.8668743661115879  0.8151870214661215  1.0000
  C   C191      1.0  0.6851074270835026  0.9015175897660379  0.8107851800954705  1.0000
  C   C192      1.0  0.68538949292169  0.9222344863233501  0.833789788401602  1.0000
  H   H125      1.0  0.6699989047496501  0.8628719107595888  0.8868914843179112  1.0000
  H   H126      1.0  0.6700508840456832  0.8266452484923651  0.8464000867947425  1.0000
  H   H127      1.0  0.6894503239159833  0.9124044317895593  0.7895543868081348  1.0000
  H   H128      1.0  0.6904068012641484  0.9490763017704285  0.830299373957679  1.0000
  C   C193      1.0  0.7572979633387761  0.0983903376393296  0.8083209382363645  1.0000
  C   C194      1.0  0.7533528283264803  0.06541648328287206  0.8007044598190585  1.0000
  C   C195      1.0  0.7548666594219067  0.0576130332864477  0.7721497909654064  1.0000
  C   C196      1.0  0.7592674026866304  0.08224970049956992  0.7509276772479718  1.0000
  C   C197      1.0  0.7626469417013501  0.11510362077624675  0.7584317160470561  1.0000
  C   C198      1.0  0.762298360592786  0.12340415706856407  0.7871666939104648  1.0000
  H   H129      1.0  0.7498845043463246  0.046138969572027344  0.8168953402163232  1.0000
  H   H130      1.0  0.7524723189820356  0.03228122710573733  0.7664886090353857  1.0000
  H   H131      1.0  0.7658461094838853  0.13420766779209303  0.7422146080294673  1.0000
  H   H132      1.0  0.7650873765580238  0.14885110101819762  0.7929695051189698  1.0000
  C   C199      1.0  0.684455728208354  0.06839521167479228  0.9918674251939499  1.0000
  C   C200      1.0  0.6752556309332044  0.08030077474085406  0.016304946864965197  1.0000
  C   C201      1.0  0.6965689019229803  0.08882685079469985  0.04089092165624075  1.0000
  C   C202      1.0  0.7181681157047042  0.06104415993966171  0.5459445874948858  1.0000
  C   C203      1.0  0.7131601895084357  0.03643261752783952  0.5246467566777321  1.0000
  C   C204      1.0  0.7151688658736617  0.06502036899274508  0.9921211215204697  1.0000
  H   H133      1.0  0.651468648524323  0.0828462977746173  0.016309248394618114  1.0000
  H   H134      1.0  0.7100892532168636  0.1046089710337356  0.5575227964117221  1.0000
  H   H135      1.0  0.7226219426597107  0.017711866025059475  0.5279213656505749  1.0000
  H   H136      1.0  0.72215382090792  0.0552894188130324  0.9735803474915811  1.0000
  C   C205      1.0  0.4712373570214397  0.24348714674758265  0.8619251987024383  1.0000
  C   C206      1.0  0.4758693626719733  0.276127527167118  0.87184896916879  1.0000
  C   C207      1.0  0.4774026039081267  0.30207406212198235  0.8528505282667069  1.0000
  C   C208      1.0  0.4746704795279103  0.29563136353460545  0.8237356029911759  1.0000
  C   C209      1.0  0.46992081813788644  0.26294566103602013  0.8138060978123828  1.0000
  C   C210      1.0  0.46795030192269826  0.2368404014250075  0.8328133089250572  1.0000
  H   H137      1.0  0.4785042171365606  0.28146730739096215  0.8943518640071362  1.0000
  H   H138      1.0  0.48109224364812364  0.3271643850912542  0.8607081281973686  1.0000
  H   H139      1.0  0.46768765877090673  0.25775590158931955  0.7912979217061284  1.0000
  H   H140      1.0  0.4640520715934603  0.21170597239713002  0.8249215512576817  1.0000
  C   C211      1.0  0.39093015047728363  0.05500189278746654  0.7824017101720021  1.0000
  C   C212      1.0  0.40414864746302337  0.0896606749750867  0.7718295671421531  1.0000
  C   C213      1.0  0.40954172874274014  0.096253041558486  0.7426036981418785  1.0000
  C   C214      1.0  0.4026474782417705  0.06843853973745731  0.7239440772014905  1.0000
  C   C215      1.0  0.3902603732368778  0.03398002005449874  0.7346048478766035  1.0000
  C   C216      1.0  0.3838879580334785  0.027156040353448766  0.7637135853295965  1.0000
  H   H141      1.0  0.40901148425035744  0.11113817840182459  0.7860808250068032  1.0000
  H   H142      1.0  0.4189187509208914  0.12293904940693573  0.7344493466465936  1.0000
  H   H143      1.0  0.3848331860292142  0.012425168800161977  0.720425124766814  1.0000
  H   H144      1.0  0.37360861710859594  0.0003115447070736187  0.7718523590464584  1.0000
  C   C217      1.0  0.44310154884021824  0.06331954362276943  0.9753522938203503  1.0000
  C   C218      1.0  0.4201414150460073  0.07737327958867857  0.9772268601686692  1.0000
  C   C219      1.0  0.4047447605884834  0.04384156522649101  0.5307169053123622  1.0000
  C   C220      1.0  0.4419876498714321  0.05804088147488187  0.529784318590808  1.0000
  C   C221      1.0  0.46061288128492467  0.07407457639255657  0.5046538416191672  1.0000
  C   C222      1.0  0.4473937198611005  0.045822325193375577  0.9989359372085234  1.0000
  H   H145      1.0  0.41663972913226566  0.09085757902147401  0.9591685677854311  1.0000
  H   H146      1.0  0.39019696221400196  0.03139270654181025  0.5499724665598277  1.0000
  H   H147      1.0  0.4894272036392074  0.08513880704555452  0.5038611637192016  1.0000
  H   H148      1.0  0.46510711301275404  0.03488989352727391  0.9976394322184603  1.0000
  C   C223      1.0  0.5625796122598148  0.09589258100187105  0.8312196265469532  1.0000
  C   C224      1.0  0.5973293469162588  0.10076583884624689  0.832050604990017  1.0000
  C   C225      1.0  0.602345922541631  0.07115720429345677  0.8346474038981622  1.0000
  C   C226      1.0  0.5726275133738541  0.03652786804149479  0.836166334007352  1.0000
  C   C227      1.0  0.5379353381174026  0.03155981920017025  0.8340476026683041  1.0000
  C   C228      1.0  0.5329418133847398  0.06114250395582929  0.8316423583747731  1.0000
  H   H149      1.0  0.6204453727543886  0.1274853775804901  0.8311385758829771  1.0000
  H   H150      1.0  0.6292555060307029  0.07518497967216592  0.8350882564206635  1.0000
  H   H151      1.0  0.5148258181097821  0.0048241751142776845  0.834823361126989  1.0000
  H   H152      1.0  0.5060826915475225  0.05682692091347998  0.8298619708823639  1.0000
  C   C229      1.0  0.2605832288716592  0.8414675325772901  0.6996690503195423  1.0000
  C   C230      1.0  0.2942953310717363  0.8707224505141247  0.7068925731708183  1.0000
  C   C231      1.0  0.31899794721472313  0.8916762106394406  0.6856952127774331  1.0000
  C   C232      1.0  0.3099708200801104  0.883656354383609  0.6571181282934063  1.0000
  C   C233      1.0  0.2764424865519324  0.8542149328518964  0.6499582971779649  1.0000
  C   C234      1.0  0.25185915233150985  0.8331892942707277  0.6711104466229723  1.0000
  H   H153      1.0  0.30141003221039453  0.8770476667459555  0.728953904747639  1.0000
  H   H154      1.0  0.3450682808451797  0.9138316388749452  0.6914108190034783  1.0000
  H   H155      1.0  0.26931134904736154  0.8477996614692436  0.6278950845085869  1.0000
  H   H156      1.0  0.22602679796533506  0.8108026790781092  0.6652502510180207  1.0000
  C   C235      1.0  0.9265882987183772  0.29803655362963294  0.6926564954509876  1.0000
  C   C236      1.0  0.8899456015585846  0.27620529807354965  0.6990618005466817  1.0000
  C   C237      1.0  0.8662179302604275  0.2509055852479084  0.6794240989693188  1.0000
  C   C238      1.0  0.8791422016675295  0.246908071951768  0.6534158419451903  1.0000
  C   C239      1.0  0.9156034035237561  0.26924143686792745  0.6467619462096474  1.0000
  C   C240      1.0  0.9392702128007733  0.2947872340707136  0.6662878649357488  1.0000
  H   H157      1.0  0.8799243364363605  0.27899491222125566  0.7192859534045957  1.0000
  H   H158      1.0  0.8379551752859516  0.23461532532113974  0.6843708194936443  1.0000
  H   H159      1.0  0.925762671235566  0.26653671130036116  0.6265813473544498  1.0000
  H   H160      1.0  0.9674640085727558  0.3114506666864988  0.6611793442620347  1.0000
  C   C241      1.0  0.06997287026035967  0.5370945741608771  0.6642751815367002  1.0000
  C   C242      1.0  0.10551605880645067  0.5442590104276213  0.6636083929909911  1.0000
  C   C243      1.0  0.13408998134836655  0.5797397981736367  0.6631646343574907  1.0000
  C   C244      1.0  0.12721039423259953  0.6081387050083564  0.6638851988744436  1.0000
  C   C245      1.0  0.0916400185449105  0.6009279307715323  0.663606062627148  1.0000
  C   C246      1.0  0.06312214759116075  0.5655016919251581  0.6635701056505493  1.0000
  H   H161      1.0  0.11111800641658373  0.5226116653251422  0.6634011452486066  1.0000
  H   H162      1.0  0.16157594968501457  0.5851870143786674  0.6630836221125721  1.0000
  H   H163      1.0  0.08590093488645684  0.6225170845821459  0.663332289743694  1.0000
  H   H164      1.0  0.03564451103962529  0.5601036215780367  0.6636864913362955  1.0000
  C   C247      1.0  0.8957286972492168  0.6589549598371645  0.9971261380706257  1.0000
  C   C248      1.0  0.9048981525434396  0.6710742776798054  0.5142665996318804  1.0000
  C   C249      1.0  0.8820617857587986  0.6729852530650072  0.534518115155  1.0000
  C   C250      1.0  0.8594240844232865  0.6864995781902528  0.527182158431535  1.0000
  C   C251      1.0  0.8429187012587984  0.6634970064526271  0.008889925055793668  1.0000
  C   C252      1.0  0.8583067057816972  0.6431289127679319  0.00011344798002799195  1.0000
  H   H165      1.0  0.9215933089760032  0.6598053525141225  0.5199228032954452  1.0000
  H   H166      1.0  0.8815648651781219  0.6635071524658253  0.555872008482698  1.0000
  H   H167      1.0  0.8140544812904874  0.6510929363609408  0.011120226698830837  1.0000
  H   H168      1.0  0.8411367555371437  0.6149651902657838  0.9956282647668616  1.0000
  C   C253      1.0  0.05828666281969226  0.6961477543586214  0.863875141943178  1.0000
  C   C254      1.0  0.07109982809387763  0.6723856970166722  0.8676779528238411  1.0000
  C   C255      1.0  0.08686146305678577  0.664444981241049  0.8448833542524379  1.0000
  C   C256      1.0  0.08998105744221052  0.680195069872334  0.818162745346964  1.0000
  C   C257      1.0  0.07709774022167616  0.7039045732301494  0.8143341935833796  1.0000
  C   C258      1.0  0.06136892980277704  0.7118671040278278  0.8371359532753416  1.0000
  H   H169      1.0  0.06881384641270133  0.6600794236671826  0.8881697109260387  1.0000
  H   H170      1.0  0.09678242243435863  0.6460918038132549  0.8480552515495583  1.0000
  H   H171      1.0  0.07902107590452899  0.7159479423959528  0.7937989873218457  1.0000
  H   H172      1.0  0.051398487199655445  0.730182956257116  0.8340183005101273  1.0000
  C   C259      1.0  0.07863780444743465  0.7413421407710963  0.5733016636139728  1.0000
  C   C260      1.0  0.104471994743907  0.7635947715849946  0.5931431354521384  1.0000
  C   C261      1.0  0.09819426704327383  0.756700860945864  0.6222478779176276  1.0000
  C   C262      1.0  0.0656698422776467  0.727945176228333  0.6316636996098001  1.0000
  C   C263      1.0  0.03953015064892339  0.7060231688545778  0.611842665690944  1.0000
  C   C264      1.0  0.04624516344162734  0.7122950353198859  0.5826849714251333  1.0000
  H   H173      1.0  0.12956153766013045  0.7861403791156846  0.5860051724238017  1.0000
  H   H174      1.0  0.11831171586643952  0.7739421025878357  0.63744568297607  1.0000
  H   H175      1.0  0.014325444337329516  0.6837422645586771  0.6191037574580559  1.0000
  H   H176      1.0  0.02625039224141812  0.6947353339859385  0.5676331575137891  1.0000
  C   C265      1.0  0.2748515661911305  0.47034513128773137  0.985954064494931  1.0000
  C   C266      1.0  0.2692578530601263  0.5091733130262056  0.5117353094126931  1.0000
  C   C267      1.0  0.29606086221325445  0.5212410669795233  0.5328325509469358  1.0000
  C   C268      1.0  0.3192882150383735  0.5072504825651957  0.5348158081084049  1.0000
  C   C269      1.0  0.32947987956171404  0.48033791758440436  0.010086682509704348  1.0000
  C   C270      1.0  0.31182106590238823  0.48223264901897606  0.985516871682673  1.0000
  H   H177      1.0  0.2513686013514377  0.5199558289279737  0.5103699190721583  1.0000
  H   H178      1.0  0.29869851807038333  0.5413653652171568  0.5477014401865282  1.0000
  H   H179      1.0  0.35807244971802743  0.49028068081921544  0.009708267049830743  1.0000
  H   H180      1.0  0.32691585487150254  0.4932896917611507  0.9662190839598087  1.0000
  C   C271      1.0  0.12324676668346334  0.5619426425869097  0.9758887798675179  1.0000
  C   C272      1.0  0.1264216568536602  0.5958738939460733  0.9764673688911207  1.0000
  C   C273      1.0  0.09560571097151203  0.5992298932476946  0.9786098308600543  1.0000
  C   C274      1.0  0.06157707720937664  0.5685966409036803  0.9806080680368984  1.0000
  C   C275      1.0  0.0585518922587458  0.5348161454938162  0.9806418090955318  1.0000
  C   C276      1.0  0.08920024779001011  0.5314879442843985  0.9780567961544024  1.0000
  H   H181      1.0  0.15271328388570793  0.619589561026248  0.9749049022883434  1.0000
  H   H182      1.0  0.09820357237206188  0.6254231216134121  0.978715210456097  1.0000
  H   H183      1.0  0.032281013596220154  0.5110506889851748  0.9822370573012348  1.0000
  H   H184      1.0  0.0862360093631082  0.5052702373091105  0.9777552387588623  1.0000
  C   C277      1.0  0.10008890025884082  0.42184632809950245  0.8577023544514738  1.0000
  C   C278      1.0  0.1256456304507323  0.457446521141235  0.8517222975330294  1.0000
  C   C279      1.0  0.13113712376102285  0.46999847824535546  0.8235894869390579  1.0000
  C   C280      1.0  0.1107382208706947  0.44723606238036445  0.8013542919414375  1.0000
  C   C281      1.0  0.08477865232287843  0.4118480720344054  0.8074093512397722  1.0000
  C   C282      1.0  0.07964220898248751  0.3991823681058521  0.8354790928289361  1.0000
  H   H185      1.0  0.1410487866086946  0.47526702265701004  0.8687489876565799  1.0000
  H   H186      1.0  0.15108625449143556  0.49748903072506745  0.8190366782692488  1.0000
  H   H187      1.0  0.06890483933107872  0.39412092901504214  0.7904423484083063  1.0000
  H   H188      1.0  0.05972332001423126  0.37165083433563556  0.8399853139332093  1.0000
  C   C283      1.0  0.07487458794666411  0.3884669438690603  0.5448429880896312  1.0000
  C   C284      1.0  0.11050693248124785  0.39878644559981136  0.5514708609426399  1.0000
  C   C285      1.0  0.12093178166424262  0.3997670633439149  0.5798044562716947  1.0000
  C   C286      1.0  0.09617767160230355  0.3914828162998227  0.6017568100209009  1.0000
  C   C287      1.0  0.060275005706094786  0.3800985624411851  0.5951036891633829  1.0000
  C   C288      1.0  0.049567978724538504  0.37825030582131514  0.5666761738492565  1.0000
  H   H189      1.0  0.12991713247623557  0.40558523766112387  0.5346962129838457  1.0000
  H   H190      1.0  0.14832692629254227  0.4075443406790545  0.5847348148699099  1.0000
  H   H191      1.0  0.04067177696541213  0.37245763750806327  0.611775357622438  1.0000
  H   H192      1.0  0.021822755809295824  0.3697179588736337  0.5616372025363048  1.0000
  N   N1        1.0  0.5559677664788341  0.05312214821669392  0.9281964644531209  1.0000
  C   C289      1.0  0.5863877011004948  0.0785676665412216  0.9460366915960351  1.0000
  C   C290      1.0  0.5249338119296456  0.03009807271517606  0.94647805448833  1.0000
  C   C291      1.0  0.5666900665441251  0.03071143432474943  0.9121631213547312  1.0000
  C   C292      1.0  0.5459082578715027  0.07313208230105106  0.9082060915817102  1.0000
  H   H193      1.0  0.5797289562241154  0.09684982058172475  0.9576082008405541  1.0000
  H   H194      1.0  0.6109132960828936  0.09520328167432646  0.9331639754158517  1.0000
  H   H195      1.0  0.5935755997187561  0.06428669141299159  0.962186149784585  1.0000
  H   H196      1.0  0.5174875004088973  0.04636414069177697  0.9600287537809851  1.0000
  H   H197      1.0  0.5006669907544373  0.012080991493542248  0.9337282374809677  1.0000
  H   H198      1.0  0.5309343322833351  0.013235470732529064  0.960837771167573  1.0000
  H   H199      1.0  0.5441960641834372  0.010700172268125252  0.8988269167947182  1.0000
  H   H200      1.0  0.5755106757361999  0.01604427281839027  0.9265667865796678  1.0000
  H   H201      1.0  0.5895339881326459  0.04721116053674623  0.8977157800916047  1.0000
  H   H202      1.0  0.5376665529651236  0.09034526015928779  0.9196002147591221  1.0000
  H   H203      1.0  0.5227514708847365  0.0547091643477593  0.8946229849660355  1.0000
  H   H204      1.0  0.5685994344149066  0.09064423050590564  0.8939397329974025  1.0000
  N   N2        1.0  0.5449074245433152  0.5638529875664171  0.15519509317393076  1.0000
  C   C293      1.0  0.5530118086760986  0.5982194412114931  0.1680997206754294  1.0000
  C   C294      1.0  0.5328971360055211  0.5359569437571792  0.1774125274166357  1.0000
  C   C295      1.0  0.577631482146431  0.5680304358525178  0.14144346913784317  1.0000
  C   C296      1.0  0.5160454882376436  0.5530907459467573  0.13380727496238826  1.0000
  H   H205      1.0  0.5620019275350046  0.6198356611857629  0.15190654992660244  1.0000
  H   H206      1.0  0.574865473527197  0.6072740266691754  0.1842831848584773  1.0000
  H   H207      1.0  0.528990575116711  0.5960233411859036  0.17884990038334864  1.0000
  H   H208      1.0  0.5268526853251803  0.5097327848437717  0.16840828571270644  1.0000
  H   H209      1.0  0.553733757343778  0.5432624491955053  0.19417499841098287  1.0000
  H   H210      1.0  0.5078207427816477  0.5316045775217608  0.18786576413473102  1.0000
  H   H211      1.0  0.5725434408287767  0.5425418689717034  0.1316154523837166  1.0000
  H   H212      1.0  0.6000745159231508  0.5763765138631983  0.15692101408463163  1.0000
  H   H213      1.0  0.5872346789068166  0.5886596029233855  0.12435849951184032  1.0000
  H   H214      1.0  0.5088033843267801  0.5268460790561535  0.12416333121446498  1.0000
  H   H215      1.0  0.5242074141638884  0.5730328914753999  0.1162770269791657  1.0000
  H   H216      1.0  0.4910262849814257  0.5500515751196564  0.1433576957718539  1.0000
  N   N3        1.0  0.21830388879372165  0.44851630567335976  0.8678305763019298  1.0000
  C   C297      1.0  0.2036712289379013  0.43852103177761753  0.8387921067199606  1.0000
  C   C298      1.0  0.22978388404143132  0.4864941527977663  0.8728897177741187  1.0000
  C   C299      1.0  0.24950051010531774  0.44320732845678745  0.8713945422063025  1.0000
  C   C300      1.0  0.1901906765094193  0.4258563246177928  0.8884396137298881  1.0000
  H   H217      1.0  0.19488139014564082  0.41006611443586405  0.834198578896082  1.0000
  H   H218      1.0  0.223878545606488  0.4554359216106592  0.8225939830726267  1.0000
  H   H219      1.0  0.1796933542134242  0.4416942092486323  0.8356912713647363  1.0000
  H   H220      1.0  0.24048720548129282  0.4947124565389782  0.8948171404219166  1.0000
  H   H221      1.0  0.25127505505345377  0.5044867095883645  0.8579351047206392  1.0000
  H   H222      1.0  0.206930474055735  0.4915253073232912  0.8702231643424804  1.0000
  H   H223      1.0  0.241744706584901  0.4147589904546049  0.8680784345834209  1.0000
  H   H224      1.0  0.26107854276686837  0.4507855221339307  0.8931620757761347  1.0000
  H   H225      1.0  0.2712927177977677  0.45983457650687753  0.8561461810170233  1.0000
  H   H226      1.0  0.20051581048643854  0.4319361823967941  0.9105488354184496  1.0000
  H   H227      1.0  0.17975312682682407  0.39689288545276524  0.8847556475864414  1.0000
  H   H228      1.0  0.16686740620614698  0.4301996000867655  0.8870409191547605  1.0000
  N   N4        1.0  0.5827465000464571  0.906206745144929  0.8190430299909386  1.0000
  C   C301      1.0  0.5918392214311888  0.9158751825728316  0.8491197093458164  1.0000
  C   C302      1.0  0.546081361188738  0.899666494677528  0.8133192006835963  1.0000
  C   C303      1.0  0.5843842340756071  0.8735394369264313  0.8129211603059542  1.0000
  C   C304      1.0  0.6086971071213175  0.9359157650393382  0.8009131798453842  1.0000
  H   H229      1.0  0.6197646808656594  0.9222316738692113  0.8540201468452834  1.0000
  H   H230      1.0  0.5736389762725169  0.8937459878503047  0.8635299425153328  1.0000
  H   H231      1.0  0.5898184504731746  0.939764609751335  0.8546528893345736  1.0000
  H   H232      1.0  0.5382029903295497  0.8921684274652973  0.7908245659133651  1.0000
  H   H233      1.0  0.5258133582758979  0.877759041406112  0.8269045171316514  1.0000
  H   H234      1.0  0.5442221188878583  0.9240490576319283  0.8176261336981053  1.0000
  H   H235      1.0  0.578696446957948  0.8659099161616134  0.7902241779763937  1.0000
  H   H236      1.0  0.5647109502891857  0.8504444514138463  0.8258965571760943  1.0000
  H   H237      1.0  0.6114580194731002  0.8773586976188589  0.8178338203253345  1.0000
  H   H238      1.0  0.602518466594606  0.9297586913056768  0.7780441618277436  1.0000
  H   H239      1.0  0.6366581613577849  0.9415164547686833  0.8045322634592896  1.0000
  H   H240      1.0  0.6083835987285561  0.9610899322147726  0.8052906491738007  1.0000
  N   N5        1.0  0.5063711429272211  0.07173241843059786  0.7428757305810079  1.0000
  C   C305      1.0  0.49811629443625255  0.0913528434969324  0.7643080312003362  1.0000
  C   C306      1.0  0.48087123179872493  0.03295326908641116  0.7457816815126503  1.0000
  C   C307      1.0  0.5434942022641607  0.07878367695859301  0.7470988152268551  1.0000
  C   C308      1.0  0.5029410545573174  0.08373914989883802  0.7142467795214607  1.0000
  H   H241      1.0  0.5171476673801819  0.12067121943964243  0.7630488208202545  1.0000
  H   H242      1.0  0.5000037279182722  0.08272275003874396  0.7861573932510815  1.0000
  H   H243      1.0  0.4703902066885104  0.08679934707295534  0.761557252013717  1.0000
  H   H244      1.0  0.4526062637440088  0.02664374984480733  0.7426833774321622  1.0000
  H   H245      1.0  0.48627452492794987  0.017364626866471777  0.7298033864508436  1.0000
  H   H246      1.0  0.48277264090715355  0.022971820139928045  0.7671398201480093  1.0000
  H   H247      1.0  0.5635349444951915  0.10778447794311674  0.7450183197165959  1.0000
  H   H248      1.0  0.5504786855394939  0.06429099486266954  0.7311941272703396  1.0000
  H   H249      1.0  0.5470841923943772  0.07007801663706692  0.7685209452747928  1.0000
  H   H250      1.0  0.47518776240201005  0.07859446194133257  0.7102065235355423  1.0000
  H   H251      1.0  0.5090766393032042  0.06952497624030984  0.6975754796249971  1.0000
  H   H252      1.0  0.5217338550474248  0.11287938540811382  0.7112310852569345  1.0000
  N   N6        1.0  0.7111473362447838  0.23533502388296348  0.15280287339532206  1.0000
  C   C309      1.0  0.7494413876714315  0.25161290270382464  0.14481204840119286  1.0000
  C   C310      1.0  0.6882010599465818  0.21915516299857926  0.12756024419902023  1.0000
  C   C311      1.0  0.7045003694169141  0.2631092987237403  0.16451551924432978  1.0000
  C   C312      1.0  0.702404566929012  0.20733021827176226  0.1744174431344806  1.0000
  H   H253      1.0  0.7675064549969386  0.26358756774519965  0.16347734268140007  1.0000
  H   H254      1.0  0.75718258180574  0.2729270492112794  0.12854832381869438  1.0000
  H   H255      1.0  0.7554396292189341  0.2312989914891554  0.13606685576486158  1.0000
  H   H256      1.0  0.6924176401097893  0.19789780131838863  0.11831450942938258  1.0000
  H   H257      1.0  0.6590850513828571  0.20610051848052485  0.1329304982070059  1.0000
  H   H258      1.0  0.6939014087529085  0.23937979844653684  0.11071399570630026  1.0000
  H   H259      1.0  0.6758521829275494  0.2516078779622123  0.17083805150886208  1.0000
  H   H260      1.0  0.7108289066537556  0.2847284578515182  0.14877206788862246  1.0000
  H   H261      1.0  0.7213973130463082  0.2757081321878375  0.18363747751045995  1.0000
  H   H262      1.0  0.7073580816447096  0.18623122367276024  0.16618678686645025  1.0000
  H   H263      1.0  0.6735943977938245  0.19392781595268457  0.18071461451792328  1.0000
  H   H264      1.0  0.7193660393074764  0.21830073963759464  0.19375127633875033  1.0000
  N   N7        1.0  0.5878538899457288  0.5989613145826324  0.5931014721651674  1.0000
  C   C313      1.0  0.618025057574668  0.6101360799375706  0.573115232255509  1.0000
  C   C314      1.0  0.585495466845217  0.5702635597120426  0.6117361269030692  1.0000
  C   C315      1.0  0.5538175982737236  0.5855370878685248  0.5771556630411518  1.0000
  C   C316      1.0  0.5940771293892302  0.6298791602994114  0.6104868755289149  1.0000
  H   H265      1.0  0.6202230566201562  0.6313271559526489  0.5583450050363111  1.0000
  H   H266      1.0  0.6147450663679929  0.5873260956858091  0.5601283340090557  1.0000
  H   H267      1.0  0.6442525216022007  0.6213134132553878  0.5844598636099234  1.0000
  H   H268      1.0  0.6110456435998112  0.579213739910075  0.6236196520145343  1.0000
  H   H269      1.0  0.5634648944026813  0.5617234281602803  0.6274689099170939  1.0000
  H   H270      1.0  0.5797772102835116  0.5461151014516341  0.5993564689110846  1.0000
  H   H271      1.0  0.5305308269800533  0.5770034125892737  0.5916358722723905  1.0000
  H   H272      1.0  0.5480224229389616  0.5618794758032495  0.5641584077448507  1.0000
  H   H273      1.0  0.5546593170450101  0.6062752233269441  0.5625375615424484  1.0000
  H   H274      1.0  0.5983255661755508  0.652912304538783  0.596987330028866  1.0000
  H   H275      1.0  0.6185681696849769  0.6394528274194042  0.6239193044904163  1.0000
  H   H276      1.0  0.5709986705964278  0.6229934310829045  0.6247669656943948  1.0000
  N   N8        1.0  0.5535387126426252  0.7449510369392431  0.36250647935337643  1.0000
  C   C317      1.0  0.5531295214067212  0.7785668437280098  0.36706768386988003  1.0000
  C   C318      1.0  0.5180731021876354  0.7139819755553698  0.369749752857601  1.0000
  C   C319      1.0  0.5815025545511616  0.7446064789199642  0.3806521595435696  1.0000
  C   C320      1.0  0.5615200502863993  0.742526749988095  0.33248317384748416  1.0000
  H   H277      1.0  0.5794619246653887  0.802356394538286  0.36148031050638396  1.0000
  H   H278      1.0  0.547679714158172  0.7816122630356067  0.3895882355530627  1.0000
  H   H279      1.0  0.5322826605269299  0.7797550033716332  0.35378197029234565  1.0000
  H   H280      1.0  0.5177542297540173  0.6882638980699346  0.36648850955070544  1.0000
  H   H281      1.0  0.5110623932777763  0.7148269003767632  0.392268537300549  1.0000
  H   H282      1.0  0.4963564794117967  0.7132070774175315  0.35628089067873464  1.0000
  H   H283      1.0  0.5827387565025437  0.7197194760110927  0.3774871203252634  1.0000
  H   H284      1.0  0.5762840065534999  0.7462220894245394  0.4034886049298986  1.0000
  H   H285      1.0  0.6086120107784809  0.7676837734853249  0.37579423947552926  1.0000
  H   H286      1.0  0.5417219631417693  0.7438710943608343  0.3180072655626672  1.0000
  H   H287      1.0  0.5609952000526991  0.7170006050863906  0.32810993949858547  1.0000
  H   H288      1.0  0.5886044337907795  0.7646863472796958  0.3264902460289873  1.0000
  N   N9        1.0  0.5758774833032929  0.2524899112218149  0.8497073738164301  1.0000
  C   C321      1.0  0.546460990519861  0.22348448496761486  0.8333025041607699  1.0000
  C   C322      1.0  0.610564384264087  0.2631699544759915  0.835798657702493  1.0000
  C   C323      1.0  0.5761114835956741  0.23959082946731594  0.8787298274005126  1.0000
  C   C324      1.0  0.5701763770455774  0.2834728835537691  0.8510159862168111  1.0000
  H   H289      1.0  0.5200684324671251  0.21446798056401592  0.8435396991308578  1.0000
  H   H290      1.0  0.5500098796660932  0.19972556305779374  0.8316802879581966  1.0000
  H   H291      1.0  0.5447748166713083  0.23226110238323577  0.8114355253193619  1.0000
  H   H292      1.0  0.6153344718865486  0.24013849262792333  0.8342803483759921  1.0000
  H   H293      1.0  0.6112264318353432  0.27314345845182764  0.8138882272841328  1.0000
  H   H294      1.0  0.6335075850080466  0.2848023359069419  0.8477256008735069  1.0000
  H   H295      1.0  0.5501535719149349  0.23125482844200534  0.8897427771670228  1.0000
  H   H296      1.0  0.5979100563689128  0.2607225793741277  0.8918379925617185  1.0000
  H   H297      1.0  0.5800061346315564  0.21597652143809598  0.8785223072286297  1.0000
  H   H298      1.0  0.5679726447393469  0.29288786989841104  0.8294959738534748  1.0000
  H   H299      1.0  0.5924777568526983  0.3063669874216401  0.8624252885572549  1.0000
  H   H300      1.0  0.5448735006666294  0.2765010309156074  0.8624200682831057  1.0000
  N   N10       1.0  0.025192742393887354  0.30962957065796154  0.10765352515474795  1.0000
  C   C325      1.0  0.0003328446954287064  0.27078004000435296  0.11102344440883567  1.0000
  C   C326      1.0  0.05100900842451977  0.31595007558848215  0.08471741063406373  1.0000
  C   C327      1.0  0.045091800503267075  0.324464558603518  0.13440962291930886  1.0000
  C   C328      1.0  0.004313429988839217  0.32731383548579185  0.10047385300889536  1.0000
  H   H301      1.0  0.984938468132997  0.25875001562650257  0.09119738719132639  1.0000
  H   H302      1.0  0.9803729594352173  0.26518187166280077  0.12810418947098895  1.0000
  H   H303      1.0  0.015054830064240134  0.2565502562744471  0.11671693145939185  1.0000
  H   H304      1.0  0.07088163472569094  0.3448820529111222  0.08236926706972218  1.0000
  H   H305      1.0  0.06653320456424174  0.3021636310941365  0.08898507609129003  1.0000
  H   H306      1.0  0.037281073296815855  0.3066187663552989  0.06387191133221307  1.0000
  H   H307      1.0  0.06368220223310514  0.35384004014968673  0.132837656355179  1.0000
  H   H308      1.0  0.06157288680494762  0.31216471220791986  0.14033425478714476  1.0000
  H   H309      1.0  0.0264837870895318  0.319879868682184  0.15223059698110405  1.0000
  H   H310      1.0  0.02199062573329225  0.3566938862164788  0.09853720281207336  1.0000
  H   H311      1.0  0.9841212491471936  0.32259359198749876  0.11706957915540982  1.0000
  H   H312      1.0  0.9896405095265282  0.3174374882540258  0.08005816816438388  1.0000
  N   N11       1.0  0.6413105681069228  0.643562379450016  0.4069995598839003  1.0000
  C   C329      1.0  0.6035573673149623  0.6143012089321283  0.4093874322046711  1.0000
  C   C330      1.0  0.6654968618179197  0.6323405330839182  0.4199782138903131  1.0000
  C   C331      1.0  0.6456934845573387  0.6756327667177335  0.421658806550837  1.0000
  C   C332      1.0  0.6505930749508877  0.6521387535491975  0.37680757954918065  1.0000
  H   H313      1.0  0.58473675621817  0.6221621565274775  0.39985011766624884  1.0000
  H   H314      1.0  0.5956914860515374  0.6069068696087409  0.431898545839749  1.0000
  H   H315      1.0  0.5991895574713468  0.5898662814370986  0.3981089500450583  1.0000
  H   H316      1.0  0.6592795107777456  0.6254485922365035  0.4427585456731267  1.0000
  H   H317      1.0  0.6631666635864545  0.608453305065095  0.40918329351352173  1.0000
  H   H318      1.0  0.6941519052940792  0.6540656235659503  0.4186621489155085  1.0000
  H   H319      1.0  0.6284216903170254  0.6852945321779288  0.4119917693735897  1.0000
  H   H320      1.0  0.6739652820707768  0.6980212985112471  0.4204719581738455  1.0000
  H   H321      1.0  0.6386934502126361  0.6702673876275241  0.4444772506244682  1.0000
  H   H322      1.0  0.6790222617017827  0.6736237148363525  0.3741424986871931  1.0000
  H   H323      1.0  0.633494636824842  0.6615602297617162  0.3664490744040058  1.0000
  H   H324      1.0  0.647207900144555  0.6285309208960477  0.3648599156426886  1.0000
  N   N12       1.0  0.24013929669897482  0.4462935715151409  0.5975077141888493  1.0000
  C   C333      1.0  0.22335061448339685  0.44206807789734337  0.5693013919228993  1.0000
  C   C334      1.0  0.21190635888481327  0.42648142399222555  0.6189229460167456  1.0000
  C   C335      1.0  0.2603572352016943  0.4845991741408473  0.6051174973999586  1.0000
  C   C336      1.0  0.2651098167009263  0.43213676388683014  0.5966755736577949  1.0000
  H   H325      1.0  0.2064374222256191  0.4548607552354007  0.5682844838098826  1.0000
  H   H326      1.0  0.20602211501323942  0.4133819369377588  0.5636109075534571  1.0000
  H   H327      1.0  0.24398165280998346  0.4544531892422049  0.5524296613557521  1.0000
  H   H328      1.0  0.2236481275921337  0.4283611631146326  0.6403352722064889  1.0000
  H   H329      1.0  0.19315623603554233  0.4371531695730344  0.6206483010607331  1.0000
  H   H330      1.0  0.19531293216390222  0.39757566381846005  0.6135952005059455  1.0000
  H   H331      1.0  0.24261032627097173  0.49647459154931556  0.6054059986715442  1.0000
  H   H332      1.0  0.2823093505037711  0.5002804462968518  0.5897677196614971  1.0000
  H   H333      1.0  0.2731734690003633  0.4887210169134754  0.6263484647324098  1.0000
  H   H334      1.0  0.2784028083609048  0.4348765949950568  0.6175366999953907  1.0000
  H   H335      1.0  0.2869495447282191  0.4468856042783667  0.5808669225368424  1.0000
  H   H336      1.0  0.25089026734034386  0.40336334187130407  0.5907321392906133  1.0000
  N   N13       1.0  0.9266995755713502  0.6802366978978717  0.903999787165966  1.0000
  C   C337      1.0  0.889492401733445  0.6689839377257544  0.912679475184881  1.0000
  C   C338      1.0  0.9314404885678448  0.64867203734029  0.9032121101435648  1.0000
  C   C339      1.0  0.9521531306373378  0.7063350964500553  0.9246181366779069  1.0000
  C   C340      1.0  0.9339383569682363  0.6969842084231169  0.8756200918642534  1.0000
  H   H337      1.0  0.885013667737109  0.6921750030619314  0.9138228326706295  1.0000
  H   H338      1.0  0.8835103725830893  0.6562165230809851  0.9340807923723657  1.0000
  H   H339      1.0  0.8694535708277547  0.6492060529605578  0.8976654066873796  1.0000
  H   H340      1.0  0.9595158104340177  0.6563222190383871  0.8973969870110798  1.0000
  H   H341      1.0  0.9256584704929994  0.6350576532190807  0.9242065571660852  1.0000
  H   H342      1.0  0.9131255444011769  0.6286037724357465  0.8875396967566719  1.0000
  H   H343      1.0  0.9805494761636027  0.7155827827286596  0.9186466928006866  1.0000
  H   H344      1.0  0.9476885567618973  0.694374260131464  0.9461772402715417  1.0000
  H   H345      1.0  0.9491348531938979  0.7303674987114378  0.9261023879428362  1.0000
  H   H346      1.0  0.9309045220819627  0.7210878379448192  0.8754496389957113  1.0000
  H   H347      1.0  0.9152792266472237  0.6780708435251098  0.8594393655405477  1.0000
  H   H348      1.0  0.9619380618294698  0.7055753578709013  0.8687115951105331  1.0000
  N   N14       1.0  0.8659103681577228  0.7333875206776297  0.11038246406512313  1.0000
  C   C341      1.0  0.8731065269415952  0.7355894696912492  0.1411646056915825  1.0000
  C   C342      1.0  0.8485623943341465  0.6956165913609512  0.10133060294812432  1.0000
  C   C343      1.0  0.9001319544814718  0.7545529627633606  0.09492973329172055  1.0000
  C   C344      1.0  0.8418052631052906  0.7477638826245181  0.1041341966366163  1.0000
  H   H349      1.0  0.8477141962598592  0.7199939157500735  0.15337940731593844  1.0000
  H   H350      1.0  0.886198341971797  0.763728352372141  0.14872556130792264  1.0000
  H   H351      1.0  0.8911119837278866  0.7248484383304536  0.14672043620392708  1.0000
  H   H352      1.0  0.8661078204035294  0.6839772739250559  0.10550482891347403  1.0000
  H   H353      1.0  0.822629577642134  0.6787970617323632  0.11252510823359733  1.0000
  H   H354      1.0  0.842612818130885  0.6929261707009335  0.078207662323199  1.0000
  H   H355      1.0  0.8955363276739204  0.7533780388972426  0.0716219154419296  1.0000
  H   H356      1.0  0.9189339641661252  0.7443528402294235  0.09899895777110071  1.0000
  H   H357      1.0  0.9139222046381548  0.7832323394333788  0.10108264829518303  1.0000
  H   H358      1.0  0.8359177005285146  0.7467254267271721  0.08106971881679843  1.0000
  H   H359      1.0  0.8538413392815523  0.7761478934114564  0.11078762337129398  1.0000
  H   H360      1.0  0.8156077359559892  0.7323462588613667  0.11532536332532836  1.0000
  N   N15       1.0  0.26633290647097413  0.4366111411332396  0.3932713346455622  1.0000
  C   C345      1.0  0.27688183241753245  0.4278952734176961  0.3660316813025161  1.0000
  C   C346      1.0  0.29679011322679977  0.4698378450960328  0.4047719578174028  1.0000
  C   C347      1.0  0.25665791309415786  0.4070858595128144  0.4136618932559223  1.0000
  C   C348      1.0  0.2350700295923435  0.4416254973983418  0.38865387452898303  1.0000
  H   H361      1.0  0.2547149272214406  0.40271289360613366  0.3569152186108233  1.0000
  H   H362      1.0  0.3005439005165878  0.42416013072392506  0.36863345865164593  1.0000
  H   H363      1.0  0.2843156345621255  0.44958237705209764  0.35012716796109383  1.0000
  H   H364      1.0  0.2897102383030149  0.47710888284198544  0.4253958582659159  1.0000
  H   H365      1.0  0.32078955724437996  0.4668316439620587  0.4084169382472178  1.0000
  H   H366      1.0  0.30483272118457044  0.4928093312045862  0.3900752470358785  1.0000
  H   H367      1.0  0.24883040861081793  0.41304951578637505  0.434519967701168  1.0000
  H   H368      1.0  0.2796374210550117  0.4024291451435214  0.41739437737473895  1.0000
  H   H369      1.0  0.23361630101808628  0.3815696929017806  0.40587558394226825  1.0000
  H   H370      1.0  0.22613971894420737  0.44797563301965954  0.4087600199471789  1.0000
  H   H371      1.0  0.2116140341737697  0.4170884827903984  0.37993333496515624  1.0000
  H   H372      1.0  0.2415323466805051  0.4640156879380135  0.3736738719107244  1.0000
  N   N16       1.0  0.6864519971789795  0.7803435510924158  0.07265754499467189  1.0000
  C   C349      1.0  0.7218936865290351  0.7904727754556953  0.06045621879675383  1.0000
  C   C350      1.0  0.6818898816321118  0.7611538046085167  0.0997358464023754  1.0000
  C   C351      1.0  0.6578251735206102  0.7568558179961017  0.052579186117265406  1.0000
  C   C352      1.0  0.6843634014141415  0.8129422025286436  0.07777991300502783  1.0000
  H   H373      1.0  0.726536538746456  0.805277322585598  0.040084689722341235  1.0000
  H   H374      1.0  0.7237989429560889  0.7664073548454152  0.05573761696280474  1.0000
  H   H375      1.0  0.7442871396812852  0.8072874602392811  0.0752666121278769  1.0000
  H   H376      1.0  0.6555072118789353  0.7530996305323043  0.1097193923870605  1.0000
  H   H377      1.0  0.6834331710931195  0.7364633565185488  0.09668270455124367  1.0000
  H   H378      1.0  0.7033821861958225  0.7779101027465367  0.1152613619149706  1.0000
  H   H379      1.0  0.6306087992299829  0.74883600797206  0.06082739499373465  1.0000
  H   H380      1.0  0.65860061720345  0.7319375867659421  0.04830331177457489  1.0000
  H   H381      1.0  0.6610347548265408  0.7702374283878729  0.03167667356934842  1.0000
  H   H382      1.0  0.657964546392053  0.8063196863704142  0.08705114350038318  1.0000
  H   H383      1.0  0.6877440396221182  0.8280521820077881  0.057752305380195025  1.0000
  H   H384      1.0  0.7057562823128437  0.8312523835501392  0.0927537830899557  1.0000
  N   N17       1.0  0.4764829004953716  0.49609682397897753  0.43862855451330013  1.0000
  C   C353      1.0  0.4483619640568939  0.506195145000924  0.43698288023994547  1.0000
  C   C354      1.0  0.5120541076572233  0.5278934281611342  0.43318808036529427  1.0000
  C   C355      1.0  0.4692014612394865  0.4685073935255267  0.4172020688927569  1.0000
  C   C356      1.0  0.47623700210420017  0.4817445288595266  0.46715057601798626  1.0000
  H   H385      1.0  0.42120899697511205  0.4827200386715417  0.44102661167447776  1.0000
  H   H386      1.0  0.4476228829222528  0.516979338812792  0.41568219176600446  1.0000
  H   H387      1.0  0.45303170866448833  0.5269793240972198  0.45297231228018087  1.0000
  H   H388      1.0  0.5180162763963148  0.5495490648227985  0.4485910433934853  1.0000
  H   H389      1.0  0.5339254962390853  0.5212932098198451  0.43478512131093744  1.0000
  H   H390      1.0  0.5133195144270556  0.5388701596777196  0.41161164200841105  1.0000
  H   H391      1.0  0.49039522349825143  0.46088275794467226  0.417160708099269  1.0000
  H   H392      1.0  0.46807692309071364  0.4779906568378661  0.3954951575262464  1.0000
  H   H393      1.0  0.44298635137670245  0.4438708534381462  0.4210420643199875  1.0000
  H   H394      1.0  0.480673287083924  0.5015799649831801  0.4838337862030612  1.0000
  H   H395      1.0  0.49743326134372573  0.47430809459624895  0.46943325272063585  1.0000
  H   H396      1.0  0.44999140208278443  0.4574026130929361  0.4717605817596447  1.0000
  N   N18       1.0  0.3972993617517125  0.3347279741256561  0.23208068538293788  1.0000
  C   C357      1.0  0.4357652548393346  0.3549487853769772  0.24007428715109058  1.0000
  C   C358      1.0  0.39283129233649017  0.3441978612138049  0.2027934281601013  1.0000
  C   C359      1.0  0.37632853141807643  0.3438346015878976  0.2515399674895594  1.0000
  C   C360      1.0  0.3842509525162281  0.29597398641347095  0.23405119048135428  1.0000
  H   H397      1.0  0.44656366540725456  0.3842809892623863  0.238831432002782  1.0000
  H   H398      1.0  0.45240569796667973  0.34854407619296285  0.22600846762789686  1.0000
  H   H399      1.0  0.44004101966971526  0.34876313797507935  0.2621993510792584  1.0000
  H   H400      1.0  0.36422306405883265  0.32896634017844983  0.19586983343846262  1.0000
  H   H401      1.0  0.4014716147156692  0.37310578332757766  0.20095060260072511  1.0000
  H   H402      1.0  0.4091309279735054  0.33879717121490954  0.18752081444983848  1.0000
  H   H403      1.0  0.3474242569130771  0.3304379004899012  0.24548395416365767  1.0000
  H   H404      1.0  0.3866112730796473  0.37306905645902627  0.2517476831530332  1.0000
  H   H405      1.0  0.3777930367743734  0.3357080566431501  0.2736408937903736  1.0000
  H   H406      1.0  0.35515138706312505  0.2798496157850634  0.22869471100332178  1.0000
  H   H407      1.0  0.3876676100356979  0.2882741453938306  0.255962734182125  1.0000
  H   H408      1.0  0.3993031922016832  0.28801348687450834  0.21956110047819005  1.0000
  N   N19       1.0  0.1241248675551753  0.671247631698371  0.5866183697515205  1.0000
  C   C361      1.0  0.10535461785538036  0.6317731129043427  0.5853202907807294  1.0000
  C   C362      1.0  0.16339161465106883  0.6856371180611924  0.5882120720752984  1.0000
  C   C363      1.0  0.1122963004448804  0.6822436098577311  0.6120273802924787  1.0000
  C   C364      1.0  0.11552090589371583  0.6854431225707966  0.561038266877226  1.0000
  H   H409      1.0  0.07564014486158917  0.6200526708177369  0.584110114442264  1.0000
  H   H410      1.0  0.11130168074753566  0.6203731370838186  0.6044258618618751  1.0000
  H   H411      1.0  0.11374195898822306  0.6224887768564756  0.5664733987383855  1.0000
  H   H412      1.0  0.17080970576360252  0.6754576142368969  0.6073166562769777  1.0000
  H   H413      1.0  0.17338544520576923  0.677956001426686  0.5693642157191442  1.0000
  H   H414      1.0  0.17833827113373302  0.7153722073686569  0.5895459572085666  1.0000
  H   H415      1.0  0.1257603453154297  0.7118454994413765  0.613544621190598  1.0000
  H   H416      1.0  0.1189177165120763  0.6725908940130931  0.6317631683987882  1.0000
  H   H417      1.0  0.08274332893080914  0.6716114135204068  0.6118539390010569  1.0000
  H   H418      1.0  0.12893669636769425  0.7151841616629442  0.5615426464993268  1.0000
  H   H419      1.0  0.0860687356119223  0.6750569740769778  0.5590744465203697  1.0000
  H   H420      1.0  0.124489492631336  0.6781339350114833  0.5414342423132316  1.0000
  N   N20       1.0  0.19805648732449802  0.7745229211120085  0.8156846942698249  1.0000
  C   C365      1.0  0.1700690865054705  0.7770114400001394  0.7992371382275995  1.0000
  C   C366      1.0  0.18234840830078022  0.7547766486808458  0.8423406293725928  1.0000
  C   C367      1.0  0.22777786074948708  0.8109383640865744  0.8220743962434917  1.0000
  C   C368      1.0  0.2119139647925354  0.7553113253524841  0.7988667364793541  1.0000
  H   H421      1.0  0.1811362969155613  0.7922389749539085  0.7791530787699207  1.0000
  H   H422      1.0  0.15818879394552954  0.790504586523453  0.8114164425911563  1.0000
  H   H423      1.0  0.14771581552356136  0.7499900792900775  0.7935208826945748  1.0000
  H   H424      1.0  0.20278996469604177  0.7528139260757243  0.8555706536894471  1.0000
  H   H425      1.0  0.17057793103400012  0.7678519302039145  0.8552267450078114  1.0000
  H   H426      1.0  0.1603086706783687  0.7269640696724762  0.8380627720400499  1.0000
  H   H427      1.0  0.2494862132184854  0.8101670741357978  0.8344582752603364  1.0000
  H   H428      1.0  0.2181689708380034  0.8262468760502536  0.8345915605540107  1.0000
  H   H429      1.0  0.24006167516362503  0.8263139054641828  0.802223716392599  1.0000
  H   H430      1.0  0.2232905522213863  0.7691236232573881  0.7782973882432328  1.0000
  H   H431      1.0  0.19014066614123976  0.7275610125383508  0.7939602377159821  1.0000
  H   H432      1.0  0.23344572409016334  0.7532564549111449  0.8103860259015878  1.0000
  N   N21       1.0  0.5691089738802654  0.06676092186476999  0.4502419862729193  1.0000
  C   C369      1.0  0.536861721199199  0.0699224578243863  0.4449866091561278  1.0000
  C   C370      1.0  0.5995338907275672  0.09408462786434754  0.43343220008023003  1.0000
  C   C371      1.0  0.5616539779225418  0.030757091647993937  0.4418658644368363  1.0000
  C   C372      1.0  0.5784571080843685  0.07229666479731751  0.4806623939081531  1.0000
  H   H433      1.0  0.5133431491717337  0.04985202450554723  0.4574140432293819  1.0000
  H   H434      1.0  0.5290328198066873  0.06567008900523286  0.42226711330776273  1.0000
  H   H435      1.0  0.5416649412095749  0.09695337732153728  0.4506022014385974  1.0000
  H   H436      1.0  0.6244007370910567  0.09261980656772606  0.4369552956310916  1.0000
  H   H437      1.0  0.5935631539806704  0.09035414668690556  0.4103953837156791  1.0000
  H   H438      1.0  0.6056804721603302  0.12160697986133527  0.4388102593998898  1.0000
  H   H439      1.0  0.5387354107012794  0.009333901024373148  0.4539176679965914  1.0000
  H   H440      1.0  0.5854704566970129  0.027488273005778385  0.4454641107061054  1.0000
  H   H441      1.0  0.5547704487935119  0.025761127666777076  0.41899863883873445  1.0000
  H   H442      1.0  0.6026755912035933  0.06999075025368788  0.48527554993619837  1.0000
  H   H443      1.0  0.5560237765566107  0.05216609878945662  0.4939584466650449  1.0000
  H   H444      1.0  0.5844388118920605  0.09929215357732186  0.4876341121729332  1.0000
  N   N22       1.0  0.7724491273492085  0.586452533395136  0.4966444425212694  1.0000
  C   C373      1.0  0.8023962874187633  0.6121436884736348  0.47856821511681635  1.0000
  C   C374      1.0  0.7378153897808584  0.5776785734378309  0.48324280593740043  1.0000
  C   C375      1.0  0.7750907365930978  0.6025427581869186  0.5247070169684661  1.0000
  C   C376      1.0  0.7745369745712585  0.5535398469121617  0.5001094662752119  1.0000
  H   H445      1.0  0.8289962227859641  0.619615024757886  0.48815138381673323  1.0000
  H   H446      1.0  0.8015989057487344  0.6373035417983829  0.4754882760184066  1.0000
  H   H447      1.0  0.8014849350622562  0.6009585975756749  0.4572230881083366  1.0000
  H   H448      1.0  0.7355609853625108  0.6020575961338738  0.48019230220512815  1.0000
  H   H449      1.0  0.7346237019888727  0.565195649704039  0.4621059109889191  1.0000
  H   H450      1.0  0.7145271926329365  0.558859670555468  0.4965341797411769  1.0000
  H   H451      1.0  0.7527544254298818  0.584184553467701  0.5389153671708801  1.0000
  H   H452      1.0  0.7739184522008322  0.6275739776516523  0.5228430264888223  1.0000
  H   H453      1.0  0.8009381145440838  0.6097034780910245  0.5355272600111816  1.0000
  H   H454      1.0  0.8004331103412612  0.5594087053788992  0.5102016846352524  1.0000
  H   H455      1.0  0.7727225655085275  0.540707184237775  0.479326544788048  1.0000
  H   H456      1.0  0.7523324507547015  0.5335937541579693  0.5136851611567157  1.0000
  N   N23       1.0  0.42438235290708975  0.18164118257604642  0.4746957240726169  1.0000
  C   C377      1.0  0.40847215485331617  0.1942932357083166  0.4961414388669166  1.0000
  C   C378      1.0  0.45916469706630114  0.21188716406374647  0.4651273897485504  1.0000
  C   C379      1.0  0.39964570753684897  0.16691274045382762  0.450265296641639  1.0000
  C   C380      1.0  0.43017005794114943  0.153435059165073  0.4871296850970231  1.0000
  H   H457      1.0  0.40378809841715063  0.21559005455235902  0.48732032136956926  1.0000
  H   H458      1.0  0.42642010735417013  0.2055661340647443  0.5149149122170547  1.0000
  H   H459      1.0  0.3821261017728082  0.17208949430641793  0.5036829357168828  1.0000
  H   H460      1.0  0.47192928340558693  0.2032391609895653  0.44891444364012695  1.0000
  H   H461      1.0  0.4556514276748616  0.23330333205092552  0.454986705024547  1.0000
  H   H462      1.0  0.47853692750958254  0.2239883069326886  0.4829552194837044  1.0000
  H   H463      1.0  0.41120179969179016  0.15771025070086953  0.4336273714613287  1.0000
  H   H464      1.0  0.39468078991117045  0.18741865914152228  0.440159405558347  1.0000
  H   H465      1.0  0.3733008972167742  0.14354443352927704  0.45640226877674034  1.0000
  H   H466      1.0  0.44862405022841984  0.16335792977865327  0.5057009109902735  1.0000
  H   H467      1.0  0.4421263128562894  0.14333178548054257  0.471429708625757  1.0000
  H   H468      1.0  0.4044042485451804  0.12991635133318902  0.4941995484944714  1.0000
  N   N24       1.0  0.31372306409889306  0.37849194675204995  0.9902296273882132  1.0000
  C   C381      1.0  0.29805338806268616  0.3451955537258568  0.0071627428635174795  1.0000
  C   C382      1.0  0.3428614846043901  0.40770035236713814  0.006619723247275332  1.0000
  C   C383      1.0  0.28566850664428933  0.38776900459889985  0.9837533274403281  1.0000
  C   C384      1.0  0.3285693478984284  0.37350319728881504  0.9635873263278731  1.0000
  H   H469      1.0  0.275995457447757  0.3223830572344338  0.99548376762184  1.0000
  H   H470      1.0  0.28676289077653994  0.3482740074876081  0.027448091200213878  1.0000
  H   H471      1.0  0.31876671992785144  0.33780504626735547  0.012630519348471701  1.0000
  H   H472      1.0  0.35490534172360116  0.4333933857994364  0.994744574326993  1.0000
  H   H473      1.0  0.33284625462628403  0.41186995118978026  0.027106074705611938  1.0000
  H   H474      1.0  0.36474880676196103  0.4018902655887478  0.011578750220920364  1.0000
  H   H475      1.0  0.29650962163841726  0.4124359887775187  0.9705403251639346  1.0000
  H   H476      1.0  0.2749045562389816  0.3930342237793051  0.003447379288057384  1.0000
  H   H477      1.0  0.2626519943505155  0.3659718896714122  0.9720521923021567  1.0000
  H   H478      1.0  0.3408690302253513  0.3982948364468015  0.9504187324225442  1.0000
  H   H479      1.0  0.30741613758674197  0.35158885156994873  0.9505906828662998  1.0000
  H   H480      1.0  0.3500760569330502  0.36679844670246414  0.967823901587241  1.0000
  N   N25       1.0  0.5068385249591134  0.5606403138947562  0.7364932509196366  1.0000
  C   C385      1.0  0.5284715214618794  0.544236822121599  0.7450924181096859  1.0000
  C   C386      1.0  0.5160405198646308  0.574161249260401  0.7071244261625285  1.0000
  C   C387      1.0  0.5147317563952796  0.590624179607394  0.755686331830927  1.0000
  C   C388      1.0  0.4681497226426875  0.533590801194031  0.7381254262059084  1.0000
  H   H481      1.0  0.5244928812170082  0.5225278684321492  0.7304640116968288  1.0000
  H   H482      1.0  0.5210513327702991  0.5322516852995064  0.7666327523644875  1.0000
  H   H483      1.0  0.5577577530001128  0.564238928656512  0.7454555625191058  1.0000
  H   H484      1.0  0.5002771688241415  0.5868049128609375  0.6999593356717644  1.0000
  H   H485      1.0  0.5451114519700554  0.5944691045896703  0.7051763093786622  1.0000
  H   H486      1.0  0.5101614541622679  0.5521686665552743  0.6920086226593385  1.0000
  H   H487      1.0  0.4993338922029302  0.6040706223685584  0.7497087998782305  1.0000
  H   H488      1.0  0.5438281235780227  0.6113625050866912  0.7554047754547583  1.0000
  H   H489      1.0  0.5077258214997721  0.5812856753582487  0.7779769801751407  1.0000
  H   H490      1.0  0.4509852977031241  0.5452842469723678  0.7326256077910898  1.0000
  H   H491      1.0  0.46051866179861367  0.5217610854181763  0.7597559444638192  1.0000
  H   H492      1.0  0.46095103508719504  0.5111745250975319  0.7232224778630785  1.0000
  N   N26       1.0  0.15837828606544815  0.8388199948475423  0.16466295605165465  1.0000
  C   C389      1.0  0.14328118110914098  0.8509724423907025  0.1871691414107294  1.0000
  C   C390      1.0  0.1954976816518819  0.8673593159275801  0.15814706513103297  1.0000
  C   C391      1.0  0.13580380509388526  0.8300852501196478  0.13891194593142325  1.0000
  C   C392      1.0  0.15881620600981808  0.8065813411003119  0.17453139219959019  1.0000
  H   H493      1.0  0.1423122903701204  0.8752133047157112  0.18052151671204833  1.0000
  H   H494      1.0  0.15971429350991387  0.8576278049136808  0.2069003826397493  1.0000
  H   H495      1.0  0.1153756388198431  0.8297645578005711  0.19266839138357664  1.0000
  H   H496      1.0  0.2072851402052392  0.8593999551973097  0.140655382828167  1.0000
  H   H497      1.0  0.19648464017540393  0.8925543460043497  0.1514546639479637  1.0000
  H   H498      1.0  0.21361369208398162  0.8735593035592122  0.1768312837307909  1.0000
  H   H499      1.0  0.13466783408145622  0.8537224816614096  0.13083271316313255  1.0000
  H   H500      1.0  0.10767476355044271  0.8083216765562407  0.1430783689974203  1.0000
  H   H501      1.0  0.14638974152148204  0.8206367778492464  0.12154696652227683  1.0000
  H   H502      1.0  0.17034026507006256  0.7968300656454648  0.15823709994675986  1.0000
  H   H503      1.0  0.1312092305541162  0.7843955152671456  0.1792753643682625  1.0000
  H   H504      1.0  0.1751180674475091  0.8118395783856743  0.1942058747815571  1.0000
  N   N27       1.0  0.5962197305107476  0.04450964218412312  0.22507385147759354  1.0000
  C   C393      1.0  0.5903725209561276  0.07191382453656536  0.21116576337528217  1.0000
  C   C394      1.0  0.5635445466621487  0.01927459101199358  0.24091082436002936  1.0000
  C   C395      1.0  0.6269947076929403  0.06197879883368751  0.24488079551993186  1.0000
  C   C396      1.0  0.6039054106331303  0.024822438278237158  0.20331259950820113  1.0000
  H   H505      1.0  0.614300546031025  0.09107342858219947  0.19860937763806663  1.0000
  H   H506      1.0  0.5848291163708607  0.08759960618787521  0.22688379907660866  1.0000
  H   H507      1.0  0.5670424921696455  0.05951178831873505  0.1963224175519878  1.0000
  H   H508      1.0  0.5571277497667277  0.03320972854655779  0.25768659404533684  1.0000
  H   H509      1.0  0.5397029286455401  0.005812681608330594  0.22663798555254386  1.0000
  H   H510      1.0  0.5669409729293714  0.9980481962455721  0.25149708459195164  1.0000
  H   H511      1.0  0.6524786768665375  0.0799866090279242  0.2335333785725553  1.0000
  H   H512      1.0  0.631246779373766  0.04192887364699183  0.25649815172820245  1.0000
  H   H513      1.0  0.6227545240740893  0.07813954996852579  0.2610279212137806  1.0000
  H   H514      1.0  0.627955035737823  0.043173500720279145  0.19052281355230924  1.0000
  H   H515      1.0  0.5809888183193517  0.01069929745781395  0.18830991779806436  1.0000
  H   H516      1.0  0.609572764391236  0.004598361923380256  0.21301398480399203  1.0000
  N   N28       1.0  0.8324381851766803  0.17015199226606362  0.5471949744469874  1.0000
  C   C397      1.0  0.8600764871869886  0.17338568017377332  0.5270236097519033  1.0000
  C   C398      1.0  0.833121562461387  0.15044294179039217  0.5726336045711986  1.0000
  C   C399      1.0  0.7965214902880119  0.15046879062539698  0.5337861007117858  1.0000
  C   C400      1.0  0.8399460652052299  0.20621559470762513  0.5554751540628128  1.0000
  H   H517      1.0  0.8603068453850772  0.18813030630516314  0.5075423555580154  1.0000
  H   H518      1.0  0.8551591563707694  0.1465916925537317  0.5204374019539686  1.0000
  H   H519      1.0  0.8874764102346465  0.1881143112821399  0.5365928449262595  1.0000
  H   H520      1.0  0.8127299512469014  0.147840253588772  0.5882081101958526  1.0000
  H   H521      1.0  0.826991301104026  0.12283643618445894  0.5674170975262229  1.0000
  H   H522      1.0  0.8596829923627197  0.16457004126551458  0.5835780001657532  1.0000
  H   H523      1.0  0.7752371752259964  0.14805150675508985  0.5484450860308557  1.0000
  H   H524      1.0  0.7895200164381051  0.12275906465831207  0.5279295763452149  1.0000
  H   H525      1.0  0.7949477123216496  0.16413342462144848  0.5142453733983865  1.0000
  H   H526      1.0  0.8195897549667839  0.20472381051064667  0.5707888295519562  1.0000
  H   H527      1.0  0.839818148274259  0.2220453168310345  0.5368659374687318  1.0000
  H   H528      1.0  0.8666219638741218  0.22163905108616744  0.5661392182190667  1.0000
  N   N29       1.0  0.07309603245141805  0.6295817334140775  0.07691739324939682  1.0000
  C   C401      1.0  0.06505568033376963  0.609870098347778  0.04988438762350165  1.0000
  C   C402      1.0  0.07310452888843799  0.6068351873035462  0.1004005409773767  1.0000
  C   C403      1.0  0.045421738839305226  0.6395155424818658  0.08233346099069501  1.0000
  C   C404      1.0  0.10877547276761268  0.6623506952815026  0.07512709551485873  1.0000
  H   H529      1.0  0.06534435194946342  0.6266004133878605  0.03171801583255808  1.0000
  H   H530      1.0  0.037924967400798426  0.5853836570685458  0.05002764771133548  1.0000
  H   H531      1.0  0.08506788834653745  0.601518533735743  0.045113792080302945  1.0000
  H   H532      1.0  0.07842974788960944  0.6209560096901716  0.12106131491575296  1.0000
  H   H533      1.0  0.046738961614566366  0.5816277849295385  0.10221064393538021  1.0000
  H   H534      1.0  0.09432350964265002  0.5995642128871536  0.09767988807155684  1.0000
  H   H535      1.0  0.05063589276149294  0.6545428918379452  0.10254050024859256  1.0000
  H   H536      1.0  0.01802830420911672  0.6155523871228756  0.08355414946521716  1.0000
  H   H537      1.0  0.0449581765893583  0.6569404320241898  0.06516496840488441  1.0000
  H   H538      1.0  0.10961195297159732  0.6801926874066073  0.05762084907309123  1.0000
  H   H539      1.0  0.1304082645050879  0.6559719316103598  0.07111765140635425  1.0000
  H   H540      1.0  0.11559275809876235  0.6779871357327436  0.0951352005779347  1.0000
  N   N30       1.0  0.8719796888990888  0.17236797927735695  0.7270730988606094  1.0000
  C   C405      1.0  0.8828915989924462  0.14861169329874754  0.713432367578635  1.0000
  C   C406      1.0  0.8599513447324827  0.15989262078775865  0.7563313327117861  1.0000
  C   C407      1.0  0.8420566382619469  0.17134244766893547  0.7108136115755844  1.0000
  C   C408      1.0  0.9027272214813046  0.20942853047368878  0.727556122828872  1.0000
  H   H541      1.0  0.9052181940213117  0.14832133917050394  0.7252391658503313  1.0000
  H   H542      1.0  0.8921598818953336  0.1573993606030682  0.6913239896990067  1.0000
  H   H543      1.0  0.8599655147029309  0.1205438768428111  0.7124105867856518  1.0000
  H   H544      1.0  0.8820593308474277  0.16107010027025845  0.7694973171450062  1.0000
  H   H545      1.0  0.8502569060826413  0.1764492455679119  0.7669021184019459  1.0000
  H   H546      1.0  0.8372752353081483  0.1316952861905783  0.756650587493218  1.0000
  H   H547      1.0  0.8498821003915668  0.17994172427591526  0.6884608560073399  1.0000
  H   H548      1.0  0.8331160711485608  0.18910190674527091  0.7202825471872533  1.0000
  H   H549      1.0  0.8183969502408874  0.14385468017807035  0.7102357119196611  1.0000
  H   H550      1.0  0.9118640250486146  0.2199969248393491  0.7057388739908967  1.0000
  H   H551      1.0  0.9261857551879402  0.21127658587113973  0.739170463153127  1.0000
  H   H552      1.0  0.8955208250039229  0.22798825493596475  0.7380550493418936  1.0000
  N   N31       1.0  0.7539094269975838  0.8533106541511536  0.7158524171632515  1.0000
  C   C409      1.0  0.7538176802896482  0.8749485682295426  0.7399599694281195  1.0000
  C   C410      1.0  0.7590973058178895  0.8732860644178422  0.689144051811041  1.0000
  C   C411      1.0  0.71918529875438  0.8194315062899385  0.7147529095024292  1.0000
  C   C412      1.0  0.7834044882944956  0.8453853975187308  0.7195481827358182  1.0000
  H   H553      1.0  0.7498816998419533  0.8605686238841562  0.760453480574068  1.0000
  H   H554      1.0  0.7314930383695694  0.880916356853365  0.7381643102984534  1.0000
  H   H555      1.0  0.7795258437762994  0.9008083928668054  0.7415093805418819  1.0000
  H   H556      1.0  0.7592788656831002  0.8575612141707827  0.6705932815653773  1.0000
  H   H557      1.0  0.737131295042555  0.8794680813199895  0.6856893153826482  1.0000
  H   H558      1.0  0.7850415358697078  0.8990740516411148  0.6892115718216274  1.0000
  H   H559      1.0  0.718009432936459  0.8024875823999722  0.6966323143504897  1.0000
  H   H560      1.0  0.696060591793658  0.8241501580325492  0.712955861247974  1.0000
  H   H561      1.0  0.7151160226150461  0.8034333792005612  0.7342406347054924  1.0000
  H   H562      1.0  0.7835788089407483  0.8281598949300688  0.7021425561843485  1.0000
  H   H563      1.0  0.780418953954147  0.8305276275565506  0.7396602002902909  1.0000
  H   H564      1.0  0.8101560766797781  0.8702061051589474  0.7200771347944321  1.0000
  N   N32       1.0  0.06368641278130918  0.5506071575236111  0.26846273705673696  1.0000
  C   C413      1.0  0.027782284280907017  0.5455506127878812  0.26174550946855224  1.0000
  C   C414      1.0  0.06343022766108355  0.5166553994656519  0.263884489083644  1.0000
  C   C415      1.0  0.07270591643691111  0.5616576462055283  0.29833041605662175  1.0000
  C   C416      1.0  0.09081770491150327  0.578685825449879  0.24984681534575  1.0000
  H   H565      1.0  0.006655601901079281  0.5249799260811412  0.27566184199872745  1.0000
  H   H566      1.0  0.019838072113086847  0.5365525112189272  0.23952046634097607  1.0000
  H   H567      1.0  0.02725281997452345  0.57091145890204  0.2643269359762863  1.0000
  H   H568      1.0  0.04318872081829792  0.4947899544881744  0.2775310662265896  1.0000
  H   H569      1.0  0.05658647873931765  0.5075873948189947  0.24152840571093231  1.0000
  H   H570      1.0  0.09014007802141079  0.5194652844875339  0.2685845924012173  1.0000
  H   H571      1.0  0.05277337164469284  0.5410892035366455  0.31298772598174535  1.0000
  H   H572      1.0  0.07304133594363503  0.5872241081791771  0.302349145907677  1.0000
  H   H573      1.0  0.09970850824399811  0.5658460864465307  0.3040685014044667  1.0000
  H   H574      1.0  0.11837479298407685  0.583684510612045  0.25443930640732154  1.0000
  H   H575      1.0  0.09122039811275763  0.6044931002856815  0.25234002967333  1.0000
  H   H576      1.0  0.08505726508932808  0.5710356669717964  0.22722793228006288  1.0000
  N   N33       1.0  0.5369793079025444  0.501693636623469  0.9806887970738845  1.0000
  C   C417      1.0  0.5736025378204128  0.5325825899522062  0.9846518986370255  1.0000
  C   C418      1.0  0.5291568188221961  0.494589241002171  0.9501337451296298  1.0000
  C   C419      1.0  0.5105573199261427  0.5097379971251337  0.9934563927699007  1.0000
  C   C420      1.0  0.5344951518868368  0.4698388316318785  0.9946928675915259  1.0000
  H   H577      1.0  0.5805666441631185  0.5377793138618964  0.007525312885312996  1.0000
  H   H578      1.0  0.5760915796512392  0.557511966953155  0.9754933040832298  1.0000
  H   H579      1.0  0.5943130981929318  0.5279507153168814  0.9747092538371024  1.0000
  H   H580      1.0  0.5015930096883497  0.4715446344884968  0.9465276058326267  1.0000
  H   H581      1.0  0.5306610172229649  0.5180285810042685  0.9389345453388025  1.0000
  H   H582      1.0  0.5483112243000067  0.48802870241042345  0.9397737487798273  1.0000
  H   H583      1.0  0.5160196245707315  0.5156967850855759  0.01635326492174527  1.0000
  H   H584      1.0  0.4827227705263298  0.4867436065378941  0.9914939025377116  1.0000
  H   H585      1.0  0.5112483198574764  0.5334536105271458  0.9834327917580351  1.0000
  H   H586      1.0  0.5074057568184135  0.44583554009413384  0.9917085286977877  1.0000
  H   H587      1.0  0.5391873283757908  0.47394100617420115  0.017944974613620213  1.0000
  H   H588      1.0  0.5545719932610031  0.46335102113314197  0.9860699230780577  1.0000
  N   N34       1.0  0.9957651641978276  0.7692051564877457  0.534807722563468  1.0000
  C   C421      1.0  0.021600427125988864  0.7922995323235867  0.5129185961868629  1.0000
  C   C422      1.0  0.010758002151421087  0.782908782866828  0.563241226534448  1.0000
  C   C423      1.0  0.9894974192293651  0.7325803915476437  0.531896405653878  1.0000
  C   C424      1.0  0.9613012070928946  0.7686637344179381  0.5310696876403835  1.0000
  H   H589      1.0  0.011098064680140851  0.7824547020739142  0.49120680934753413  1.0000
  H   H590      1.0  0.047718559982114606  0.7927663458943744  0.5150027632665428  1.0000
  H   H591      1.0  0.027260922280439637  0.8203239994720075  0.5144256342153162  1.0000
  H   H592      1.0  0.992054075582001  0.7657855979815309  0.5802342164424241  1.0000
  H   H593      1.0  0.036701899955251305  0.783341721267149  0.56661667260635  1.0000
  H   H594      1.0  0.0159424377401991  0.8105976432383333  0.5663035564781973  1.0000
  H   H595      1.0  0.9700255648969667  0.7141183770953596  0.5479068344268169  1.0000
  H   H596      1.0  0.01486543816850272  0.7320710572805239  0.5347118990813909  1.0000
  H   H597      1.0  0.9788545492261848  0.721641948975196  0.5105009229261042  1.0000
  H   H598      1.0  0.9493447961236906  0.7582451191070904  0.5097978445182026  1.0000
  H   H599      1.0  0.9648306901183812  0.795860920335622  0.5331561521233293  1.0000
  H   H600      1.0  0.9410212740591224  0.7510334437770712  0.5470318404716241  1.0000
  N   N35       1.0  0.7835823422196393  0.14436981609326527  0.9306291198891422  1.0000
  C   C425      1.0  0.7448715895531037  0.12900355000416314  0.9244646713765068  1.0000
  C   C426      1.0  0.8046123427655107  0.17520227077976977  0.9116090306512159  1.0000
  C   C427      1.0  0.793956168949542  0.1169844634864998  0.9258161995631895  1.0000
  C   C428      1.0  0.7907430403282495  0.15614070973095032  0.9604752620341896  1.0000
  H   H601      1.0  0.728162306843222  0.10506451840865272  0.9378319590556908  1.0000
  H   H602      1.0  0.7387562652733644  0.12065874979747279  0.9019323882818795  1.0000
  H   H603      1.0  0.7357303621803062  0.14851056202037494  0.9285030192807657  1.0000
  H   H604      1.0  0.8340117616288928  0.18756930003078742  0.9155954628282075  1.0000
  H   H605      1.0  0.7996862396179727  0.16690163876415656  0.8889251299937073  1.0000
  H   H606      1.0  0.7972386417409354  0.19626685456222676  0.914413263980627  1.0000
  H   H607      1.0  0.7884610800088354  0.10722868383389612  0.9035177321016422  1.0000
  H   H608      1.0  0.7787615353663259  0.09337674004075444  0.9399473085365908  1.0000
  H   H609      1.0  0.8231011996799296  0.12771578177163562  0.9299477944616173  1.0000
  H   H610      1.0  0.8196596114422281  0.1676070441471945  0.9660196815827108  1.0000
  H   H611      1.0  0.7749411180251009  0.13342365582276142  0.9752882648322178  1.0000
  H   H612      1.0  0.7832273748128277  0.17681402750852745  0.9648739730428902  1.0000
  N   N36       1.0  0.7338436180966383  0.965891363247286  0.31964856191020624  1.0000
  C   C429      1.0  0.7666095753451885  0.9822542671267619  0.33744162223771784  1.0000
  C   C430      1.0  0.7234817936927728  0.9285022308430898  0.31311268076472387  1.0000
  C   C431      1.0  0.7407848785658051  0.9865037239832987  0.2930298341944272  1.0000
  C   C432      1.0  0.7043849274070426  0.9663989388967199  0.3351563514006269  1.0000
  H   H613      1.0  0.7748133684100943  0.010389136093299056  0.34293107650677596  1.0000
  H   H614      1.0  0.7895715253723238  0.9825370412248828  0.32643516562801905  1.0000
  H   H615      1.0  0.7621208424853169  0.9672614368844611  0.3577064243019891  1.0000
  H   H616      1.0  0.7453435344089618  0.9268845812236594  0.3019534808186874  1.0000
  H   H617      1.0  0.7170030888926036  0.911941813994462  0.33271843854913036  1.0000
  H   H618      1.0  0.6992055480582012  0.9155601400864195  0.2992520579016895  1.0000
  H   H619      1.0  0.7164445458709312  0.9750060920779494  0.2792149276143467  1.0000
  H   H620      1.0  0.7628414655721028  0.9867286238740006  0.28065858673157545  1.0000
  H   H621      1.0  0.7485068948972127  0.014833001111375088  0.2972555238312861  1.0000
  H   H622      1.0  0.6790579566623616  0.9537916873273274  0.32257022512919103  1.0000
  H   H623      1.0  0.7110647664083587  0.9942057433086365  0.3400843749764686  1.0000
  H   H624      1.0  0.6987998774344746  0.9517417856638033  0.35566807466136796  1.0000
  N   N37       1.0  0.2913414760834174  0.97089421774366  0.6890868898342681  1.0000
  C   C433      1.0  0.30430950827477327  0.9581797395650822  0.713036774457574  1.0000
  C   C434      1.0  0.28534530711478495  0.9481118705426596  0.664096500705166  1.0000
  C   C435      1.0  0.31858788088878104  0.008234962181855598  0.6821836591149875  1.0000
  C   C436      1.0  0.25724580265300706  0.9690451800276313  0.6970231815391615  1.0000
  H   H625      1.0  0.3098592607333051  0.9752103061444695  0.732128498723632  1.0000
  H   H626      1.0  0.32966060149820353  0.958621518772312  0.707550562834891  1.0000
  H   H627      1.0  0.28423295943231497  0.9301753598378658  0.7190445641874754  1.0000
  H   H628      1.0  0.27440516529051434  0.956058717279  0.6458314564483114  1.0000
  H   H629      1.0  0.310931884857487  0.9501857919105736  0.6568802477236856  1.0000
  H   H630      1.0  0.26627095137071066  0.9193528621406535  0.668788878221005  1.0000
  H   H631      1.0  0.30987040084968304  0.01892097000719639  0.6642379785674623  1.0000
  H   H632      1.0  0.3444981597457114  0.01032748272842765  0.6759094897863519  1.0000
  H   H633      1.0  0.32443533685562376  0.02634210923139646  0.7006090507421295  1.0000
  H   H634      1.0  0.2361174828225756  0.9410829666327741  0.7021678592688027  1.0000
  H   H635      1.0  0.2467780378041725  0.9786444848459656  0.6794915802887045  1.0000
  H   H636      1.0  0.2608801223723742  0.9858121545781215  0.71594380266994  1.0000
  N   N38       1.0  0.4162577836668299  0.138799337675656  0.11127692179937353  1.0000
  C   C437      1.0  0.40895680758106917  0.1683763526115878  0.10650397849888744  1.0000
  C   C438      1.0  0.4352417570406514  0.13550752400222915  0.0864750349987721  1.0000
  C   C439      1.0  0.3818443840250145  0.10509395881751928  0.11527381413271552  1.0000
  C   C440      1.0  0.43885166851297175  0.14611807664524507  0.13686907943180457  1.0000
  H   H637      1.0  0.3945987122408845  0.17146227931545502  0.12485535087021812  1.0000
  H   H638      1.0  0.39183164882540156  0.16345168547987143  0.087366670201568  1.0000
  H   H639      1.0  0.4343154836446342  0.19426099320488635  0.10332884396407849  1.0000
  H   H640      1.0  0.4407562888399425  0.1130827885511026  0.08921928133378267  1.0000
  H   H641      1.0  0.4188244417508919  0.12969504256877362  0.06679160200502242  1.0000
  H   H642      1.0  0.46142107348948114  0.16031605728722287  0.08279681330879701  1.0000
  H   H643      1.0  0.3864622076410316  0.08235759872103  0.11887009654726428  1.0000
  H   H644      1.0  0.36413557971035626  0.09828716016922895  0.09628386939315316  1.0000
  H   H645      1.0  0.3669006608893905  0.10624067296118282  0.1340430846089303  1.0000
  H   H646      1.0  0.4448911127264625  0.12426971764822908  0.14100695062972984  1.0000
  H   H647      1.0  0.42498995339883  0.14790467758382417  0.15613523262741982  1.0000
  H   H648      1.0  0.4649522299521071  0.171482333709966  0.13485483176915591  1.0000
  N   N39       1.0  0.10002264612046828  0.6181458353228927  0.41553506444444627  1.0000
  C   C441      1.0  0.09963248808998137  0.5846163112178023  0.4228090544517774  1.0000
  C   C442      1.0  0.06422712422116823  0.6137736210883491  0.4211161201809483  1.0000
  C   C443      1.0  0.1089753283243033  0.6266286697258999  0.38525844727933006  1.0000
  C   C444      1.0  0.12725192969346644  0.6477384625295015  0.43299818912502214  1.0000
  H   H649      1.0  0.09270841218457163  0.5773637110444426  0.4454546212524889  1.0000
  H   H650      1.0  0.12632193009526163  0.586944842901201  0.4192230978824411  1.0000
  H   H651      1.0  0.07946906759782979  0.5617116636328432  0.40996331240246975  1.0000
  H   H652      1.0  0.06391445078081215  0.6388864287660122  0.4165327294962387  1.0000
  H   H653      1.0  0.04292394581003368  0.5922129750560616  0.4079565804778648  1.0000
  H   H654      1.0  0.056352457424205596  0.6068084572617978  0.44365851437767295  1.0000
  H   H655      1.0  0.13538363284007254  0.6291238889744042  0.3801345201564562  1.0000
  H   H656      1.0  0.1107013253993564  0.6524316472518107  0.3793744849013918  1.0000
  H   H657      1.0  0.08823422249835895  0.605629832262679  0.3713620736698294  1.0000
  H   H658      1.0  0.1280819406475765  0.6734223929930098  0.428021906464072  1.0000
  H   H659      1.0  0.15465075618577542  0.6518701123703978  0.429415721520749  1.0000
  H   H660      1.0  0.1212288563448256  0.6423114657752573  0.4559518294796568  1.0000
  N   N40       1.0  0.6164385500487307  0.025182030055985516  0.5935786036237773  1.0000
  C   C445      1.0  0.6216930980296561  0.008491731517075385  0.5681823767480095  1.0000
  C   C446      1.0  0.5804028164827703  0.02166506688676395  0.59266297098323  1.0000
  C   C447      1.0  0.6442324791690714  0.06344665704349306  0.5942849269272774  1.0000
  C   C448      1.0  0.6196331843891608  0.007262377761500405  0.619281715022469  1.0000
  H   H661      1.0  0.6008560857733404  0.979698607533604  0.5666342629522173  1.0000
  H   H662      1.0  0.6484563276286777  0.010202205170534384  0.5685899404072522  1.0000
  H   H663      1.0  0.6204911834144374  0.021983816896435915  0.5483777877420539  1.0000
  H   H664      1.0  0.558633583489903  0.9931267075231216  0.592226388137969  1.0000
  H   H665      1.0  0.5757101138691928  0.03395459658484867  0.6116180990443653  1.0000
  H   H666      1.0  0.5770908082374953  0.035160070689093326  0.5736971472437853  1.0000
  H   H667      1.0  0.6411625943932225  0.07698476924736397  0.6130787021663187  1.0000
  H   H668      1.0  0.6428477014214148  0.07796246724280276  0.5752259076424007  1.0000
  H   H669      1.0  0.6716800638054949  0.06697567211844846  0.595357764545447  1.0000
  H   H670      1.0  0.6163558872005692  0.019598119620185983  0.6388404301816428  1.0000
  H   H671      1.0  0.6464795839218183  0.009246136163713725  0.6205524532745805  1.0000
  H   H672      1.0  0.5987849440367302  0.9783942954596648  0.6197033859806584  1.0000
  N   N41       1.0  0.6570820290328543  0.6453326112338847  0.8804513283944007  1.0000
  C   C449      1.0  0.6604608139190269  0.651700890811567  0.9113298450463876  1.0000
  C   C450      1.0  0.6474617055579676  0.6701580040937745  0.8666343407971603  1.0000
  C   C451      1.0  0.6287282308452999  0.608083737080401  0.8746460743016609  1.0000
  C   C452      1.0  0.691715754884831  0.6514887851045812  0.8690438783053438  1.0000
  H   H673      1.0  0.6681653613986563  0.6338008037892765  0.9225122268518293  1.0000
  H   H674      1.0  0.6348987844551085  0.6475125225725569  0.9206398566588202  1.0000
  H   H675      1.0  0.6815249827463195  0.6796695087817017  0.9162807030816366  1.0000
  H   H676      1.0  0.6218817898917183  0.6670349259764262  0.874996401835685  1.0000
  H   H677      1.0  0.6688103122270107  0.6984813101827928  0.8697360803410203  1.0000
  H   H678      1.0  0.6438728250678141  0.6655044268589719  0.8434616868380318  1.0000
  H   H679      1.0  0.6344906710365296  0.5885165216850888  0.8853763332575476  1.0000
  H   H680      1.0  0.6265347436143712  0.6022349711072165  0.8515699543305152  1.0000
  H   H681      1.0  0.6018824595807509  0.6029201683342196  0.8817551259163723  1.0000
  H   H682      1.0  0.6905770636755666  0.6484096449353463  0.8455915184816302  1.0000
  H   H683      1.0  0.699402878079413  0.6325500442375246  0.8783142227180963  1.0000
  H   H684      1.0  0.7139472906294477  0.679026736992722  0.8737756730968156  1.0000
  N   N42       1.0  0.1419936372006556  0.5291430090757973  0.06088864545954669  1.0000
  C   C453      1.0  0.13111253181919613  0.5564482299578792  0.05777257383644984  1.0000
  C   C454      1.0  0.18049799652170329  0.5451101516987795  0.053721917134818324  1.0000
  C   C455      1.0  0.12026058294817821  0.4991219110643638  0.041508307191105154  1.0000
  C   C456      1.0  0.13613467838833726  0.5158346359586388  0.09041215948663009  1.0000
  H   H685      1.0  0.10197571576984621  0.5449751744864512  0.06232137383025011  1.0000
  H   H686      1.0  0.13587589270736355  0.5673343472102046  0.03576241233938203  1.0000
  H   H687      1.0  0.1466053351950889  0.5793200442475406  0.07236906670137291  1.0000
  H   H688      1.0  0.18958450195502086  0.5251719760109553  0.055827675078333965  1.0000
  H   H689      1.0  0.18583488518869618  0.5551297363119677  0.03146081253434735  1.0000
  H   H690      1.0  0.19777591601768907  0.5680252482201448  0.06777718131174787  1.0000
  H   H691      1.0  0.12377442382703996  0.5082638928607258  0.01911731632029976  1.0000
  H   H692      1.0  0.09105245752676083  0.485851227133905  0.04642359694095105  1.0000
  H   H693      1.0  0.12834165390370877  0.4784787096291366  0.042737003057929414  1.0000
  H   H694      1.0  0.14473222849634282  0.4956361617529448  0.09348964648430459  1.0000
  H   H695      1.0  0.10724004181274038  0.5028141290728136  0.09641422904156029  1.0000
  H   H696      1.0  0.15166960618940273  0.5378336210539232  0.10573780250053866  1.0000
  N   N43       1.0  0.0816956981182746  0.55215456188865  0.7556732250247027  1.0000
  C   C457      1.0  0.10592935588241081  0.588100669898554  0.7437954679785482  1.0000
  C   C458      1.0  0.0939339715664067  0.5272350687695687  0.7468636208981991  1.0000
  C   C459      1.0  0.04470224062479922  0.5389743484435842  0.7451190745422083  1.0000
  C   C460      1.0  0.082147744253388  0.5542764482383374  0.7869174972554448  1.0000
  H   H697      1.0  0.09747793326480414  0.6076149983515235  0.7500738244241595  1.0000
  H   H698      1.0  0.10618992865316357  0.5875085410425053  0.7202984738036518  1.0000
  H   H699      1.0  0.1341210388295908  0.5988729530125941  0.7511944966970159  1.0000
  H   H700      1.0  0.07656810328562225  0.499997668888969  0.7558898283903379  1.0000
  H   H701      1.0  0.09327995315351534  0.5243970208508625  0.7234279030773192  1.0000
  H   H702      1.0  0.12191194654608628  0.5363252426921792  0.7540876501338922  1.0000
  H   H703      1.0  0.02570491516060791  0.5118366030992675  0.7536097638487966  1.0000
  H   H704      1.0  0.04338509218199671  0.5368514829062274  0.7216013295821737  1.0000
  H   H705      1.0  0.03457790921189474  0.5571826856237803  0.751214758006386  1.0000
  H   H706      1.0  0.07349722749244192  0.5732627097362154  0.7942766674261769  1.0000
  H   H707      1.0  0.10961667667443908  0.5637204999388832  0.7955514751754424  1.0000
  H   H708      1.0  0.06391098764616743  0.5276644990361757  0.7966338424399293  1.0000
  N   N44       1.0  0.3821068767860831  0.8742029023816464  0.12910799075551632  1.0000
  C   C461      1.0  0.3519310429607619  0.8622329563041796  0.10880765641423154  1.0000
  C   C462      1.0  0.41641354430811056  0.897848246309034  0.11446987930903865  1.0000
  C   C463      1.0  0.3827844692857725  0.84279004106921  0.14087003847418228  1.0000
  C   C464      1.0  0.37723859020996264  0.8940500159885914  0.15236748695122718  1.0000
  H   H709      1.0  0.3255199160887542  0.8452709905031551  0.11936699218132556  1.0000
  H   H710      1.0  0.3542150714337196  0.8465937734928956  0.09115405014675  1.0000
  H   H711      1.0  0.3509671961756836  0.8854075432003468  0.09928439544350998  1.0000
  H   H712      1.0  0.43980399831662015  0.9076817645778257  0.12919738438480208  1.0000
  H   H713      1.0  0.4210342927630737  0.8839662870889345  0.09664065260129619  1.0000
  H   H714      1.0  0.41693107649286626  0.9220511918587171  0.10562992254728788  1.0000
  H   H715      1.0  0.40505746263730785  0.8509997719596922  0.156487385409773  1.0000
  H   H716      1.0  0.3866403777418945  0.8272510964901427  0.12392914512074882  1.0000
  H   H717      1.0  0.35714765531096665  0.824391904534407  0.15194581930861606  1.0000
  H   H718      1.0  0.35237493110046697  0.8767396453182543  0.16468509455875802  1.0000
  H   H719      1.0  0.37460807915977534  0.9166229334773998  0.14393060289209256  1.0000
  H   H720      1.0  0.4004908624023951  0.9054734377871188  0.16728989790265755  1.0000
  N   N45       1.0  0.32119280015969104  0.9805992609772762  0.3868162763489288  1.0000
  C   C465      1.0  0.3205538096075689  0.014357596080222247  0.38414886078995125  1.0000
  C   C466      1.0  0.3378776857040089  0.9754974278167772  0.3612880927777701  1.0000
  C   C467      1.0  0.2839891453366381  0.9504044226199178  0.3896143824081033  1.0000
  C   C468      1.0  0.34228747168428336  0.9822010334905898  0.4121883818452381  1.0000
  H   H721      1.0  0.348139312613921  0.037514466766718234  0.3817136245184749  1.0000
  H   H722      1.0  0.308671785233561  0.019518064355398268  0.4031576102727446  1.0000
  H   H723      1.0  0.30511946464112266  0.014350660708594587  0.36511055605704756  1.0000
  H   H724      1.0  0.3385998728335545  0.950154640645117  0.3623218047086576  1.0000
  H   H725      1.0  0.3230915129088543  0.9750083404542825  0.34167131667595285  1.0000
  H   H726      1.0  0.36602128728075617  0.9977791982574264  0.3584938527931792  1.0000
  H   H727      1.0  0.270598185068456  0.9534732955930114  0.40863673303003706  1.0000
  H   H728      1.0  0.2834203762190637  0.9244486837696568  0.3916573417883189  1.0000
  H   H729      1.0  0.26741038458087235  0.9485416301381988  0.3707839829952162  1.0000
  H   H730      1.0  0.3307792448113338  0.9866156565544125  0.4318067544564524  1.0000
  H   H731      1.0  0.3705050231212007  0.004738696200651705  0.4107947595435766  1.0000
  H   H732      1.0  0.3433189522147841  0.9571646175932232  0.4150200120378743  1.0000
  N   N46       1.0  0.9355890359175939  0.27838750345372953  0.27331118410980343  1.0000
  C   C469      1.0  0.9008638543468089  0.24631270091197097  0.2661355246313864  1.0000
  C   C470      1.0  0.9606708453083371  0.28736664226111747  0.24935773981583337  1.0000
  C   C471      1.0  0.951203692685729  0.27131322539601976  0.2988032461788272  1.0000
  C   C472      1.0  0.9297664263007722  0.30873488912473546  0.27884868766830045  1.0000
  H   H733      1.0  0.8810364161664196  0.23886947087862445  0.28358673390934397  1.0000
  H   H734      1.0  0.9042165743992715  0.2228450191792148  0.26190106022432247  1.0000
  H   H735      1.0  0.8887270815107353  0.2508267584056174  0.24673048252372812  1.0000
  H   H736      1.0  0.9874795613599744  0.3108464936223878  0.254263933249234  1.0000
  H   H737      1.0  0.9649258946016532  0.26476725148514957  0.24389450941799945  1.0000
  H   H738      1.0  0.9503209206493459  0.29406262856621096  0.2300796436712242  1.0000
  H   H739      1.0  0.9773960127816544  0.29528546623069984  0.3046799334155035  1.0000
  H   H740      1.0  0.9564160702898232  0.2488801032038259  0.2953029278151814  1.0000
  H   H741      1.0  0.9330383139793489  0.26439014983190345  0.3173660194909282  1.0000
  H   H742      1.0  0.9555631140171951  0.3335023370810783  0.28402134047035665  1.0000
  H   H743      1.0  0.9112881686459684  0.3030900365580278  0.2970167969033089  1.0000
  H   H744      1.0  0.9178865190267517  0.3147737662601682  0.2600813493074109  1.0000
  N   N47       1.0  0.41557384523560964  0.31860794179421864  0.7265198591984123  1.0000
  C   C473      1.0  0.4522755238855613  0.34994385419211993  0.7251563200031392  1.0000
  C   C474      1.0  0.4176256078699334  0.2855253495852361  0.7250521148967555  1.0000
  C   C475      1.0  0.3940794828151513  0.3201017257954674  0.702554479066071  1.0000
  C   C476      1.0  0.3984228917216097  0.3190015687237168  0.7534396369831784  1.0000
  H   H745      1.0  0.45180942891818465  0.3754041712229146  0.7264722689503704  1.0000
  H   H746      1.0  0.4659608518451395  0.3506499958397583  0.7050530335349867  1.0000
  H   H747      1.0  0.46932326793099627  0.3496657742077243  0.7428821601251782  1.0000
  H   H748      1.0  0.3904359253513793  0.261254026743752  0.7260724620406561  1.0000
  H   H749      1.0  0.430657384245317  0.2843373226708964  0.705120376264232  1.0000
  H   H750      1.0  0.4336950963505068  0.2839414449612781  0.7430930166140339  1.0000
  H   H751      1.0  0.3923285135925438  0.34500446723650413  0.7033065957302603  1.0000
  H   H752      1.0  0.3661145883217341  0.29699558921729086  0.7029227739823856  1.0000
  H   H753      1.0  0.4062474251279136  0.31998064603397425  0.6818497236751814  1.0000
  H   H754      1.0  0.3707903941280734  0.29559559044278066  0.755309375999718  1.0000
  H   H755      1.0  0.39627377391311164  0.3435061776738249  0.7552844547689745  1.0000
  H   H756      1.0  0.4141303128853541  0.31833005172500206  0.7720209245352226  1.0000
  N   N48       1.0  0.08431056095332523  0.48953905684966237  0.5783956793503418  1.0000
  C   C477      1.0  0.09222029171205759  0.5269464116231262  0.5800314656119856  1.0000
  C   C478      1.0  0.11753230830513672  0.4883247891955263  0.5840495805744393  1.0000
  C   C479      1.0  0.07082276941280252  0.47536538633427844  0.5497722050391131  1.0000
  C   C480      1.0  0.05681812978634948  0.467550540935056  0.5996810030943436  1.0000
  H   H757      1.0  0.10209101976127943  0.5383179399842867  0.6014772524563848  1.0000
  H   H758      1.0  0.06778654432229514  0.5288613082596817  0.5755008032610092  1.0000
  H   H759      1.0  0.11314605361762142  0.5442550129068064  0.5643662250533852  1.0000
  H   H760      1.0  0.11246679612857591  0.46052090912363197  0.5825921816970306  1.0000
  H   H761      1.0  0.1389400691289786  0.5048353425040764  0.5684395138499827  1.0000
  H   H762      1.0  0.12824734512653713  0.4983058512231898  0.6056469886385956  1.0000
  H   H763      1.0  0.06310657899667382  0.4467542231650888  0.5480458223528268  1.0000
  H   H764      1.0  0.09176142781256114  0.49013972215640284  0.5334382687537028  1.0000
  H   H765      1.0  0.04667760668944565  0.4772975611613082  0.5441362826215309  1.0000
  H   H766      1.0  0.049190229739243474  0.43891703063723125  0.598346760474057  1.0000
  H   H767      1.0  0.03183620454072744  0.46900151742731305  0.5969313975216619  1.0000
  H   H768      1.0  0.06680459092455315  0.4765203197062186  0.6215776008245005  1.0000
