data_image0
_chemical_formula_structural       FeS2FeS2FeSFeS3FeS2FeS2FeSFeS3FeS2FeS2FeSFeS3FeS2FeS2FeSFeS3FeS2FeS2FeSFeS3FeS2FeS2FeSFeS3FeS2FeS2FeSFeS3FeS2FeS2FeSFeS3FeS2FeS2FeSFeS3FeS2FeS2FeSFeS3FeS2FeS2FeSFeS3FeS2FeS2FeSFeS3C6H4C6H4C6H4C6H4C6H4C6H4C6H4C6H4C6H4C6H4C6H4C6H4C6H4C6H4C6H4C6H4C6H4C6H4C6H4C6H4C6H4C6H4C6H4C6H4NC4H12NC4H12NC4H12NC4H12NC4H12NC4H12NC4H12NC4H12NC4H12NC4H12NC4H12NC4H12NC4H12NC4H12NC4H12NC4H12NC4H12NC4H12NC4H12NC4H12NC4H12NC4H12NC4H12NC4H12
_chemical_formula_sum              "Fe48 S96 C240 H384 N24"
_cell_length_a       28.089046634682393
_cell_length_b       28.006615177299324
_cell_length_c       32.38425935056506
_cell_angle_alpha    89.71834955902824
_cell_angle_beta     90.25493930153216
_cell_angle_gamma    120.199108719677

_space_group_name_H-M_alt    "P 1"
_space_group_IT_number       1

loop_
  _space_group_symop_operation_xyz
  'x, y, z'

loop_
  _atom_site_type_symbol
  _atom_site_label
  _atom_site_symmetry_multiplicity
  _atom_site_fract_x
  _atom_site_fract_y
  _atom_site_fract_z
  _atom_site_occupancy
  Fe  Fe1       1.0  0.2532805767378135  0.4358709590236689  0.31432391448976493  1.0000
  S   S1        1.0  0.33918939417683536  0.5057097602936541  0.3041615390991593  1.0000
  S   S2        1.0  0.21662243127906003  0.4198704194350692  0.37794947220195063  1.0000
  Fe  Fe2       1.0  0.23508455373909165  0.4046924162743071  0.2227170577162999  1.0000
  S   S3        1.0  0.3195116586599536  0.4727590501507412  0.2055936203998395  1.0000
  S   S4        1.0  0.18535001411385443  0.3422122058696951  0.17374805090507475  1.0000
  Fe  Fe3       1.0  0.3470043746936566  0.4466170573377138  0.26211061821859083  1.0000
  S   S5        1.0  0.42322886891603284  0.43969884492162997  0.2573712581264334  1.0000
  Fe  Fe4       1.0  0.3027728398294349  0.524419644410923  0.24916156230197165  1.0000
  S   S6        1.0  0.3189698576443619  0.610095433900083  0.23592648035457464  1.0000
  S   S7        1.0  0.2634018643233013  0.37481638566464087  0.27657605286082504  1.0000
  S   S8        1.0  0.21559530677946473  0.45846292413959616  0.261994255111292  1.0000
  Fe  Fe5       1.0  0.3491929469631919  0.45068690453342686  0.58701406460114  1.0000
  S   S9        1.0  0.3236860170267741  0.5099677622099097  0.6091353956665165  1.0000
  S   S10       1.0  0.38318208449935404  0.45738006476851506  0.5229796966113667  1.0000
  Fe  Fe6       1.0  0.3285267526668273  0.3936152537856548  0.6702616966977395  1.0000
  S   S11       1.0  0.30080563519776493  0.4479072583117852  0.6997143596019374  1.0000
  S   S12       1.0  0.33447707594219284  0.32536076073118825  0.7027943886358727  1.0000
  Fe  Fe7       1.0  0.25428719882620465  0.43665206152358516  0.6406107088987274  1.0000
  S   S13       1.0  0.17455841299112185  0.4376444972591673  0.6397998266658477  1.0000
  Fe  Fe8       1.0  0.3719687134959271  0.5165172116502517  0.6660048113415671  1.0000
  S   S14       1.0  0.42439090604090207  0.5984901362744667  0.696703148376928  1.0000
  S   S15       1.0  0.27550422559108734  0.3759441029078841  0.6134033917500162  1.0000
  S   S16       1.0  0.40406990376552104  0.46358589049509613  0.6414771392920037  1.0000
  Fe  Fe9       1.0  0.4613589740905427  0.19906167156222576  0.3274150709552861  1.0000
  S   S17       1.0  0.4313949259462918  0.11428373431169346  0.3010809755280523  1.0000
  S   S18       1.0  0.40039485278198506  0.22605687408371747  0.3437269595515604  1.0000
  Fe  Fe10      1.0  0.5803371498090326  0.22701246731457164  0.33061061477754305  1.0000
  S   S19       1.0  0.5602475676677654  0.1449598642477595  0.30499307877079723  1.0000
  S   S20       1.0  0.6688584272684219  0.28418612051694264  0.3486880664261605  1.0000
  Fe  Fe11      1.0  0.5060485064237069  0.15732439470290674  0.26036075727833774  1.0000
  S   S21       1.0  0.5136554588168386  0.1438841271709943  0.19244330222198433  1.0000
  Fe  Fe12      1.0  0.4880555793683128  0.10958310276743631  0.348221288397506  1.0000
  S   S22       1.0  0.47116145031068535  0.03301011944614831  0.3841235067942631  1.0000
  S   S23       1.0  0.5314183027723224  0.2422272969765706  0.2827619547831928  1.0000
  S   S24       1.0  0.512603515183543  0.19102148693961113  0.3775649667315324  1.0000
  Fe  Fe13      1.0  0.43585466578502674  0.24497349557135212  0.9982196223548938  1.0000
  S   S25       1.0  0.46017447807796913  0.1865829445163814  0.9710304988366902  1.0000
  S   S26       1.0  0.416088833390936  0.2462025403709217  0.0660261578678882  1.0000
  Fe  Fe14      1.0  0.4434298922956933  0.30078374664767804  0.9149179254363572  1.0000
  S   S27       1.0  0.4693340231257645  0.24785379483469383  0.8815554666853659  1.0000
  S   S28       1.0  0.4372416479084075  0.3696002563993469  0.8831437542329004  1.0000
  Fe  Fe15      1.0  0.4039324200006529  0.17864104009779616  0.9188938604621084  1.0000
  S   S29       1.0  0.350989122455446  0.09696860761709046  0.8878824717343171  1.0000
  Fe  Fe16      1.0  0.523379289323857  0.26115137690005313  0.9364975737969629  1.0000
  S   S30       1.0  0.6102658074083392  0.28167732004925955  0.9238772236578726  1.0000
  S   S31       1.0  0.3733887022653723  0.23040578475249013  0.9486329282087306  1.0000
  S   S32       1.0  0.503482213929098  0.3205638775221062  0.9671815183383579  1.0000
  Fe  Fe17      1.0  0.22136074842152081  0.8444175920333916  0.01453453861321341  1.0000
  S   S33       1.0  0.15325214795284878  0.7664910575598141  0.9874103593370273  1.0000
  S   S34       1.0  0.2147763753826254  0.9198531165368184  0.02430464691315737  1.0000
  Fe  Fe18      1.0  0.29653766346890853  0.7971142793806985  0.026352859357318348  1.0000
  S   S35       1.0  0.23467581047732902  0.7146682401127783  7.777352771465296e-05  1.0000
  S   S36       1.0  0.3842432236602114  0.8269535308615803  0.04475067715252612  1.0000
  Fe  Fe19      1.0  0.22045697536937703  0.7642616774788579  0.9520194418677038  1.0000
  S   S37       1.0  0.2069491615293054  0.738165839702541  0.885173445176289  1.0000
  Fe  Fe20      1.0  0.1734929028022023  0.7246958762257232  0.03821432232032491  1.0000
  S   S38       1.0  0.10287235085524206  0.6522314006147824  0.07043046184294996  1.0000
  S   S39       1.0  0.28734938102072155  0.8458713740224408  0.9752669602685582  1.0000
  S   S40       1.0  0.23673968438087467  0.8034820965523801  0.0683241022577128  1.0000
  Fe  Fe21      1.0  0.3689214456607494  0.818391082990015  0.6120708537613935  1.0000
  S   S41       1.0  0.41043050794922625  0.9064405821622121  0.6338723647377964  1.0000
  S   S42       1.0  0.4094612619096164  0.7748918518841063  0.5835740607094527  1.0000
  Fe  Fe22      1.0  0.2542598123632965  0.7981167116442737  0.6277940303875396  1.0000
  S   S43       1.0  0.28503569273353113  0.8845693613715767  0.6500803354473734  1.0000
  S   S44       1.0  0.1669521047681436  0.7268893995125277  0.624072786654306  1.0000
  Fe  Fe23      1.0  0.3448396054796851  0.9110359750834568  0.5972689329259481  1.0000
  S   S45       1.0  0.364688583981582  0.9892950004285109  0.5629200934348892  1.0000
  Fe  Fe24      1.0  0.34762758039925523  0.8731292852489801  0.6848663182964412  1.0000
  S   S46       1.0  0.36755120945775427  0.9054295136816262  0.7501189856800294  1.0000
  S   S47       1.0  0.30783921955171667  0.8254810223501089  0.5714850253427616  1.0000
  S   S48       1.0  0.3127341083910416  0.7845627157615845  0.6665258443146955  1.0000
  Fe  Fe25      1.0  0.93155562823415  0.2928281125043471  0.047618696993518735  1.0000
  S   S49       1.0  0.8647243537658549  0.21183847752478924  0.07182891288514745  1.0000
  S   S50       1.0  0.9908213754068337  0.36075867156256664  0.09002450735843023  1.0000
  Fe  Fe26      1.0  0.8881101726593301  0.266423591216315  0.9590604618027903  1.0000
  S   S51       1.0  0.817035438831541  0.1828734625845071  0.9760914492095927  1.0000
  S   S52       1.0  0.9096962096509048  0.3060411864047109  0.8955394126059546  1.0000
  Fe  Fe27      1.0  0.8082730476894978  0.2259668966549956  0.03129097849768869  1.0000
  S   S53       1.0  0.7258045184658459  0.20673198504614088  0.05633679450314255  1.0000
  Fe  Fe28      1.0  0.8792748068778817  0.1754096502513757  0.01501581842795252  1.0000
  S   S54       1.0  0.8817629835427409  0.09687064621760641  0.024074184451375436  1.0000
  S   S55       1.0  0.8738310449645574  0.31036636868951367  0.011169647503209479  1.0000
  S   S56       1.0  0.9517206613214763  0.25578201487936764  0.9939773985215912  1.0000
  Fe  Fe29      1.0  0.872857306578304  0.21168665329505812  0.6281030768564556  1.0000
  S   S57       1.0  0.7967156494226917  0.13908475956386904  0.6542370925754913  1.0000
  S   S58       1.0  0.9514332145703606  0.20867558343024176  0.6326344970443748  1.0000
  Fe  Fe30      1.0  0.812351456725848  0.27071693764950777  0.6027335834689556  1.0000
  S   S59       1.0  0.7314848390271347  0.2034591150197082  0.6269326596560589  1.0000
  S   S60       1.0  0.818576461568134  0.34619654139389006  0.5724259696848037  1.0000
  Fe  Fe31      1.0  0.7805510236234566  0.20290587929710355  0.6816091079557285  1.0000
  S   S61       1.0  0.7455117353946614  0.19019278878475226  0.7459967308700529  1.0000
  Fe  Fe32      1.0  0.7546523887889455  0.14570693150400338  0.5972760191886426  1.0000
  S   S62       1.0  0.6857342447251484  0.0716663781223732  0.5646592520161328  1.0000
  S   S63       1.0  0.8599455516026295  0.2752468816968293  0.6600447093739567  1.0000
  S   S64       1.0  0.832113282328134  0.21322805577939238  0.568532571297026  1.0000
  Fe  Fe33      1.0  0.5625718213257022  0.8097669811425429  0.35940113334440876  1.0000
  S   S65       1.0  0.6198462189476786  0.8984873770264441  0.3420588709141944  1.0000
  S   S66       1.0  0.4732874706112156  0.7784082600693593  0.37207824013917645  1.0000
  Fe  Fe34      1.0  0.6495873926489102  0.7779108033115483  0.35123407455725336  1.0000
  S   S67       1.0  0.7144627318211233  0.8631205206545832  0.33238966338075115  1.0000
  S   S68       1.0  0.6631778293441101  0.7064840542483212  0.36195476019752815  1.0000
  Fe  Fe35      1.0  0.6806422517363475  0.8914813748944783  0.3831508510033287  1.0000
  S   S69       1.0  0.7468504692269309  0.9583088212274977  0.42222492210702256  1.0000
  Fe  Fe36      1.0  0.6484174509201954  0.862384428558362  0.2930811508527632  1.0000
  S   S70       1.0  0.6616777170611762  0.8936322113274815  0.22777804424813425  1.0000
  S   S71       1.0  0.620594134826229  0.8059951614559141  0.40534877564591165  1.0000
  S   S72       1.0  0.5862722289795509  0.7742116406798351  0.3071063649669172  1.0000
  Fe  Fe37      1.0  0.5649448459337967  0.7053007327313957  0.0050093615519688495  1.0000
  S   S73       1.0  0.6080271811543133  0.6599253358407126  0.024508908971524468  1.0000
  S   S74       1.0  0.47285232184034126  0.6634873449634351  0.011502076974078124  1.0000
  Fe  Fe38      1.0  0.6698719057686187  0.8026493657031497  0.972424606578286  1.0000
  S   S75       1.0  0.7223033326033661  0.7657879851893372  0.9893029151414585  1.0000
  S   S76       1.0  0.6981375740720103  0.8809260269534451  0.9362047362276381  1.0000
  Fe  Fe39      1.0  0.6518496566582112  0.6876027194579594  0.9638295136022969  1.0000
  S   S77       1.0  0.6628156497665759  0.627177121975238  0.9252899105877128  1.0000
  Fe  Fe40      1.0  0.6739312661469204  0.7416466787920449  0.04839314750135972  1.0000
  S   S78       1.0  0.7079493308582232  0.7417458675153485  0.1115333363015279  1.0000
  S   S79       1.0  0.6031694773304377  0.7261389856276734  0.9422440085564711  1.0000
  S   S80       1.0  0.62726544897911  0.7853937031402697  0.03370112083444332  1.0000
  Fe  Fe41      1.0  0.8322338861508783  0.6598455937895796  0.6253943770079782  1.0000
  S   S81       1.0  0.884517341183259  0.6281566193338487  0.6530858852298176  1.0000
  S   S82       1.0  0.8342321360017213  0.6830332769606213  0.5581228097997761  1.0000
  Fe  Fe42      1.0  0.78404801387564  0.6648649795486115  0.7087950132710562  1.0000
  S   S83       1.0  0.8327022751690051  0.634096084248881  0.743415721121545  1.0000
  S   S84       1.0  0.7262644150859964  0.6897772233075077  0.7375761677590814  1.0000
  Fe  Fe43      1.0  0.9032753172025659  0.6907522885521451  0.7027623733388618  1.0000
  S   S85       1.0  0.988551632609191  0.747556487571985  0.7278856171058181  1.0000
  Fe  Fe44      1.0  0.8094674838176109  0.5739256567330984  0.6911011324017992  1.0000
  S   S86       1.0  0.7801661573088514  0.4853172446377213  0.7076788861293029  1.0000
  S   S87       1.0  0.8568929185714239  0.7271199387600319  0.6722277617130701  1.0000
  S   S88       1.0  0.7550473434382384  0.6001759615737097  0.659310087984455  1.0000
  Fe  Fe45      1.0  0.9106153123472549  0.6815412003549574  0.3093452813506424  1.0000
  S   S89       1.0  0.981232673455272  0.6840501976162495  0.3437496817247908  1.0000
  S   S90       1.0  0.8973878443088067  0.7541644325647144  0.3043504368572656  1.0000
  Fe  Fe46      1.0  0.8681918397754739  0.5652861193675914  0.2785043728231496  1.0000
  S   S91       1.0  0.9346652008141377  0.5566926573606136  0.3105046950059362  1.0000
  S   S92       1.0  0.7965222439973774  0.5017190417220778  0.24165318067843203  1.0000
  Fe  Fe47      1.0  0.9191419765028661  0.5981886033845201  0.36388449266307094  1.0000
  S   S93       1.0  0.9142207500078037  0.5688259607602822  0.4295810095359794  1.0000
  Fe  Fe48      1.0  0.9909194857905028  0.6430086909780681  0.2874312608987398  1.0000
  S   S94       1.0  0.07619176693535633  0.6719104585937771  0.26266971675972767  1.0000
  S   S95       1.0  0.8474707129856542  0.5986695502631463  0.3338213001696259  1.0000
  S   S96       1.0  0.9256368452025988  0.6482717683624533  0.25109253009217386  1.0000
  C   C1        1.0  0.8883921307789303  0.5980227520998226  0.46459443741998685  1.0000
  C   C2        1.0  0.8823454332154345  0.5824887956828535  0.5063284565312431  1.0000
  C   C3        1.0  0.8639478245283314  0.6070318413490509  0.535026548340656  1.0000
  C   C4        1.0  0.85204682553626  0.6476767984489302  0.5222207817775057  1.0000
  C   C5        1.0  0.8570671161179243  0.6624482716776208  0.48035240226703885  1.0000
  C   C6        1.0  0.8751511661465164  0.6376495392982235  0.4515730300490647  1.0000
  H   H1        1.0  0.8927157266126242  0.5521006618051677  0.5167503433821821  1.0000
  H   H2        1.0  0.8595030567410367  0.5948282883974447  0.5670982980920921  1.0000
  H   H3        1.0  0.8477629585110833  0.6937117854124263  0.47019091632419097  1.0000
  H   H4        1.0  0.8798676280846819  0.650054550575372  0.419479631864464  1.0000
  C   C7        1.0  0.6785877582779848  0.6434894257066064  0.8727980192779022  1.0000
  C   C8        1.0  0.7046200254795966  0.6198705670646952  0.8510857924445921  1.0000
  C   C9        1.0  0.7190554170835771  0.633451164890849  0.8094537252596316  1.0000
  C   C10       1.0  0.7067629157150586  0.6701024003057844  0.7891929688553821  1.0000
  C   C11       1.0  0.6785306385912915  0.6918559940000557  0.8104119987266795  1.0000
  C   C12       1.0  0.6649335491508237  0.6790264122363031  0.8522448411654934  1.0000
  H   H5        1.0  0.7145532101090977  0.5917016565648855  0.8667038105502131  1.0000
  H   H6        1.0  0.7396170198960101  0.6154260419140748  0.7931507485212669  1.0000
  H   H7        1.0  0.6676981901369673  0.719163296506424  0.7945583258245661  1.0000
  H   H8        1.0  0.6436559902463118  0.6963449805704467  0.8684680706167771  1.0000
  C   C13       1.0  0.7275039397842026  0.7188278811471812  0.3449074451078825  1.0000
  C   C14       1.0  0.7587909508608945  0.7619674171325594  0.31740570501078175  1.0000
  C   C15       1.0  0.8117724895971554  0.7737765628968165  0.3062566159142596  1.0000
  C   C16       1.0  0.8329411277674543  0.7413845957786734  0.3215301847532794  1.0000
  C   C17       1.0  0.801640302786429  0.6982003302630028  0.3490172197355901  1.0000
  C   C18       1.0  0.7488514253457178  0.6867389060088961  0.36052697487765295  1.0000
  H   H9        1.0  0.7420878335617326  0.7859241200624293  0.3043039305924442  1.0000
  H   H10       1.0  0.8358976059258876  0.8073028057491154  0.28500163860274336  1.0000
  H   H11       1.0  0.8183646778426487  0.6742264097183351  0.3620289638623363  1.0000
  H   H12       1.0  0.7248777853969585  0.6534404765791774  0.38197784277912317  1.0000
  C   C19       1.0  0.679802356132534  0.85432721902745  0.19659983937960368  1.0000
  C   C20       1.0  0.6836557548695776  0.8101049810676213  0.21311860793894072  1.0000
  C   C21       1.0  0.6936873715398721  0.7762634797885367  0.1870313276004258  1.0000
  C   C22       1.0  0.7001352717691546  0.7868107975713783  0.14450341001212474  1.0000
  C   C23       1.0  0.698121297039163  0.8321417517116123  0.12833015099292264  1.0000
  C   C24       1.0  0.6874633649061436  0.8655021652165336  0.15429596881353583  1.0000
  H   H13       1.0  0.6780413558709235  0.8013632917108481  0.24584099682840396  1.0000
  H   H14       1.0  0.695090442477448  0.7412200147454941  0.19969029989305942  1.0000
  H   H15       1.0  0.7054302228956327  0.8418716244159422  0.09587047020531685  1.0000
  H   H16       1.0  0.6845936862528468  0.8996062991307765  0.14163281318867907  1.0000
  C   C25       1.0  0.8080170062035087  0.3854409731847048  0.6095004287917036  1.0000
  C   C26       1.0  0.7883104279474038  0.36311870713927397  0.6486227112049793  1.0000
  C   C27       1.0  0.7794183587718608  0.3940297647253792  0.6782340812089266  1.0000
  C   C28       1.0  0.7907614100480166  0.4476365817421052  0.6691973076790112  1.0000
  C   C29       1.0  0.8103276120594768  0.4700982988185359  0.6299823458810895  1.0000
  C   C30       1.0  0.8188725626989137  0.43893228396615996  0.6000864765697376  1.0000
  H   H17       1.0  0.7796832244266788  0.3218893918671215  0.6560861592379562  1.0000
  H   H18       1.0  0.7638793760974916  0.3763973124264053  0.7082018056394571  1.0000
  H   H19       1.0  0.8187079787931697  0.5112886577040553  0.6226642529877291  1.0000
  H   H20       1.0  0.8345246917850357  0.45654465871263666  0.5699717904338083  1.0000
  C   C31       1.0  0.7034221944180108  0.03911117460009149  0.5263464077286194  1.0000
  C   C32       1.0  0.6617490368381281  0.991176411344315  0.5073678489755175  1.0000
  C   C33       1.0  0.6745120048382183  0.9656433555912468  0.4754534784903793  1.0000
  C   C34       1.0  0.7291498869337328  0.9878654184066236  0.4627331289036397  1.0000
  C   C35       1.0  0.7708167072011781  0.03528271087010818  0.4821099231756858  1.0000
  C   C36       1.0  0.7580080829119271  0.06097329826394523  0.5137872377892244  1.0000
  H   H21       1.0  0.6195218907382969  0.9736489830509785  0.5174405150736776  1.0000
  H   H22       1.0  0.6422408345284872  0.9287546772298652  0.4608747654895265  1.0000
  H   H23       1.0  0.8131776344327215  0.052560353928127884  0.4723738681304313  1.0000
  H   H24       1.0  0.790409555029765  0.09774438077324947  0.528382293810361  1.0000
  C   C37       1.0  0.8319102479189578  0.03731899480644684  0.9984539484117233  1.0000
  C   C38       1.0  0.802341152270491  0.04087210884083408  0.964910158699034  1.0000
  C   C39       1.0  0.7615615849682268  0.9925864843884982  0.9457483303717062  1.0000
  C   C40       1.0  0.7495532223288122  0.9406190981779203  0.9605311107901594  1.0000
  C   C41       1.0  0.7790468145015406  0.9369170750199523  0.9940693495863292  1.0000
  C   C42       1.0  0.8206256123995106  0.9852662700369539  0.01268341321037414  1.0000
  H   H25       1.0  0.8114021910683759  0.0807740923288058  0.9533089102776687  1.0000
  H   H26       1.0  0.7389690884373631  0.9955817694899836  0.9196644276587943  1.0000
  H   H27       1.0  0.770134012044696  0.8969160683698295  0.005560712481576856  1.0000
  H   H28       1.0  0.8435870000780752  0.9823495998774923  0.03856098763274576  1.0000
  C   C43       1.0  0.8631020667716407  0.2737552458829802  0.8545335241119612  1.0000
  C   C44       1.0  0.8124536965938255  0.22556307754969113  0.8606263794206674  1.0000
  C   C45       1.0  0.7766209489387603  0.20030078151084885  0.8270950329464084  1.0000
  C   C46       1.0  0.7916513942499728  0.22247374853523577  0.7872119387760735  1.0000
  C   C47       1.0  0.8420148525243536  0.2710699234479557  0.7811670117094627  1.0000
  C   C48       1.0  0.8774275791232108  0.2968246781823647  0.8148071887222104  1.0000
  H   H29       1.0  0.8006770266716389  0.2078051265053842  0.8911466155108299  1.0000
  H   H30       1.0  0.7373467882724086  0.1631013043942033  0.8320478104827703  1.0000
  H   H31       1.0  0.8532935063281787  0.28930021506728426  0.7507250255847305  1.0000
  H   H32       1.0  0.9161148642741751  0.33472906207379005  0.8100527929313383  1.0000
  C   C49       1.0  0.11970982559680052  0.7318872689624379  0.6565547410999563  1.0000
  C   C50       1.0  0.13218288497210262  0.782272524287633  0.6743785618960632  1.0000
  C   C51       1.0  0.09205856050261874  0.7865929366292098  0.6970433929454575  1.0000
  C   C52       1.0  0.039304322229234634  0.7405684850891094  0.7018245758397741  1.0000
  C   C53       1.0  0.027440706465606552  0.6897315404938003  0.6852860828707189  1.0000
  C   C54       1.0  0.0675345584595541  0.6854351353933936  0.6626061220091711  1.0000
  H   H33       1.0  0.17211688953736481  0.8183248917131308  0.6697306811120044  1.0000
  H   H34       1.0  0.10142739498887544  0.8260140524894041  0.709813092743142  1.0000
  H   H35       1.0  0.9874504574759733  0.6535806263332546  0.6901110201188848  1.0000
  H   H36       1.0  0.05785616327314673  0.6460854544968179  0.649476257589913  1.0000
  C   C55       1.0  0.09475644971069534  0.6602505178108159  0.12344916766803748  1.0000
  C   C56       1.0  0.0440768515268988  0.625312146393536  0.1426113915253872  1.0000
  C   C57       1.0  0.03723534665156234  0.6300954712620084  0.18510197129515582  1.0000
  C   C58       1.0  0.0814511729423063  0.6691416334629375  0.20872546324088018  1.0000
  C   C59       1.0  0.13207362699707442  0.7039200014775464  0.18959090527259553  1.0000
  C   C60       1.0  0.138689982452232  0.69958470620228  0.14707941205281067  1.0000
  H   H37       1.0  0.009892838537600035  0.5947311431448543  0.12456586818742528  1.0000
  H   H38       1.0  0.9981160242788393  0.6028904452701848  0.19972597679465792  1.0000
  H   H39       1.0  0.16643519682014452  0.7340527980559793  0.20778519507452056  1.0000
  H   H40       1.0  0.17813767271401046  0.7259827055870729  0.13287933639067062  1.0000
  C   C61       1.0  0.25123795141157873  0.7856507004035588  0.8479850205270882  1.0000
  C   C62       1.0  0.24490784518659536  0.7697411830497988  0.8064925142858714  1.0000
  C   C63       1.0  0.2796610771148931  0.8067236634683559  0.7762181845075227  1.0000
  C   C64       1.0  0.32192734221605  0.8593670392805141  0.7873687358734243  1.0000
  C   C65       1.0  0.3281013480029748  0.8754214133251935  0.8288804823824  1.0000
  C   C66       1.0  0.2922821821040232  0.8389692228513931  0.8589782768721212  1.0000
  H   H41       1.0  0.21313076254924396  0.728641221822473  0.7976149442953286  1.0000
  H   H42       1.0  0.2738285651118938  0.7941629760318387  0.7443124189497169  1.0000
  H   H43       1.0  0.3607352076096422  0.9159810632652774  0.8378985238115629  1.0000
  H   H44       1.0  0.29685615698147716  0.8522208880332697  0.8905841497929053  1.0000
  C   C67       1.0  0.40789453018239474  0.7804217413288761  0.03769610789872346  1.0000
  C   C68       1.0  0.3712692943101618  0.7237610471821461  0.03327888739301921  1.0000
  C   C69       1.0  0.3914832293046783  0.6878520747224124  0.025712194700754365  1.0000
  C   C70       1.0  0.4482732187121752  0.7085949820115833  0.022346013880760518  1.0000
  C   C71       1.0  0.48473616851085544  0.7651906486064342  0.02715691306889223  1.0000
  C   C72       1.0  0.4646360586515977  0.8009479683154371  0.035197529011373296  1.0000
  H   H45       1.0  0.32745312016400124  0.7075316794117203  0.03601388716718823  1.0000
  H   H46       1.0  0.36308565654486424  0.6440033431294107  0.022324408994408573  1.0000
  H   H47       1.0  0.5283644655472619  0.781757190822749  0.02400836117556726  1.0000
  H   H48       1.0  0.49309153044193393  0.8447995388925895  0.03852278008183731  1.0000
  C   C73       1.0  0.3095946198549699  0.047425333552207856  0.9245782410285881  1.0000
  C   C74       1.0  0.28710097031121945  0.991130169942207  0.9160124443168854  1.0000
  C   C75       1.0  0.2567484469963846  0.951524814923514  0.9463153895975243  1.0000
  C   C76       1.0  0.2479328433814564  0.9681833593662323  0.984802917732841  1.0000
  C   C77       1.0  0.2679593846880281  0.024201992753933865  0.9925216131424318  1.0000
  C   C78       1.0  0.29977530188400864  0.06391967062682727  0.9627520022399745  1.0000
  H   H49       1.0  0.2941706072839023  0.9781476483594194  0.8864344000331038  1.0000
  H   H50       1.0  0.2400121606185268  0.9081702395569657  0.9398626426150144  1.0000
  H   H51       1.0  0.26007535071151466  0.037091266587021776  0.0218974139096344  1.0000
  H   H52       1.0  0.31648689838134525  0.10729967318016465  0.9692996070661607  1.0000
  C   C79       1.0  0.6410620280115555  0.2602634705351208  0.9613369855959506  1.0000
  C   C80       1.0  0.6146154044599551  0.23615473069129791  0.9986235994901286  1.0000
  C   C81       1.0  0.6404819883838923  0.21933758359124383  0.02782697996291117  1.0000
  C   C82       1.0  0.6928320517892645  0.2268599888270465  0.019782839173795086  1.0000
  C   C83       1.0  0.7190559049219689  0.2508623021993875  0.9824938187048556  1.0000
  C   C84       1.0  0.6932940977838318  0.2676316963226943  0.9534288491839766  1.0000
  H   H53       1.0  0.5744327611117447  0.2306537270567156  0.004975735832974948  1.0000
  H   H54       1.0  0.6198383172035764  0.20033943843692467  0.056450880862668924  1.0000
  H   H55       1.0  0.7592302256822638  0.25648528773043233  0.9759001154874863  1.0000
  H   H56       1.0  0.7138810491980473  0.2862191311092195  0.9247313253860115  1.0000
  C   C85       1.0  0.7036804369617341  0.3443487880502023  0.3184966063030193  1.0000
  C   C86       1.0  0.6750957280365857  0.36059074380642664  0.291805816161014  1.0000
  C   C87       1.0  0.7037488273023274  0.408611356019429  0.2678118306518249  1.0000
  C   C88       1.0  0.7610304844262967  0.44122905299977366  0.27114916782048015  1.0000
  C   C89       1.0  0.7896485955745625  0.4253157188703114  0.29806949467208005  1.0000
  C   C90       1.0  0.7610657896256426  0.3766459478773016  0.3213548196446527  1.0000
  H   H57       1.0  0.6308941083658294  0.3371137319724481  0.2902944841888604  1.0000
  H   H58       1.0  0.6813712948609679  0.42128924279840296  0.24753911034076487  1.0000
  H   H59       1.0  0.8339534423114562  0.4499348556869923  0.3003601569993296  1.0000
  H   H60       1.0  0.7835703795355295  0.3639108199042447  0.3413597132042568  1.0000
  C   C91       1.0  0.44125970047373875  0.02123221127629399  0.4337019728888387  1.0000
  C   C92       1.0  0.42952409270552755  0.05925241824243608  0.452013877113541  1.0000
  C   C93       1.0  0.4059203038066414  0.04888143865761941  0.4916094745618742  1.0000
  C   C94       1.0  0.3936554169234326  0.00037817739601964123  0.5130869116430892  1.0000
  C   C95       1.0  0.4058543467344448  0.9625531302396568  0.49499127632058254  1.0000
  C   C96       1.0  0.4296640781052769  0.9730381350016069  0.4554346738130865  1.0000
  H   H61       1.0  0.4379895534415608  0.09632668773920998  0.43548059345011575  1.0000
  H   H62       1.0  0.3964946613711122  0.07825913569703018  0.5053997018507098  1.0000
  H   H63       1.0  0.39658882959966296  0.925031631648297  0.5112729606401291  1.0000
  H   H64       1.0  0.4382967416688129  0.9432322927302902  0.44137734586204214  1.0000
  C   C97       1.0  0.4887761190229489  0.17521800099956342  0.15807736164173927  1.0000
  C   C98       1.0  0.5018456230885063  0.17877863033404048  0.11602678062154849  1.0000
  C   C99       1.0  0.48156847543414627  0.20257727357692698  0.08785764651600456  1.0000
  C   C100      1.0  0.44636395749411556  0.2210510070692127  0.10129150177682365  1.0000
  C   C101      1.0  0.43328377131839474  0.21742147771099055  0.14337891245250403  1.0000
  C   C102      1.0  0.4548551654523053  0.19508348475039058  0.1718031766294962  1.0000
  H   H65       1.0  0.5276260992912931  0.16301859072293817  0.10507435449426336  1.0000
  H   H66       1.0  0.4924826226746577  0.20574714640687197  0.055663860765619695  1.0000
  H   H67       1.0  0.4059397503680409  0.2313169168972178  0.15399723832472934  1.0000
  H   H68       1.0  0.44429652299192796  0.192203173122764  0.2041862177656084  1.0000
  C   C103      1.0  0.42307458702720074  0.6494773810417024  0.6657879421212113  1.0000
  C   C104      1.0  0.41722471939982725  0.6916057509808942  0.6838392423155669  1.0000
  C   C105      1.0  0.41279249060591255  0.7303702235766226  0.6588349566135282  1.0000
  C   C106      1.0  0.4155013996567706  0.7276972874218463  0.6158279028594497  1.0000
  C   C107      1.0  0.42242135152517163  0.6862137610537635  0.5979062838291279  1.0000
  C   C108      1.0  0.42576242348589954  0.6469210050994874  0.6227994529989804  1.0000
  H   H69       1.0  0.41511641331162136  0.6936675569125602  0.7170763816533062  1.0000
  H   H70       1.0  0.4081169955632637  0.762738803040309  0.6728289224029532  1.0000
  H   H71       1.0  0.42489995048068896  0.6843519379628321  0.5647024840921095  1.0000
  H   H72       1.0  0.43117887427100343  0.6150275832717167  0.6087426644949291  1.0000
  C   C109      1.0  0.01329421605903125  0.2725608874031561  0.6319372091730887  1.0000
  C   C110      1.0  0.06367695039534384  0.2735445484763127  0.6340117514942117  1.0000
  C   C111      1.0  0.11351743490094  0.32403990555855067  0.6362337176242545  1.0000
  C   C112      1.0  0.11307183675993708  0.3737264647728444  0.6363090627227265  1.0000
  C   C113      1.0  0.06272424764990678  0.3727465753143823  0.6340655686111298  1.0000
  C   C114      1.0  0.012920525370710551  0.32227673677776014  0.6318056979742651  1.0000
  H   H73       1.0  0.06415756126033932  0.23515487365249388  0.6341095473185157  1.0000
  H   H74       1.0  0.15218297787090143  0.32447578638110947  0.6380032615532074  1.0000
  H   H75       1.0  0.062177881364812324  0.41109144907790657  0.634006054387482  1.0000
  H   H76       1.0  0.9743480158790689  0.32194685660957517  0.6299634193287819  1.0000
  C   C115      1.0  0.3630889645326304  0.33836525342306445  0.7528838321249318  1.0000
  C   C116      1.0  0.36765033149186166  0.29681452057979735  0.7737476842096188  1.0000
  C   C117      1.0  0.3902196856575562  0.305935374597964  0.8137290511724995  1.0000
  C   C118      1.0  0.4085071870841928  0.3567991180292624  0.8330546990253725  1.0000
  C   C119      1.0  0.4039683201171479  0.3984443950865779  0.8121895196630996  1.0000
  C   C120      1.0  0.3813484774291494  0.38928970783878786  0.7721926049874495  1.0000
  H   H77       1.0  0.35338016933308297  0.25731514542934825  0.7590046643016203  1.0000
  H   H78       1.0  0.39311854647931493  0.2734772945220055  0.8296600525021515  1.0000
  H   H79       1.0  0.41733918199516123  0.43760495121520937  0.8271006888787827  1.0000
  H   H80       1.0  0.37743769201235394  0.4212820119981497  0.7564577423440101  1.0000
  C   C121      1.0  0.36152178767685894  0.655938984399158  0.27426259817906573  1.0000
  C   C122      1.0  0.4061665475533131  0.6524438370064434  0.2899556720340653  1.0000
  C   C123      1.0  0.44141482868043147  0.6907916800250499  0.31930470831748226  1.0000
  C   C124      1.0  0.43095818109718215  0.7315383165540965  0.33409030467959416  1.0000
  C   C125      1.0  0.38570742158880733  0.7343174104658496  0.3189140298070456  1.0000
  C   C126      1.0  0.3517200789435105  0.6973197034328142  0.28841265383243647  1.0000
  H   H81       1.0  0.4142862080950947  0.62090122380886  0.2788427973875465  1.0000
  H   H82       1.0  0.47596796124355784  0.6879684009491634  0.33105886914890625  1.0000
  H   H83       1.0  0.3775084105547965  0.7657893374707982  0.3302327491873095  1.0000
  H   H84       1.0  0.31748033334226333  0.7004717756336628  0.27624976730309364  1.0000
  C   C127      1.0  0.1313695076190473  0.34770169311605986  0.15064295108182058  1.0000
  C   C128      1.0  0.09530026955269286  0.3066164028693227  0.12320852643440525  1.0000
  C   C129      1.0  0.05180413574183056  0.3100124512138215  0.10453421936194947  1.0000
  C   C130      1.0  0.0444120995714032  0.3547131672207142  0.11313539543573564  1.0000
  C   C131      1.0  0.08083089745605755  0.3961571265035647  0.14021421710000015  1.0000
  C   C132      1.0  0.12417518054843729  0.3926307553095591  0.15898999863005406  1.0000
  H   H85       1.0  0.10071835200833879  0.27180618195283107  0.11661882201097179  1.0000
  H   H86       1.0  0.023940028207840802  0.27793371873575734  0.0836486093387677  1.0000
  H   H87       1.0  0.0752514862315549  0.4308159328180394  0.1468781419258379  1.0000
  H   H88       1.0  0.15208260801200182  0.4245736208991449  0.17982455635492622  1.0000
  C   C133      1.0  0.4178774761726377  0.3811188275831532  0.28195286575545836  1.0000
  C   C134      1.0  0.37185283992071055  0.3467550196083597  0.3058993365727269  1.0000
  C   C135      1.0  0.366153573634704  0.2983391717035268  0.323291758762992  1.0000
  C   C136      1.0  0.4076391383623069  0.2851081942711505  0.31856521127882714  1.0000
  C   C137      1.0  0.45434387486593186  0.3199893488772641  0.2952445789014045  1.0000
  C   C138      1.0  0.4592358270027427  0.3677050504131664  0.27665235546167555  1.0000
  H   H89       1.0  0.3408237092526165  0.3575949890927933  0.31151203434782987  1.0000
  H   H90       1.0  0.32954669162777644  0.2712441890394228  0.340596429046326  1.0000
  H   H91       1.0  0.48704279024822245  0.31084643019098607  0.291944369740553  1.0000
  H   H92       1.0  0.4952942716515522  0.3944346741978386  0.2584790961102023  1.0000
  C   C139      1.0  0.2628319719958988  0.42948347207329995  0.4181123620462945  1.0000
  C   C140      1.0  0.3161766278433596  0.4404293647246103  0.40955683835468615  1.0000
  C   C141      1.0  0.3530768905033607  0.4496024164502125  0.44197901553552066  1.0000
  C   C142      1.0  0.33648847481114  0.44684940127168127  0.4830652590829171  1.0000
  C   C143      1.0  0.28305026640591735  0.4353788043281133  0.4917280017179671  1.0000
  C   C144      1.0  0.24631952799553697  0.42682105687720534  0.45924959885323063  1.0000
  H   H93       1.0  0.3289696204004636  0.4416688087240663  0.37796924734886117  1.0000
  H   H94       1.0  0.39450945436598633  0.4587550892648116  0.4351612822772957  1.0000
  H   H95       1.0  0.26985691972973  0.4328967166414463  0.5234090261919642  1.0000
  H   H96       1.0  0.20493877410665146  0.41798685515436423  0.46599648099304175  1.0000
  N   N1        1.0  0.3567174024338564  0.017937864000416193  0.10226208624001742  1.0000
  C   C145      1.0  0.355634184110405  0.9727410782378592  0.0780655365089189  1.0000
  C   C146      1.0  0.30022792976864565  0.001456170656592981  0.11564679522736099  1.0000
  C   C147      1.0  0.37860877748664157  0.06816908693887958  0.07634316389860896  1.0000
  C   C148      1.0  0.3923273406065262  0.029542042869459273  0.13899553504862827  1.0000
  H   H97       1.0  0.39760380133585843  0.983598507901339  0.06763061290473193  1.0000
  H   H98       1.0  0.32931141813548953  0.96330663505505  0.050010269713477884  1.0000
  H   H99       1.0  0.3386617630634917  0.9338611791791289  0.09641993358402212  1.0000
  H   H100      1.0  0.27265301604575204  0.9940920775312301  0.08872378367280565  1.0000
  H   H101      1.0  0.28154852305092504  0.9625650595924874  0.1340825067600182  1.0000
  H   H102      1.0  0.29965645064451113  0.034022852035968665  0.13483891788200175  1.0000
  H   H103      1.0  0.3779730607290715  0.10245987944482038  0.09307571787083213  1.0000
  H   H104      1.0  0.35397822590893446  0.06057269233051166  0.04766562334209712  1.0000
  H   H105      1.0  0.421819603399441  0.08294784281520884  0.06672793578606218  1.0000
  H   H106      1.0  0.39361697870906887  0.06313984050818533  0.1581228650016666  1.0000
  H   H107      1.0  0.4356343590793264  0.0432200869872954  0.13020799410659833  1.0000
  H   H108      1.0  0.3774320288748447  0.9924376093621546  0.1591310076622956  1.0000
  N   N2        1.0  0.7753579152032875  0.6596165611080608  0.20516076042963746  1.0000
  C   C149      1.0  0.8116589612597277  0.6485947825689571  0.17890189184300956  1.0000
  C   C150      1.0  0.7195892123309859  0.633556560051602  0.1868147442392803  1.0000
  C   C151      1.0  0.7979535063675418  0.7199112076489848  0.20806074388325116  1.0000
  C   C152      1.0  0.7723164343363801  0.636473432496109  0.2468501996642029  1.0000
  H   H109      1.0  0.8544814667595716  0.6693389344939762  0.19131167867793472  1.0000
  H   H110      1.0  0.8136871824749317  0.6640198302536267  0.14683963878876122  1.0000
  H   H111      1.0  0.7970426477374438  0.6035366262273505  0.1773393599906171  1.0000
  H   H112      1.0  0.6911558192303671  0.64078327994727  0.20617701582039144  1.0000
  H   H113      1.0  0.7203037403207568  0.6508216115095542  0.15556092399580024  1.0000
  H   H114      1.0  0.7014816949083965  0.5881072422651091  0.18366429653790084  1.0000
  H   H115      1.0  0.8399966983628526  0.7410588496103685  0.22199464483211892  1.0000
  H   H116      1.0  0.7715541826416218  0.7296560284849346  0.22765944784990844  1.0000
  H   H117      1.0  0.8006458218079668  0.7387232793708611  0.1771214272979743  1.0000
  H   H118      1.0  0.7458940727324338  0.6445979157507526  0.26783620800689273  1.0000
  H   H119      1.0  0.8138376639198619  0.6550184505792445  0.261326795190853  1.0000
  H   H120      1.0  0.7554054963786347  0.5909641958686176  0.2458850651780723  1.0000
  N   N3        1.0  0.40083713094993634  0.7896737441657191  0.9038030774821268  1.0000
  C   C153      1.0  0.41837482948496857  0.8451268359270393  0.9206288200329974  1.0000
  C   C154      1.0  0.44054243631897516  0.7724190495564366  0.9165698024220145  1.0000
  C   C155      1.0  0.3987325646955969  0.7912278032186361  0.8582039553149868  1.0000
  C   C156      1.0  0.34565377709296335  0.7498283744897171  0.919992698353508  1.0000
  H   H121      1.0  0.3893769153971672  0.8594960067436604  0.911515529825515  1.0000
  H   H122      1.0  0.46007137074777193  0.8763789235891417  0.9094399521144721  1.0000
  H   H123      1.0  0.41990465182344683  0.8451379371845672  0.9550593233758772  1.0000
  H   H124      1.0  0.4284573860530029  0.7305457489681048  0.9047756198834619  1.0000
  H   H125      1.0  0.4828163503282996  0.8016979620753425  0.9051833432428896  1.0000
  H   H126      1.0  0.4429371731230069  0.770705687678954  0.9507210948569116  1.0000
  H   H127      1.0  0.36841148075649277  0.8029906395695381  0.847380902444313  1.0000
  H   H128      1.0  0.3862376503372293  0.7501611718633988  0.8445374623093378  1.0000
  H   H129      1.0  0.43944290381315887  0.8217179398242864  0.8449391280030275  1.0000
  H   H130      1.0  0.34586634833633007  0.7477395100973389  0.9543092045385594  1.0000
  H   H131      1.0  0.33069824596078445  0.7074425977968143  0.9079965207677063  1.0000
  H   H132      1.0  0.3147624457356262  0.7617835171202575  0.9111684885422289  1.0000
  N   N4        1.0  0.7975485829000163  0.8545355144046916  0.8537393433070573  1.0000
  C   C157      1.0  0.759804180041759  0.8144564119298993  0.884572146382622  1.0000
  C   C158      1.0  0.7925200858738313  0.904620585437921  0.8546121232853987  1.0000
  C   C159      1.0  0.7830957731944788  0.8295373865048232  0.8121573146861665  1.0000
  C   C160      1.0  0.8547582344533042  0.8695124909466386  0.8638893753356464  1.0000
  H   H133      1.0  0.7624533856545489  0.7760731429802571  0.8852100802493933  1.0000
  H   H134      1.0  0.7161807842770015  0.8023230229422975  0.8781115681918942  1.0000
  H   H135      1.0  0.7695411953630734  0.8325344162552001  0.9161205752602297  1.0000
  H   H136      1.0  0.8196305317226057  0.9356295703311563  0.8313173789571986  1.0000
  H   H137      1.0  0.7493836525029699  0.8945046549240775  0.8483587317544781  1.0000
  H   H138      1.0  0.8037634837261449  0.924802336219623  0.8855111294925188  1.0000
  H   H139      1.0  0.7859918234628794  0.7913161520261224  0.8105132288046779  1.0000
  H   H140      1.0  0.8109752474177537  0.8584295434779482  0.788065787916259  1.0000
  H   H141      1.0  0.7402406375975947  0.8179657114865756  0.8034720121560212  1.0000
  H   H142      1.0  0.8845119430646216  0.8999090072055069  0.8413640251526808  1.0000
  H   H143      1.0  0.8598130572290223  0.832523665042569  0.8635718202130526  1.0000
  H   H144      1.0  0.8667988409753331  0.8882518575031364  0.895219001910395  1.0000
  N   N5        1.0  0.15195727151448035  0.5685219445094848  0.2496207484695781  1.0000
  C   C161      1.0  0.09388732093223906  0.553436777442989  0.2556714674166046  1.0000
  C   C162      1.0  0.1844609397010184  0.6268710028467531  0.23636017238583001  1.0000
  C   C163      1.0  0.15496106766722018  0.5328051390215042  0.2175005037583495  1.0000
  C   C164      1.0  0.17458989249055157  0.5611128490533694  0.28887795789355497  1.0000
  H   H145      1.0  0.08998264162214387  0.578803739609479  0.2803721828331243  1.0000
  H   H146      1.0  0.0677806840183206  0.5092808814236074  0.2646662674921684  1.0000
  H   H147      1.0  0.07607187484060662  0.5604387161229223  0.22705718432976602  1.0000
  H   H148      1.0  0.18070133007677636  0.6549235990345623  0.25873994834250963  1.0000
  H   H149      1.0  0.22895686824221384  0.6403595022289833  0.23327611261531112  1.0000
  H   H150      1.0  0.17017726538221267  0.6332704556973071  0.20585712358278482  1.0000
  H   H151      1.0  0.13130195326266048  0.4884305986077104  0.2265890973041978  1.0000
  H   H152      1.0  0.19837665940727667  0.5435932516681055  0.2118719710393785  1.0000
  H   H153      1.0  0.13780679094500958  0.5371521744125254  0.18759147470419166  1.0000
  H   H154      1.0  0.21837816686411182  0.5720514441477615  0.28537357284586784  1.0000
  H   H155      1.0  0.15109808911490763  0.5175260661995683  0.29989718257151027  1.0000
  H   H156      1.0  0.1732209886474967  0.5878513292726625  0.313624552258775  1.0000
  N   N6        1.0  0.41546755980763345  0.6258170166938788  0.44491037350572216  1.0000
  C   C165      1.0  0.4742521877749513  0.6603052377368865  0.4337658753681372  1.0000
  C   C166      1.0  0.3921470484252545  0.6618578577706257  0.45308660880499596  1.0000
  C   C167      1.0  0.41049258887010875  0.5931387581927806  0.48232049409543293  1.0000
  C   C168      1.0  0.3850638963210505  0.5880297008824  0.41044886502557315  1.0000
  H   H157      1.0  0.4932665915260816  0.6346132982839261  0.42699342492516845  1.0000
  H   H158      1.0  0.4984038150242906  0.6893831487418876  0.4590413152492087  1.0000
  H   H159      1.0  0.47956866473782067  0.6858398997897089  0.40588810718103396  1.0000
  H   H160      1.0  0.3478723660959322  0.637307080705809  0.46164907293166363  1.0000
  H   H161      1.0  0.41442176301468925  0.6914096927996084  0.478633815504921  1.0000
  H   H162      1.0  0.39526099472640513  0.6870583001050328  0.42537431127577996  1.0000
  H   H163      1.0  0.3666461243957701  0.5657678946656118  0.49130574444272096  1.0000
  H   H164      1.0  0.43233466591987  0.6201812952083335  0.5091385857105704  1.0000
  H   H165      1.0  0.4283728146716596  0.5660099749652301  0.47733418174366943  1.0000
  H   H166      1.0  0.34082490405560845  0.560138344758829  0.4182226055959826  1.0000
  H   H167      1.0  0.4026025015636042  0.5613552591890987  0.40255787759918915  1.0000
  H   H168      1.0  0.38655170648580606  0.6112345670994405  0.38202502703356855  1.0000
  N   N7        1.0  0.48636780489075015  0.7242288832381296  0.17590689739475834  1.0000
  C   C169      1.0  0.4607938142704267  0.7481239176695205  0.20226106263024818  1.0000
  C   C170      1.0  0.4662073198417958  0.7195447314204225  0.1330133850117897  1.0000
  C   C171      1.0  0.4715907767915663  0.6688295319888211  0.19164332785312496  1.0000
  C   C172      1.0  0.5468977903773027  0.7604163781446145  0.17683001118909805  1.0000
  H   H169      1.0  0.474629315546931  0.7516827460946128  0.2349870587723819  1.0000
  H   H170      1.0  0.4150260948975331  0.7220614437511795  0.20203692313409666  1.0000
  H   H171      1.0  0.4715637770866087  0.7902243989175788  0.19163017879851676  1.0000
  H   H172      1.0  0.4850561569732837  0.7021465872804767  0.11209339837748276  1.0000
  H   H173      1.0  0.4206702663580017  0.6920588241539746  0.13115282570000011  1.0000
  H   H174      1.0  0.47610638333403227  0.7605241183088387  0.120308425473784  1.0000
  H   H175      1.0  0.4893178963550866  0.6490864081127762  0.17205303227588606  1.0000
  H   H176      1.0  0.4260533453505964  0.6407589350580953  0.1923575284205459  1.0000
  H   H177      1.0  0.4872005324101382  0.6710758393266655  0.22366219618687175  1.0000
  H   H178      1.0  0.5597430680145697  0.802702585736114  0.1652923994974843  1.0000
  H   H179      1.0  0.5678875556719999  0.7437324061439949  0.15748505225902348  1.0000
  H   H180      1.0  0.5633753845406474  0.7650719115923656  0.208827567207785  1.0000
  N   N8        1.0  0.2316324697508336  0.6014700634867388  0.6107307788113134  1.0000
  C   C173      1.0  0.2508758817541757  0.6595785267653251  0.5995001429237291  1.0000
  C   C174      1.0  0.17220084857949952  0.5732161229199291  0.62052655993572  1.0000
  C   C175      1.0  0.2626016767459871  0.5997275327316022  0.6472013170267101  1.0000
  C   C176      1.0  0.24089551172294688  0.5734591199672173  0.5757288288102518  1.0000
  H   H181      1.0  0.29584111584558304  0.6827222473134029  0.5928040871919357  1.0000
  H   H182      1.0  0.24321328414429289  0.6813749058131117  0.6249152678786798  1.0000
  H   H183      1.0  0.22899831605656246  0.6626834445216572  0.571791531155707  1.0000
  H   H184      1.0  0.1475857460982846  0.5735729396550929  0.5936339448696667  1.0000
  H   H185      1.0  0.15623755476127277  0.5292350546470419  0.6293299498301638  1.0000
  H   H186      1.0  0.1638130504505868  0.5935866764994133  0.6466888249915071  1.0000
  H   H187      1.0  0.24868087149857865  0.5563889866498707  0.6567828998479243  1.0000
  H   H188      1.0  0.2572936046592366  0.6211956662616137  0.6740775807280973  1.0000
  H   H189      1.0  0.3075115439244439  0.6200389685089208  0.6407090181399336  1.0000
  H   H190      1.0  0.28546229695392  0.5934694581391141  0.5679760653334689  1.0000
  H   H191      1.0  0.21837304169293595  0.5741639810310355  0.5476050560791599  1.0000
  H   H192      1.0  0.2262692803138208  0.5293078443945064  0.5830980585586216  1.0000
  N   N9        1.0  0.6834711205332136  0.2879630599050652  0.17095301265178725  1.0000
  C   C177      1.0  0.7244630783817204  0.27212904183664793  0.1591714340898411  1.0000
  C   C178      1.0  0.7106608105179251  0.34878986001741263  0.17388540896212204  1.0000
  C   C179      1.0  0.6590037135015628  0.2629791279557412  0.21135007569785674  1.0000
  C   C180      1.0  0.639588334948783  0.2678064724694802  0.13928675847809857  1.0000
  H   H193      1.0  0.7432653060653278  0.28985450992316264  0.1285630812440899  1.0000
  H   H194      1.0  0.7052397362036015  0.22646976028362026  0.15644808918095088  1.0000
  H   H195      1.0  0.7584137487831188  0.28673444302449086  0.18223422635910594  1.0000
  H   H196      1.0  0.7298514810881562  0.36908529752969244  0.14403477486725483  1.0000
  H   H197      1.0  0.6807948969921787  0.36214979964203065  0.1824517273618556  1.0000
  H   H198      1.0  0.7437592808914317  0.36541425955179435  0.1978045505655422  1.0000
  H   H199      1.0  0.6275090788417723  0.27374767162046787  0.22083884271194756  1.0000
  H   H200      1.0  0.6907223434191759  0.277482629757761  0.2362386710076926  1.0000
  H   H201      1.0  0.63792568133963  0.21703291118451326  0.2102841307013499  1.0000
  H   H202      1.0  0.6186088783650321  0.2220503168802538  0.13633414321740273  1.0000
  H   H203      1.0  0.6563504697478088  0.28576133065845855  0.10831875473856403  1.0000
  H   H204      1.0  0.6074131799083051  0.27833565053822046  0.1472217964199796  1.0000
  N   N10       1.0  0.09207277807039405  0.7797766200435156  0.8397088524718841  1.0000
  C   C181      1.0  0.07000531204097227  0.7464533425585773  0.8777556131263441  1.0000
  C   C182      1.0  0.14496404156166998  0.8302748090897548  0.8491482699163321  1.0000
  C   C183      1.0  0.052380415713340955  0.7953807789116747  0.8237348789780725  1.0000
  C   C184      1.0  0.10085688745694399  0.7469281679022052  0.808202610054097  1.0000
  H   H205      1.0  0.030114082100340722  0.7079870231744628  0.8717674609521547  1.0000
  H   H206      1.0  0.06309609055911514  0.7699800013439253  0.9023236085603722  1.0000
  H   H207      1.0  0.09904109797041594  0.7339267557606529  0.8905411872073853  1.0000
  H   H208      1.0  0.13967831847273704  0.8564916188420691  0.8723247123417308  1.0000
  H   H209      1.0  0.17533471514230303  0.8199352673999033  0.8622343731615262  1.0000
  H   H210      1.0  0.16360892500466018  0.8557321784864479  0.8209536938914122  1.0000
  H   H211      1.0  0.011743907532369091  0.758209643848521  0.8167436807619763  1.0000
  H   H212      1.0  0.06714642685622918  0.8193715048505186  0.7944172283784942  1.0000
  H   H213      1.0  0.045189020334432506  0.8208715980508243  0.8463222404234817  1.0000
  H   H214      1.0  0.12819372851255784  0.7318160195520738  0.8200143323625867  1.0000
  H   H215      1.0  0.12023157545884211  0.7716277362573393  0.7798272651434794  1.0000
  H   H216      1.0  0.06125166687399619  0.7101944654145167  0.7985813425340789  1.0000
  N   N11       1.0  0.367032950626152  0.05523011301464352  0.7706582381552854  1.0000
  C   C185      1.0  0.31630105171672646  0.05856089391624742  0.7740465808232938  1.0000
  C   C186      1.0  0.4155160290277251  0.11016485349463943  0.7789722557158426  1.0000
  C   C187      1.0  0.3708764314453876  0.03698410633067559  0.7286399685906287  1.0000
  C   C188      1.0  0.3653655271856665  0.014971461031759727  0.801103620482414  1.0000
  H   H217      1.0  0.31195448982562435  0.07176737787755995  0.8055329925167284  1.0000
  H   H218      1.0  0.2788759968402304  0.01787390179245074  0.767974098736805  1.0000
  H   H219      1.0  0.316422667069587  0.08904277400898465  0.7517945779926064  1.0000
  H   H220      1.0  0.41352132993866675  0.12494154724302779  0.8105121342046258  1.0000
  H   H221      1.0  0.4545194674227118  0.10908791682984523  0.7772004441012188  1.0000
  H   H222      1.0  0.41818143465271973  0.14174076210200603  0.7566361929681927  1.0000
  H   H223      1.0  0.4085241833527495  0.033630967160671  0.7251685239339284  1.0000
  H   H224      1.0  0.3719342348515609  0.06605553595918513  0.7046225325157207  1.0000
  H   H225      1.0  0.33513764527567697  0.995264833493412  0.7217596012534927  1.0000
  H   H226      1.0  0.40210675796556467  0.009942911255917286  0.7984003232731999  1.0000
  H   H227      1.0  0.32826782407703026  0.9735218580511702  0.7966506793757193  1.0000
  H   H228      1.0  0.3645370069598971  0.028142144502335112  0.8332671513711136  1.0000
  N   N12       1.0  0.05989226618779236  0.5008078698493559  0.02350580815914949  1.0000
  C   C189      1.0  0.08571629501856429  0.5527831792274462  0.999411647789827  1.0000
  C   C190      1.0  0.04981551516247481  0.5121442916737032  0.06616327887569362  1.0000
  C   C191      1.0  0.09713281850058841  0.47781877441826376  0.024404405414608865  1.0000
  C   C192      1.0  0.006984276130541889  0.4606535012093916  0.004060550813813846  1.0000
  H   H229      1.0  0.09341300832279338  0.5458925860798595  0.9669213547662653  1.0000
  H   H230      1.0  0.1258351130706816  0.5839259044384133  0.01321779538313872  1.0000
  H   H231      1.0  0.05919598790491404  0.5718776303306088  0.9988482561847272  1.0000
  H   H232      1.0  0.08887453783361858  0.5419884994922042  0.08189519693315761  1.0000
  H   H233      1.0  0.02250353052391318  0.5302976196033318  0.06663667207175572  1.0000
  H   H234      1.0  0.029811317750314426  0.47390499903399813  0.08523294624064315  1.0000
  H   H235      1.0  0.10549335217259966  0.46857282112811555  0.992774455369571  1.0000
  H   H236      1.0  0.07896442316656516  0.4385497401935855  0.042315583412524616  1.0000
  H   H237      1.0  0.1372645706248258  0.5069255731687291  0.039165317909136466  1.0000
  H   H238      1.0  0.9778839721130095  0.47665699487248925  0.0029881175259047765  1.0000
  H   H239      1.0  0.9863281254158822  0.4210597433772029  0.02158842117187776  1.0000
  H   H240      1.0  0.012860155021433102  0.45062161637596887  0.9719442500128131  1.0000
  N   N13       1.0  0.3333616740046241  0.3095700360171148  0.16462551531886188  1.0000
  C   C193      1.0  0.30662602803874944  0.3062364647531762  0.20456625111988913  1.0000
  C   C194      1.0  0.3075796366913035  0.25411473032420906  0.14572239139201165  1.0000
  C   C195      1.0  0.3927150067292791  0.3303816869897608  0.17144139826623864  1.0000
  C   C196      1.0  0.3264537080545083  0.3477261351549428  0.1368560130605906  1.0000
  H   H241      1.0  0.2619076767851366  0.2916672202269167  0.20061392537412817  1.0000
  H   H242      1.0  0.32574398901991053  0.3474400820446564  0.21953485634833614  1.0000
  H   H243      1.0  0.31070947531687726  0.277770247977532  0.2265150103879908  1.0000
  H   H244      1.0  0.32724617758570984  0.2550705506191543  0.11563609718316616  1.0000
  H   H245      1.0  0.31159954696608994  0.22421375005686828  0.1661063715873014  1.0000
  H   H246      1.0  0.26286848891954134  0.23748475482259293  0.1398350444787951  1.0000
  H   H247      1.0  0.39938004324287285  0.304094509874322  0.1939486662475112  1.0000
  H   H248      1.0  0.41386481062549973  0.37305462731337863  0.18423536141950947  1.0000
  H   H249      1.0  0.4138474789678693  0.33123562018654146  0.14215889125355088  1.0000
  H   H250      1.0  0.28201905483614015  0.33366710531590454  0.13167560508965553  1.0000
  H   H251      1.0  0.34566081343085786  0.3509414869634901  0.10621420324311473  1.0000
  H   H252      1.0  0.3456679259325289  0.3900064085301378  0.15024541489616666  1.0000
  N   N14       1.0  0.03388899248437949  0.7337656248872686  0.5447782267183078  1.0000
  C   C197      1.0  0.03323332486924602  0.680686242524361  0.5467666781011191  1.0000
  C   C198      1.0  0.9980843111529456  0.735162219345638  0.5775472018688662  1.0000
  C   C199      1.0  0.013347211846286733  0.7392516495629313  0.5039574463318173  1.0000
  C   C200      1.0  0.09085457178181278  0.7798584656209829  0.5507645781599034  1.0000
  H   H253      1.0  0.05002753920821079  0.6758597603267961  0.5766616445053527  1.0000
  H   H254      1.0  0.05860944288244774  0.6775692586636669  0.5217735758951141  1.0000
  H   H255      1.0  0.9906479917102541  0.6449331598698348  0.5434637351962166  1.0000
  H   H256      1.0  0.01243961541841121  0.7312587342086675  0.6087892571921995  1.0000
  H   H257      1.0  0.9971369050735955  0.7743956402657399  0.5768512639588537  1.0000
  H   H258      1.0  0.95478922491339  0.7008285528984505  0.5740990938036797  1.0000
  H   H259      1.0  0.012507588667404645  0.778449399054703  0.50136588358624  1.0000
  H   H260      1.0  0.9707438428059505  0.7048218875006467  0.4984307184763244  1.0000
  H   H261      1.0  0.039309448233383115  0.7383746452256711  0.47840863431176495  1.0000
  H   H262      1.0  0.10742541546896578  0.7772827157981083  0.5814533735715367  1.0000
  H   H263      1.0  0.0930473731887187  0.8206060762466985  0.5490098503759179  1.0000
  H   H264      1.0  0.11921658691443504  0.77947450090805  0.5270212487086868  1.0000
  N   N15       1.0  0.7381280321903123  0.3415478517930949  0.8140807102067363  1.0000
  C   C201      1.0  0.7602376340258535  0.39801957343190414  0.7973488086738025  1.0000
  C   C202      1.0  0.7273306596210756  0.30260034902626287  0.7798823397475725  1.0000
  C   C203      1.0  0.686199306759279  0.3248286765817679  0.8362677865665664  1.0000
  C   C204      1.0  0.7785365115863017  0.34051785856688016  0.8429360166167121  1.0000
  H   H265      1.0  0.7689338350617636  0.4285120719619485  0.8223172748462898  1.0000
  H   H266      1.0  0.7306793183686354  0.4003924716520358  0.7755491474244806  1.0000
  H   H267      1.0  0.7992603723821852  0.4120010328778196  0.7800207066895658  1.0000
  H   H268      1.0  0.7099641758775758  0.25948452145992007  0.7914550531631677  1.0000
  H   H269      1.0  0.6974391908157549  0.30260395503597887  0.7572357034368443  1.0000
  H   H270      1.0  0.7657435131848124  0.31323504166729405  0.7627765180753182  1.0000
  H   H271      1.0  0.6683026883336688  0.2823486017935397  0.8493136121799925  1.0000
  H   H272      1.0  0.6545773778453253  0.32519576598013017  0.8156781780985379  1.0000
  H   H273      1.0  0.6926466105149686  0.35294012319484497  0.862595984768502  1.0000
  H   H274      1.0  0.7636580252763686  0.29814478052819304  0.8553030386681101  1.0000
  H   H275      1.0  0.786467300915529  0.3681388028060646  0.8698435785529439  1.0000
  H   H276      1.0  0.8186656626576535  0.3540763515279267  0.8274856890870277  1.0000
  N   N16       1.0  0.6241908000675536  0.04891243971105383  0.3919160168707681  1.0000
  C   C205      1.0  0.6795428581322787  0.055200689135827055  0.3958984248521329  1.0000
  C   C206      1.0  0.5849630157265046  0.002873869105183058  0.4185051964817733  1.0000
  C   C207      1.0  0.6055692259896862  0.03688706152748951  0.348485351599006  1.0000
  C   C208      1.0  0.6265993811530539  0.10067381026874915  0.40482629611528836  1.0000
  H   H277      1.0  0.7101149011033364  0.08895085011573982  0.3757825449416937  1.0000
  H   H278      1.0  0.6792508662735933  0.016589237382069747  0.387219429348497  1.0000
  H   H279      1.0  0.695112728890603  0.06511215276449034  0.4282299131543173  1.0000
  H   H280      1.0  0.5424372163961875  0.9958670612343835  0.41532928470969743  1.0000
  H   H281      1.0  0.5831811432852535  0.9634111567494567  0.41035346059367334  1.0000
  H   H282      1.0  0.5966420063978137  0.011318110497561262  0.45161709600306404  1.0000
  H   H283      1.0  0.5637968521242945  0.031778965029989815  0.3445584959348164  1.0000
  H   H284      1.0  0.6030810981491473  0.9980100794241301  0.3377568289868474  1.0000
  H   H285      1.0  0.6339568678064754  0.07079966411512764  0.32747225556976256  1.0000
  H   H286      1.0  0.585409349003809  0.09721448567809822  0.40256510728683276  1.0000
  H   H287      1.0  0.6552242015393357  0.13619460425266405  0.38504227409577835  1.0000
  H   H288      1.0  0.6408137445032192  0.11116838762615165  0.43738964878381387  1.0000
  N   N17       1.0  0.5524769841389081  0.560799104929197  0.7167679697465901  1.0000
  C   C209      1.0  0.5658888050507986  0.6123586304419444  0.7385550299936435  1.0000
  C   C210      1.0  0.5972942557906805  0.548397538957763  0.7234071894158896  1.0000
  C   C211      1.0  0.5466295003083862  0.5678918695296886  0.6721097757040941  1.0000
  C   C212      1.0  0.500142783264903  0.5147970208303443  0.7329059012170636  1.0000
  H   H289      1.0  0.5329901577447194  0.6230825644113475  0.7340169182544091  1.0000
  H   H290      1.0  0.6051982951425907  0.6478685253432263  0.7270519882531036  1.0000
  H   H291      1.0  0.5708001410316774  0.6086975395535765  0.7723255167708807  1.0000
  H   H292      1.0  0.5881815891842552  0.5092279993745065  0.7080122779623165  1.0000
  H   H293      1.0  0.6371456519748997  0.5818525128369969  0.7108173159918455  1.0000
  H   H294      1.0  0.603985802444939  0.5443567438816129  0.7568622618697237  1.0000
  H   H295      1.0  0.5133590743113038  0.5777162059618718  0.666093364843103  1.0000
  H   H296      1.0  0.5361721456597374  0.5297126447038877  0.654606441271999  1.0000
  H   H297      1.0  0.585439875102732  0.602247042682482  0.6589467125496473  1.0000
  H   H298      1.0  0.4881943725007413  0.4752834654654613  0.716730671122349  1.0000
  H   H299      1.0  0.4656110959624504  0.5232172802631041  0.7287203450780695  1.0000
  H   H300      1.0  0.5031505414249628  0.5077615212551279  0.766425717708156  1.0000
  N   N18       1.0  0.7879378962733662  0.40536926079580854  0.45581915901388304  1.0000
  C   C213      1.0  0.7855825715825057  0.4397476312453413  0.42192906084168685  1.0000
  C   C214      1.0  0.7571700351832389  0.40802335611814927  0.49181232320170093  1.0000
  C   C215      1.0  0.8459457724610139  0.4261650081033213  0.46776812548031205  1.0000
  C   C216      1.0  0.763076320084369  0.3474617901839578  0.4419315158338754  1.0000
  H   H301      1.0  0.8120876444106441  0.44251646384561394  0.3955168400708961  1.0000
  H   H302      1.0  0.8003649733860482  0.4828199048665075  0.4323020180832588  1.0000
  H   H303      1.0  0.7428916574022351  0.42277669104340065  0.4098923982689644  1.0000
  H   H304      1.0  0.7753811011108293  0.4511092597858228  0.5034596305656336  1.0000
  H   H305      1.0  0.7133298531427134  0.3930383405087809  0.483839245483816  1.0000
  H   H306      1.0  0.7578817812764782  0.3822598348376209  0.5178822498374587  1.0000
  H   H307      1.0  0.8656883791083912  0.46932177792652063  0.47916429318497705  1.0000
  H   H308      1.0  0.8708610175530105  0.42608688262557526  0.4411790209037516  1.0000
  H   H309      1.0  0.8493159106762949  0.4006882220957289  0.4928732718847954  1.0000
  H   H310      1.0  0.7640135876168858  0.32047745646669085  0.4669497213398187  1.0000
  H   H311      1.0  0.7854621905510777  0.34392286449614823  0.4149469334109456  1.0000
  H   H312      1.0  0.7193557350058327  0.33039620267287695  0.4322890439901618  1.0000
  N   N19       1.0  0.4912473541502402  0.5190741601516806  0.9348164415410674  1.0000
  C   C217      1.0  0.5078809628375891  0.573853523734304  0.9523403205794002  1.0000
  C   C218      1.0  0.5070493668292546  0.5254651946475791  0.8907760540854569  1.0000
  C   C219      1.0  0.4309307560652999  0.48313690514710256  0.9388564434329943  1.0000
  C   C220      1.0  0.5194384946492555  0.4942325971282182  0.9573634474090259  1.0000
  H   H313      1.0  0.49767276645911146  0.5710070923429211  0.9857902480204068  1.0000
  H   H314      1.0  0.48688001035652356  0.5936420690134867  0.9365941481473085  1.0000
  H   H315      1.0  0.5529503585011825  0.6021349608028415  0.9490886992502431  1.0000
  H   H316      1.0  0.496334605816373  0.4850675603433699  0.8768160542177392  1.0000
  H   H317      1.0  0.48595155703028725  0.5431985123713078  0.8725699556945354  1.0000
  H   H318      1.0  0.5523373914668072  0.5530440177417862  0.8869331775082125  1.0000
  H   H319      1.0  0.4166943357450192  0.4411671086809337  0.9263942129033832  1.0000
  H   H320      1.0  0.4084390887404946  0.5003363979757199  0.9217885487342202  1.0000
  H   H321      1.0  0.41791239376682493  0.47798755416018274  0.9717565774836308  1.0000
  H   H322      1.0  0.5078078267529853  0.4527565206595012  0.9447949435726012  1.0000
  H   H323      1.0  0.5088283962814428  0.4889097101296591  0.9907553211892676  1.0000
  H   H324      1.0  0.5650960215598675  0.520458232237431  0.9548670156275649  1.0000
  N   N20       1.0  0.3375362266513915  0.29098342180164793  0.4525536918851278  1.0000
  C   C221      1.0  0.3007673682883442  0.24305592563797768  0.4265732067614079  1.0000
  C   C222      1.0  0.3042076263236923  0.3079224270729908  0.4770398856063871  1.0000
  C   C223      1.0  0.3760844599958226  0.337412540359712  0.4259535456559313  1.0000
  C   C224      1.0  0.36926624457123186  0.27556142879854967  0.4806526255760533  1.0000
  H   H325      1.0  0.32467430431431793  0.22914000576167198  0.40771660730966797  1.0000
  H   H326      1.0  0.27624367785998616  0.2532903838912068  0.4049271916465501  1.0000
  H   H327      1.0  0.27121657305491315  0.20719678779559406  0.4456253326255409  1.0000
  H   H328      1.0  0.3305472175461579  0.34270128347310885  0.49811348775380115  1.0000
  H   H329      1.0  0.2813749956884438  0.32198866410318777  0.45681834089577955  1.0000
  H   H330      1.0  0.2734409871272092  0.27347821207505696  0.49658001278334013  1.0000
  H   H331      1.0  0.4023311966763205  0.32622938913364874  0.40733318267030943  1.0000
  H   H332      1.0  0.40402149252302516  0.3744407573742754  0.44463253027685323  1.0000
  H   H333      1.0  0.35366502443519293  0.3498525639323542  0.40392245384367365  1.0000
  H   H334      1.0  0.3976999581068234  0.3109630500978633  0.5005611023013005  1.0000
  H   H335      1.0  0.3946517662191051  0.2623342246098713  0.46299526904564625  1.0000
  H   H336      1.0  0.3415699387032725  0.24080821923915463  0.5013692601084233  1.0000
  N   N21       1.0  0.544734653699063  0.07229303934899137  0.5889770292344328  1.0000
  C   C225      1.0  0.564914857177774  0.05647888243818778  0.6258902855857398  1.0000
  C   C226      1.0  0.5880645014916923  0.12678369133203335  0.5736355702091883  1.0000
  C   C227      1.0  0.4954797088796009  0.07551004194705173  0.6000775186827166  1.0000
  C   C228      1.0  0.5302456452798484  0.03041028969643236  0.5563233706460652  1.0000
  H   H337      1.0  0.6019279774019471  0.05334425383277209  0.6187106282340227  1.0000
  H   H338      1.0  0.5331429316638359  0.01550636254983373  0.6381606812052125  1.0000
  H   H339      1.0  0.5767785454193177  0.08737028952116885  0.6510499694603521  1.0000
  H   H340      1.0  0.5737627219085283  0.14014424839534395  0.5461388202283407  1.0000
  H   H341      1.0  0.6008851013750608  0.15922289900438363  0.5977155350678088  1.0000
  H   H342      1.0  0.6256164518081854  0.12577908710298225  0.5643583702250183  1.0000
  H   H343      1.0  0.4780887441137106  0.08574797361177194  0.5726894000957642  1.0000
  H   H344      1.0  0.5050542992175105  0.10751288754620647  0.6239442938459683  1.0000
  H   H345      1.0  0.46226873337889496  0.035345165139371956  0.6124519745753639  1.0000
  H   H346      1.0  0.49651686723960686  0.9890448821422924  0.5663966388528986  1.0000
  H   H347      1.0  0.5662523987657276  0.02596671443868277  0.5479442784071082  1.0000
  H   H348      1.0  0.5158344950639  0.041579599625638286  0.527733303288265  1.0000
  N   N22       1.0  0.72282076345599  0.028975767126178574  0.0929370791506939  1.0000
  C   C229      1.0  0.7378709931240576  0.0812873458286578  0.07126784489193437  1.0000
  C   C230      1.0  0.7729073124538653  0.03218694473575432  0.11080542563334343  1.0000
  C   C231      1.0  0.6971954395905765  0.9828322413870415  0.06319120572119072  1.0000
  C   C232      1.0  0.6834492627526476  0.019796120832006586  0.12641365635334514  1.0000
  H   H349      1.0  0.701556895106998  0.0801066202553535  0.056233795609850944  1.0000
  H   H350      1.0  0.769086396689153  0.09039040488525661  0.046760129379231  1.0000
  H   H351      1.0  0.7556178452773641  0.11692722055377348  0.09289104265455912  1.0000
  H   H352      1.0  0.7631968110017806  0.9940355255404213  0.1282987589656314  1.0000
  H   H353      1.0  0.8030002580735536  0.03767053600411786  0.08641416221160715  1.0000
  H   H354      1.0  0.7944016005132933  0.06780883886884242  0.13225359227317018  1.0000
  H   H355      1.0  0.7251493965598316  0.9897252922033186  0.03681607353523719  1.0000
  H   H356      1.0  0.6584365442083091  0.9782034829434013  0.05003525595680812  1.0000
  H   H357      1.0  0.6873729382927782  0.9428758886204659  0.07773698593646226  1.0000
  H   H358      1.0  0.6712978049592642  0.9806914353860529  0.14352590955238698  1.0000
  H   H359      1.0  0.6452678831589994  0.017482179862203132  0.11413088200497114  1.0000
  H   H360      1.0  0.7017138834334208  0.05394875571563217  0.14935779768410132  1.0000
  N   N23       1.0  0.968510239518196  0.22599733956499032  0.7646030972704897  1.0000
  C   C233      1.0  0.9790718431920054  0.2654274865095873  0.7984044282688133  1.0000
  C   C234      1.0  0.9597231701160054  0.1733491362579113  0.782112029146316  1.0000
  C   C235      1.0  0.016357310818386095  0.2493108748814629  0.736461596605425  1.0000
  C   C236      1.0  0.9188335651753268  0.21576863926212084  0.7413649651881616  1.0000
  H   H361      1.0  0.9443506883630344  0.24860240801933717  0.8208274994390954  1.0000
  H   H362      1.0  0.9845664062402548  0.305171970245686  0.7863164222423021  1.0000
  H   H363      1.0  0.01690340432504378  0.2750019662512102  0.8160833078674222  1.0000
  H   H364      1.0  0.923787527500685  0.15469795740753073  0.803449415849104  1.0000
  H   H365      1.0  0.9516014333972928  0.1427360768647312  0.7572914197301752  1.0000
  H   H366      1.0  0.9964387647278228  0.17950276434578666  0.7998297671878817  1.0000
  H   H367      1.0  0.054955341436413896  0.2586011557971272  0.752855001161046  1.0000
  H   H368      1.0  0.0233133912759933  0.2883817231867454  0.7217788588966123  1.0000
  H   H369      1.0  0.01005434553886242  0.22008636902004444  0.7109996918005381  1.0000
  H   H370      1.0  0.909488923810763  0.18589833545210754  0.7157548357918605  1.0000
  H   H371      1.0  0.924284215099431  0.25445979497304605  0.7271386486385899  1.0000
  H   H372      1.0  0.8818380964403832  0.19848662354119348  0.7615738598761371  1.0000
  N   N24       1.0  0.7851459882704931  0.814533971499292  0.4564949862724063  1.0000
  C   C237      1.0  0.7692349442717474  0.8537700669782585  0.4728093018928096  1.0000
  C   C238      1.0  0.7375669322711526  0.7576961719330021  0.4589442427930047  1.0000
  C   C239      1.0  0.8312628154392244  0.8180579189130399  0.4811084244837241  1.0000
  C   C240      1.0  0.802413225447846  0.8284935702736295  0.4129724484802992  1.0000
  H   H373      1.0  0.8038486109482741  0.8972837426192184  0.47092594919857494  1.0000
  H   H374      1.0  0.756036591353753  0.8447980604923845  0.5056303395186535  1.0000
  H   H375      1.0  0.7344998180764014  0.8520251275654849  0.4548049497859584  1.0000
  H   H376      1.0  0.7473795160978529  0.7272375200919127  0.44526339962832945  1.0000
  H   H377      1.0  0.7245725695324552  0.7449419985217344  0.4914581004493426  1.0000
  H   H378      1.0  0.701407752007384  0.7539264258755983  0.4417781713127679  1.0000
  H   H379      1.0  0.8439371083337609  0.7886790835247862  0.4695567084907888  1.0000
  H   H380      1.0  0.8196480984942004  0.8075680647137853  0.5141519089557706  1.0000
  H   H381      1.0  0.8679703212145413  0.8603485651540681  0.47984702606701574  1.0000
  H   H382      1.0  0.8162645711390656  0.8008137493123385  0.3998706705646576  1.0000
  H   H383      1.0  0.8369396277669204  0.8717837284434812  0.4096173845885743  1.0000
  H   H384      1.0  0.7678796120827343  0.8242345631583748  0.393344967566615  1.0000
