data_image0
_chemical_formula_structural       FeS2FeS2FeSFeS3FeS2FeS2FeSFeS3FeS2FeS2FeSFeS3FeS2FeS2FeSFeS3FeS2FeS2FeSFeS3FeS2FeS2FeSFeS3FeS2FeS2FeSFeS3FeS2FeS2FeSFeS3FeS2FeS2FeSFeS3FeS2FeS2FeSFeS3FeS2FeS2FeSFeS3FeS2FeS2FeSFeS3C6H4C6H4C6H4C6H4C6H4C6H4C6H4C6H4C6H4C6H4C6H4C6H4C6H4C6H4C6H4C6H4C6H4C6H4C6H4C6H4C6H4C6H4C6H4C6H4FeS2FeS2FeSFeS3FeS2FeS2FeSFeS3FeS2FeS2FeSFeS3FeS2FeS2FeSFeS3FeS2FeS2FeSFeS3FeS2FeS2FeSFeS3FeS2FeS2FeSFeS3FeS2FeS2FeSFeS3FeS2FeS2FeSFeS3FeS2FeS2FeSFeS3FeS2FeS2FeSFeS3FeS2FeS2FeSFeS3C6H4C6H4C6H4C6H4C6H4C6H4C6H4C6H4C6H4C6H4C6H4C6H4C6H4C6H4C6H4C6H4C6H4C6H4C6H4C6H4C6H4C6H4C6H4C6H4NC4H12NC4H12NC4H12NC4H12NC4H12NC4H12NC4H12NC4H12NC4H12NC4H12NC4H12NC4H12NC4H12NC4H12NC4H12NC4H12NC4H12NC4H12NC4H12NC4H12NC4H12NC4H12NC4H12NC4H12NC4H12NC4H12NC4H12NC4H12NC4H12NC4H12NC4H12NC4H12NC4H12NC4H12NC4H12NC4H12NC4H12NC4H12NC4H12NC4H12NC4H12NC4H12NC4H12NC4H12NC4H12NC4H12NC4H12NC4H12
_chemical_formula_sum              "Fe96 S192 C480 H768 N48"
_cell_length_a       51.166269131574545
_cell_length_b       51.357551973608444
_cell_length_c       46.33451535519256
_cell_angle_alpha    90.02090589333902
_cell_angle_beta     89.61910941338185
_cell_angle_gamma    119.92108749309652

_space_group_name_H-M_alt    "P 1"
_space_group_IT_number       1

loop_
  _space_group_symop_operation_xyz
  'x, y, z'

loop_
  _atom_site_type_symbol
  _atom_site_label
  _atom_site_symmetry_multiplicity
  _atom_site_fract_x
  _atom_site_fract_y
  _atom_site_fract_z
  _atom_site_occupancy
  Fe  Fe1       1.0  0.2244262669552032  0.6386500149452544  0.39595247856126814  1.0000
  S   S1        1.0  0.19584152379629857  0.65789195106188  0.4113819593541424  1.0000
  S   S2        1.0  0.23448356546433385  0.6453899017708998  0.3480272596797485  1.0000
  Fe  Fe2       1.0  0.2357587987434137  0.6258450144957681  0.457983528957995  1.0000
  S   S3        1.0  0.2083093909608163  0.6445889971031074  0.47686068041245655  1.0000
  S   S4        1.0  0.2571068866849174  0.6069281043183385  0.48757955244991136  1.0000
  Fe  Fe3       1.0  0.17522619381934654  0.6185951425416014  0.4420224972882671  1.0000
  S   S5        1.0  0.12773547347782513  0.5841948021354254  0.4558140196002428  1.0000
  Fe  Fe4       1.0  0.23250812603699494  0.6815712946681188  0.44440047409829175  1.0000
  S   S6        1.0  0.2549946055826969  0.7315586769669997  0.4536493541895228  1.0000
  S   S7        1.0  0.2016399377920023  0.5978107672277954  0.4244912220370741  1.0000
  S   S8        1.0  0.2618739177090597  0.6642229364193719  0.4273686574236246  1.0000
  Fe  Fe5       1.0  0.47624555500085264  0.9070243561632886  0.47444299311731214  1.0000
  S   S9        1.0  0.4268349027541416  0.891649819749728  0.4782621706108087  1.0000
  S   S10       1.0  0.5064887142675597  0.93086825779993  0.4362643818756047  1.0000
  Fe  Fe6       1.0  0.4658758170598432  0.8769678591110702  0.03923729086024409  1.0000
  S   S11       1.0  0.41679868302952666  0.8604622739292997  0.048154238207468794  1.0000
  S   S12       1.0  0.5028443778135372  0.8777597193378217  0.0665408076599568  1.0000
  Fe  Fe7       1.0  0.42306463055505245  0.8516219663593576  0.5021229894147701  1.0000
  S   S13       1.0  0.39145259018997186  0.8014587032281888  0.4955867168647476  1.0000
  Fe  Fe8       1.0  0.4398435503540877  0.9146979176630796  0.5214734651490723  1.0000
  S   S14       1.0  0.40686418989448464  0.931844408538336  0.03289934739193709  1.0000
  S   S15       1.0  0.4718514284360103  0.8654786109969413  0.49467950676073885  1.0000
  S   S16       1.0  0.47404001411520763  0.9190710765457528  0.01686126795274599  1.0000
  Fe  Fe9       1.0  0.582395450472686  0.9069863508911739  0.2594480448817813  1.0000
  S   S17       1.0  0.537686088033619  0.9027651436236498  0.2708379760421281  1.0000
  S   S18       1.0  0.6262582820498643  0.951507665604062  0.2562728182236969  1.0000
  Fe  Fe10      1.0  0.5551829802225102  0.8393748328217535  0.24953787633686184  1.0000
  S   S19       1.0  0.5085550367975502  0.830767056892254  0.25929004576546355  1.0000
  S   S20       1.0  0.5565587370361291  0.797414665215285  0.23661879209075282  1.0000
  Fe  Fe11      1.0  0.52067014201608  0.8716389098179398  0.23267718797376524  1.0000
  S   S21       1.0  0.48736970304220767  0.8746285439172934  0.20284620493024225  1.0000
  Fe  Fe12      1.0  0.5298302673605916  0.8622877366959896  0.29638578013650213  1.0000
  S   S22       1.0  0.5057888456271787  0.8440309533408334  0.3390470303974899  1.0000
  S   S23       1.0  0.5658129261053366  0.8780992230901136  0.2196718747988558  1.0000
  S   S24       1.0  0.576040233297926  0.8686695075486709  0.28822979330941756  1.0000
  Fe  Fe13      1.0  0.5738548182421968  0.6821589168910391  0.32616270427075145  1.0000
  S   S25       1.0  0.5266992647862591  0.6705926430479785  0.33705288832425573  1.0000
  S   S26       1.0  0.6065831842232713  0.7303574346423969  0.3141603093523683  1.0000
  Fe  Fe14      1.0  0.560469873199682  0.6174094433660637  0.333804734559286  1.0000
  S   S27       1.0  0.511698516568458  0.6010989766940593  0.3446878638189373  1.0000
  S   S28       1.0  0.5691967655653101  0.5782370307796003  0.3324115884151124  1.0000
  Fe  Fe15      1.0  0.5136405242634948  0.6308779540319644  0.30842431960022193  1.0000
  S   S29       1.0  0.4795801432413971  0.6203249437196025  0.2733397352240383  1.0000
  Fe  Fe16      1.0  0.529674569573914  0.6422295980690148  0.37231300939791906  1.0000
  S   S30       1.0  0.5147284881729597  0.6452010052655187  0.41760654515761614  1.0000
  S   S31       1.0  0.5608388469721091  0.6441284816244758  0.2951915480056821  1.0000
  S   S32       1.0  0.578402108782005  0.6569197129954699  0.3639029424989099  1.0000
  Fe  Fe17      1.0  0.45101625727992006  0.5044336180277363  0.08242689164926885  1.0000
  S   S33       1.0  0.4988000687158517  0.5402309575297731  0.08903918771664357  1.0000
  S   S34       1.0  0.44479333317648223  0.46072845472051965  0.06413639080564783  1.0000
  Fe  Fe18      1.0  0.4268752322897607  0.5464615867280953  0.0983749951797299  1.0000
  S   S35       1.0  0.47370334095037747  0.5853382232644829  0.10595923731305783  1.0000
  S   S36       1.0  0.39168758031480394  0.560870188792173  0.10349347067602722  1.0000
  Fe  Fe19      1.0  0.48657532713571744  0.5705953835669217  0.06530926616924052  1.0000
  S   S37       1.0  0.5210063448793231  0.6029309988820092  0.03293054865553667  1.0000
  Fe  Fe20      1.0  0.48142046311575354  0.5514151025884136  0.12872902329722083  1.0000
  S   S38       1.0  0.5081685469614216  0.5591179264045821  0.16927867378339587  1.0000
  S   S39       1.0  0.43942936112109915  0.5340852307689564  0.055861855918834344  1.0000
  S   S40       1.0  0.4338873319893748  0.5132570245183146  0.12425045793528558  1.0000
  Fe  Fe21      1.0  0.20861827502564376  0.5405826544350708  0.21394551580780877  1.0000
  S   S41       1.0  0.19395772481994752  0.4953633118376913  0.19423807000804436  1.0000
  S   S42       1.0  0.19999453618951055  0.5366468555095965  0.2623499848744011  1.0000
  Fe  Fe22      1.0  0.22764242724452127  0.5717194305872709  0.15557709531396413  1.0000
  S   S43       1.0  0.21439779701029754  0.529084016868108  0.13178741329219368  1.0000
  S   S44       1.0  0.24341934073820284  0.6142558922913987  0.12942469086476524  1.0000
  Fe  Fe23      1.0  0.17298189624023627  0.5091124349801033  0.15975148181654433  1.0000
  S   S45       1.0  0.12981096598180686  0.478536851877743  0.13617343468326307  1.0000
  Fe  Fe24      1.0  0.23660267991675468  0.5186769414292152  0.16796298012600624  1.0000
  S   S46       1.0  0.2605783764546513  0.4921628574787533  0.15995211769620263  1.0000
  S   S47       1.0  0.18419157602936503  0.552655085033958  0.1809792801299992  1.0000
  S   S48       1.0  0.2533212990420821  0.5631077413308259  0.1902623920583408  1.0000
  Fe  Fe25      1.0  0.6636767258703176  0.4744153853075674  0.29597730686637475  1.0000
  S   S49       1.0  0.7079855129528995  0.5149896619391652  0.30683050388477684  1.0000
  S   S50       1.0  0.6473908367482659  0.4732387366618279  0.25041103260043396  1.0000
  Fe  Fe26      1.0  0.6515520877189556  0.45488911127697645  0.35967087233715395  1.0000
  S   S51       1.0  0.6944737683170296  0.4947750682384159  0.37469828722211973  1.0000
  S   S52       1.0  0.6199731446581446  0.4170854695496027  0.389105427039117  1.0000
  Fe  Fe27      1.0  0.6821467891966778  0.520703601083963  0.3435430950238138  1.0000
  S   S53       1.0  0.6857852635385171  0.5662491111294562  0.3510073052272964  1.0000
  Fe  Fe28      1.0  0.7154110221574421  0.4846054568353938  0.3366904712368834  1.0000
  S   S54       1.0  0.7530439546622291  0.4730653096102756  0.33729387018915424  1.0000
  S   S55       1.0  0.6377057737844121  0.48123231279646334  0.3314533641774537  1.0000
  S   S56       1.0  0.6726454975104352  0.4435301909205223  0.3227698319842322  1.0000
  Fe  Fe29      1.0  0.963204943328675  0.5158357107749224  0.40029340408771047  1.0000
  S   S57       1.0  0.9525714253233956  0.46782984145335516  0.39931976678050835  1.0000
  S   S58       1.0  0.009033934933345256  0.5546911312353671  0.38694684083379205  1.0000
  Fe  Fe30      1.0  0.8976568607619381  0.4983227273289777  0.4140300141567579  1.0000
  S   S59       1.0  0.8823756319256721  0.44918591234735333  0.4149008185375673  1.0000
  S   S60       1.0  0.865330256346504  0.5162645787757313  0.42031537767238036  1.0000
  Fe  Fe31      1.0  0.9249632266434216  0.46220589562337855  0.4392874293537227  1.0000
  S   S61       1.0  0.9243249170869648  0.429892394038107  0.4729706892443775  1.0000
  Fe  Fe32      1.0  0.911078582159699  0.4587588208984732  0.37527033284088934  1.0000
  S   S62       1.0  0.8910997275511504  0.42489533104002497  0.33943949462051176  1.0000
  S   S63       1.0  0.9383626691476864  0.5111312491760767  0.44208706471232306  1.0000
  S   S64       1.0  0.9236200483471912  0.5071320955913764  0.37251968062748997  1.0000
  Fe  Fe33      1.0  0.9670504941376286  0.39430393925424906  0.18344229190465786  1.0000
  S   S65       1.0  0.9752899544126733  0.4374550731999704  0.16374874113038973  1.0000
  S   S66       1.0  0.007689667887433638  0.3964557237666152  0.20478389643149558  1.0000
  Fe  Fe34      1.0  0.8993397844153725  0.36174651381217876  0.16996853960715375  1.0000
  S   S67       1.0  0.9032974900211216  0.403310182781444  0.1491878653721948  1.0000
  S   S68       1.0  0.8510359518218585  0.32303493198814526  0.16643933948985692  1.0000
  Fe  Fe35      1.0  0.9452947967393491  0.4086486587212192  0.12829716940857872  1.0000
  S   S69       1.0  0.9592816511158532  0.41884357070975087  0.08146484066085014  1.0000
  Fe  Fe36      1.0  0.9327558382176192  0.42797629437728185  0.18662186118317886  1.0000
  S   S70       1.0  0.9328462845964215  0.4659302351399537  0.21108692882658678  1.0000
  S   S71       1.0  0.9398019132242813  0.36556637946420856  0.1463071085429964  1.0000
  S   S72       1.0  0.9260960786167373  0.38640477584720373  0.20906856538796964  1.0000
  Fe  Fe37      1.0  0.663919680315277  0.12339075727367071  0.2468551957927521  1.0000
  S   S73       1.0  0.641200080555587  0.15118043597933187  0.2508409374456595  1.0000
  S   S74       1.0  0.6259284794745357  0.07467932038273409  0.2466146747415  1.0000
  Fe  Fe38      1.0  0.726383022906006  0.18052475573873344  0.2422112379640342  1.0000
  S   S75       1.0  0.7069226105869957  0.2109445440977316  0.24506557254209604  1.0000
  S   S76       1.0  0.7776062687399681  0.20409235278185442  0.2421178647344444  1.0000
  Fe  Fe39      1.0  0.6784417796171764  0.18019814423248842  0.28078292622924395  1.0000
  S   S77       1.0  0.6750602928365502  0.20148802742072267  0.32222564039054763  1.0000
  Fe  Fe40      1.0  0.6718146143472821  0.17860281841253625  0.21478460614736422  1.0000
  S   S78       1.0  0.6532162624264128  0.1945051280559219  0.1790599685148483  1.0000
  S   S79       1.0  0.6993420303712018  0.1509166540327374  0.2797665760341325  1.0000
  S   S80       1.0  0.6931624244228715  0.149857852747685  0.20903681984832065  1.0000
  Fe  Fe41      1.0  0.530472655642122  0.11648408325328806  0.5055233372152511  1.0000
  S   S81       1.0  0.5646576176681491  0.10246896338995247  0.4971162047401061  1.0000
  S   S82       1.0  0.4832991697670128  0.08488184831054331  0.5213488134412672  1.0000
  Fe  Fe42      1.0  0.5750573582811885  0.16683046207396546  0.009090427596446264  1.0000
  S   S83       1.0  0.6109099020801438  0.15365089094945855  0.010051434018361066  1.0000
  S   S84       1.0  0.5960735046218547  0.21778849318634114  0.010622712240211043  1.0000
  Fe  Fe43      1.0  0.577842395429039  0.133254725491663  0.45868633923263996  1.0000
  S   S85       1.0  0.583378476657356  0.11350021132235336  0.417078046825553  1.0000
  Fe  Fe44      1.0  0.5794834145552528  0.11648826346559535  0.039272347231470245  1.0000
  S   S86       1.0  0.5968773968494561  0.1021711935154841  0.07681302808756528  1.0000
  S   S87       1.0  0.5411092465269945  0.1445874213394826  0.46536648382362367  1.0000
  S   S88       1.0  0.5451372057504453  0.13147934897524505  0.041415041637240836  1.0000
  Fe  Fe45      1.0  0.556186525586974  0.3369179299897588  0.06888819201944756  1.0000
  S   S89       1.0  0.6065310416638755  0.3624264580753959  0.07311871907088473  1.0000
  S   S90       1.0  0.5303417180482134  0.28786898847305753  0.05564913420128405  1.0000
  Fe  Fe46      1.0  0.548808432610842  0.38841890847288457  0.09438744057935342  1.0000
  S   S91       1.0  0.5986996818499605  0.4173354222786936  0.10004317912267997  1.0000
  S   S92       1.0  0.5232186800340385  0.408158241219425  0.11711165715570052  1.0000
  Fe  Fe47      1.0  0.6023262023331899  0.4011509329707814  0.05608832855180486  1.0000
  S   S93       1.0  0.635316202784077  0.4364117609709299  0.025494850489192887  1.0000
  Fe  Fe48      1.0  0.5980389815253021  0.37617693869609936  0.11668657060294367  1.0000
  S   S94       1.0  0.6191640977087767  0.3717527460725308  0.15791647322697772  1.0000
  S   S95       1.0  0.5522571683161623  0.37499277149720667  0.04881950440476768  1.0000
  S   S96       1.0  0.5478855418569911  0.34784389206178795  0.1138070366900194  1.0000
  C   C1        1.0  0.577350747723155  0.23663652744426472  0.023640649816317756  1.0000
  C   C2        1.0  0.5933662133401572  0.2681835997875567  0.025002585027791405  1.0000
  C   C3        1.0  0.5792577732630709  0.28412583865171465  0.03480311228834461  1.0000
  C   C4        1.0  0.5489228763852768  0.2686395016960304  0.04326923823870825  1.0000
  C   C5        1.0  0.5329478012377531  0.2370912669217146  0.04204203964109531  1.0000
  C   C6        1.0  0.547107826901818  0.22111049367437247  0.032385672336921495  1.0000
  H   H1        1.0  0.616721051560848  0.28038017993616987  0.01814490548668567  1.0000
  H   H2        1.0  0.5916637083361687  0.3083992727381174  0.03520765434469541  1.0000
  H   H3        1.0  0.5094406622635553  0.2249307225590511  0.04847203482795542  1.0000
  H   H4        1.0  0.5935926142656632  0.29030134482211684  0.4924080804951505  1.0000
  C   C7        1.0  0.6404709564616283  0.1709623957321555  0.14868601300672452  1.0000
  C   C8        1.0  0.6455130779558749  0.14671506030313522  0.14622782034965487  1.0000
  C   C9        1.0  0.6329814016969086  0.12641104827775998  0.12339609178635315  1.0000
  C   C10       1.0  0.6150980364879732  0.13006281303701026  0.102961020062147  1.0000
  C   C11       1.0  0.6107660634150959  0.1548653745370147  0.10469537167544886  1.0000
  C   C12       1.0  0.6234734253253406  0.17532436060457782  0.1275895033630421  1.0000
  H   H5        1.0  0.6587907924974973  0.14331652248138577  0.1620241910751997  1.0000
  H   H6        1.0  0.6368146288597145  0.10755481908068926  0.12179015191225948  1.0000
  H   H7        1.0  0.5970567591804569  0.15786206036508624  0.08883830535848203  1.0000
  H   H8        1.0  0.6195225482961345  0.19408183035376697  0.1293350140599754  1.0000
  C   C13       1.0  0.649404980697027  0.17685158497948272  0.34836804113691755  1.0000
  C   C14       1.0  0.6333048311187465  0.14581084409754658  0.34379606462808404  1.0000
  C   C15       1.0  0.6131098824370006  0.12660075332254317  0.3650241246119917  1.0000
  C   C16       1.0  0.6088680570267453  0.13828880090484724  0.390898985286644  1.0000
  C   C17       1.0  0.6249400824160369  0.16933324087061638  0.3954536174151124  1.0000
  C   C18       1.0  0.645185774826238  0.188543280911172  0.3742465687354314  1.0000
  H   H9        1.0  0.6364488509391938  0.1365883958880201  0.32393560387013964  1.0000
  H   H10       1.0  0.6007836732687935  0.10262669220172681  0.3613527866378422  1.0000
  H   H11       1.0  0.6216934419794207  0.17856288320703598  0.4152354502629018  1.0000
  H   H12       1.0  0.6574804264769656  0.21252999720693533  0.37785073332585006  1.0000
  C   C19       1.0  0.8314248793721966  0.2905866115879892  0.1884557188558335  1.0000
  C   C20       1.0  0.8461047669587645  0.28177376058059905  0.20825049722340327  1.0000
  C   C21       1.0  0.8294822880976707  0.2549953937497589  0.22429502806912474  1.0000
  C   C22       1.0  0.7980760489859421  0.23710115838181403  0.22098438729433595  1.0000
  C   C23       1.0  0.783428591960419  0.24621675637293455  0.2015174937947659  1.0000
  C   C24       1.0  0.8000582668075256  0.27267349181804174  0.1852107011892087  1.0000
  H   H13       1.0  0.8702691856289144  0.29524748475330326  0.21080341164537372  1.0000
  H   H14       1.0  0.8410050351826244  0.24807746487282722  0.23927721009580818  1.0000
  H   H15       1.0  0.7593010722619257  0.23265121798186492  0.19868749067983  1.0000
  H   H16       1.0  0.7884797477687682  0.2792389223321057  0.16994148268156048  1.0000
  C   C25       1.0  0.9024283043283529  0.43723791078704116  0.30395829135437974  1.0000
  C   C26       1.0  0.923480552199931  0.46722969888027066  0.2977047494918948  1.0000
  C   C27       1.0  0.9320960459706259  0.47625977494508354  0.2689493072825823  1.0000
  C   C28       1.0  0.9199254489598474  0.45523915280955485  0.2465778125711711  1.0000
  C   C29       1.0  0.898854872706239  0.4253517379760498  0.25291745552082334  1.0000
  C   C30       1.0  0.890066333743354  0.41640103172400955  0.2815421547602972  1.0000
  H   H17       1.0  0.9333742425545634  0.4833307852525053  0.31500853421929814  1.0000
  H   H18       1.0  0.948733409731139  0.49933802568827396  0.2640825979286166  1.0000
  H   H19       1.0  0.8890940350219463  0.40913055210907856  0.2356978379661079  1.0000
  H   H20       1.0  0.8737061578712025  0.3932059082869018  0.286328030585622  1.0000
  C   C31       1.0  0.9067535145233381  0.445309810853278  0.02028740130590619  1.0000
  C   C32       1.0  0.927824473784994  0.43796881941120847  0.009516010898028261  1.0000
  C   C33       1.0  0.9438827005322699  0.4299755626738284  0.028559619263057747  1.0000
  C   C34       1.0  0.9388059089418466  0.429078650345842  0.05839703242160029  1.0000
  C   C35       1.0  0.9175700100511525  0.4362050511543829  0.06918459788664984  1.0000
  C   C36       1.0  0.9014912414635963  0.4442135763619296  0.050126763744497704  1.0000
  H   H21       1.0  0.9317063437717136  0.4383293968189199  0.9865283545236699  1.0000
  H   H22       1.0  0.9602199556929335  0.4243321569725327  0.020144099789627046  1.0000
  H   H23       1.0  0.9138814339875384  0.43599214984115603  0.09220430550216728  1.0000
  H   H24       1.0  0.8852572473081879  0.44998604755305877  0.05855030041753022  1.0000
  C   C37       1.0  0.7816301892879348  0.48362411583877846  0.36338180888469546  1.0000
  C   C38       1.0  0.7961647626794911  0.4666387755167079  0.3656192296627734  1.0000
  C   C39       1.0  0.8212017136128991  0.47586497425526125  0.38377479902214096  1.0000
  C   C40       1.0  0.832086905928493  0.5023678844873812  0.39966380725988015  1.0000
  C   C41       1.0  0.8167078232417502  0.5186420064147468  0.3984176709898458  1.0000
  C   C42       1.0  0.791510493607305  0.5093001253647169  0.38036764868717965  1.0000
  H   H25       1.0  0.788339203732884  0.44649768292526515  0.3528399634628547  1.0000
  H   H26       1.0  0.83253264374013  0.46287461643388383  0.38507282789268693  1.0000
  H   H27       1.0  0.8248763190742331  0.5390566830525255  0.4108572424429838  1.0000
  H   H28       1.0  0.7805156813814487  0.5225906780627886  0.37883379177248555  1.0000
  C   C43       1.0  0.6211986853784373  0.424466213960771  0.42638869166446447  1.0000
  C   C44       1.0  0.6409784553276506  0.4529303449746015  0.4374957722609606  1.0000
  C   C45       1.0  0.6429317465203686  0.45772881301189455  0.4674364290425279  1.0000
  C   C46       1.0  0.6246785238831333  0.43426781120619234  0.48641983747220485  1.0000
  C   C47       1.0  0.6045980539950134  0.4059015192618002  0.4753259142857696  1.0000
  C   C48       1.0  0.6029795632665668  0.4009969724701608  0.4453881651803395  1.0000
  H   H29       1.0  0.6547194993451615  0.4713104328123419  0.4231034921088775  1.0000
  H   H30       1.0  0.6621655188595439  0.47181494827169107  0.9752718610037274  1.0000
  H   H31       1.0  0.5905035196657417  0.38763240969018514  0.48976791146254633  1.0000
  H   H32       1.0  0.5875675945446618  0.37892325733488813  0.4369568727724578  1.0000
  C   C49       1.0  0.643041953537724  0.44587933299065907  0.22495512238201268  1.0000
  C   C50       1.0  0.6415197507852067  0.41889997741234897  0.23302522480861726  1.0000
  C   C51       1.0  0.6349178781092871  0.39646123504630454  0.21220435679456506  1.0000
  C   C52       1.0  0.6297692996183681  0.40091432811605704  0.1833483235842822  1.0000
  C   C53       1.0  0.6320880029074922  0.4282102088967386  0.17533265046138194  1.0000
  C   C54       1.0  0.6386615170290715  0.4505476634781029  0.19601227409881505  1.0000
  H   H33       1.0  0.6447622288625839  0.4150576733329264  0.2553431601780476  1.0000
  H   H34       1.0  0.6332739505790494  0.375430033137517  0.2185867328667388  1.0000
  H   H35       1.0  0.6288779517243004  0.43221574341428337  0.15315712895969127  1.0000
  H   H36       1.0  0.6399775294699906  0.47141328998903576  0.18955383263690276  1.0000
  C   C55       1.0  0.0961871047581639  0.4569443766732747  0.15611898214030445  1.0000
  C   C56       1.0  0.06855921415716769  0.44377448364356414  0.14161366013957663  1.0000
  C   C57       1.0  0.04139292618548662  0.4256567263994546  0.15655097200247006  1.0000
  C   C58       1.0  0.04168416844429501  0.4199213584132823  0.18601593828357785  1.0000
  C   C59       1.0  0.06936237779187482  0.4328505258173297  0.20054473159734237  1.0000
  C   C60       1.0  0.09654377894383737  0.45166014390626935  0.18572306373523617  1.0000
  H   H37       1.0  0.0680651386278245  0.4476273817277833  0.11872181542361399  1.0000
  H   H38       1.0  0.020232148957625595  0.4156410762667396  0.145080937419889  1.0000
  H   H39       1.0  0.06978124825492449  0.4284934843882419  0.22331835272970846  1.0000
  H   H40       1.0  0.11773329753493865  0.4617590500564157  0.19713171646435693  1.0000
  C   C61       1.0  0.46825649966602606  0.4475769651656503  0.07794747675293714  1.0000
  C   C62       1.0  0.47246000630735097  0.4265081214823998  0.062237236885376135  1.0000
  C   C63       1.0  0.4905095903197761  0.41523471203491236  0.07325511598286896  1.0000
  C   C64       1.0  0.503833062912574  0.42447545703561484  0.10038628402682234  1.0000
  C   C65       1.0  0.49985919383684885  0.4457835137620571  0.11586577118987781  1.0000
  C   C66       1.0  0.48254756984835007  0.45764099289922106  0.10452225265075245  1.0000
  H   H41       1.0  0.4613109905478839  0.41847927337865276  0.04174437106336995  1.0000
  H   H42       1.0  0.49309104548698307  0.3985168383162821  0.061355438729212904  1.0000
  H   H43       1.0  0.5099789874660428  0.45299201812891315  0.1368881885037842  1.0000
  H   H44       1.0  0.479476563875108  0.47385862573740156  0.11680438524443244  1.0000
  C   C67       1.0  0.3548554975559757  0.540626810198729  0.11822231547388928  1.0000
  C   C68       1.0  0.33912895016921746  0.5560808812605011  0.12353129595371055  1.0000
  C   C69       1.0  0.3102222733130405  0.5413986279659744  0.13618598893856712  1.0000
  C   C70       1.0  0.2966670868168733  0.5109943777132373  0.14350933897068058  1.0000
  C   C71       1.0  0.3122666231975558  0.4953903052362717  0.138067508784763  1.0000
  C   C72       1.0  0.3413526948918079  0.5101783546934086  0.12554911178395836  1.0000
  H   H45       1.0  0.34942027779865453  0.579630161693015  0.1178921304108735  1.0000
  H   H46       1.0  0.2984160776302452  0.5536316744823195  0.14020517677758776  1.0000
  H   H47       1.0  0.3018419330133118  0.4718096162894514  0.14356364626508172  1.0000
  H   H48       1.0  0.35321778949932414  0.4980350187673338  0.12139410983301353  1.0000
  C   C73       1.0  0.6021365562770472  0.5763280831661001  0.33898178828776093  1.0000
  C   C74       1.0  0.5992216758853292  0.5477930094558681  0.341467769767564  1.0000
  C   C75       1.0  0.6245134091349959  0.5446089890070134  0.34635519097892403  1.0000
  C   C76       1.0  0.6532380995475369  0.5698965942960119  0.34801571991671437  1.0000
  C   C77       1.0  0.6561601257637018  0.5985886295452257  0.3462312392982571  1.0000
  C   C78       1.0  0.63065450266901  0.6018428836398522  0.34182134730551494  1.0000
  H   H49       1.0  0.5771908959582569  0.5279280702451948  0.33966284058747714  1.0000
  H   H50       1.0  0.6216383846121968  0.5224874914303435  0.3487243106599531  1.0000
  H   H51       1.0  0.6782739951865892  0.6183493762599962  0.34784346431600327  1.0000
  H   H52       1.0  0.6331322000227375  0.6239807770363212  0.34012854196888237  1.0000
  C   C79       1.0  0.48671804345154146  0.6026383218530129  0.24451149310515732  1.0000
  C   C80       1.0  0.5033127979474669  0.5881292213879399  0.24888873283300272  1.0000
  C   C81       1.0  0.509719186175348  0.5747436830693636  0.22561771930868132  1.0000
  C   C82       1.0  0.49940212851638405  0.5756580370667598  0.1979511334612666  1.0000
  C   C83       1.0  0.48295534311278476  0.5903322745286094  0.1934692813182965  1.0000
  C   C84       1.0  0.47653388699178856  0.6037621756636812  0.21679759823489184  1.0000
  H   H53       1.0  0.5109861143245766  0.5869057566617779  0.27028680617776796  1.0000
  H   H54       1.0  0.5225223697791631  0.5634516173341394  0.2291160574118494  1.0000
  H   H55       1.0  0.4755733329975218  0.5916066852424686  0.17197021659805445  1.0000
  H   H56       1.0  0.4641836843977376  0.6155000864498124  0.21330314447616947  1.0000
  C   C85       1.0  0.5033314090487438  0.6138985572502614  0.4403028620203486  1.0000
  C   C86       1.0  0.5030628968915888  0.6174161584385314  0.4703269909706532  1.0000
  C   C87       1.0  0.4941442598395514  0.5926826639023698  0.4888596803034628  1.0000
  C   C88       1.0  0.4850287745463568  0.5642957406636996  0.4773352540067094  1.0000
  C   C89       1.0  0.4846913443719713  0.5606832986787947  0.44733567474297964  1.0000
  C   C90       1.0  0.49405246599599495  0.5854515705677196  0.4288506663795183  1.0000
  H   H57       1.0  0.5103183947704035  0.6394415006355002  0.47926428396561016  1.0000
  H   H58       1.0  0.49490067448118785  0.5956905573461169  0.5120099381086913  1.0000
  H   H59       1.0  0.47732251248853913  0.5386379721337617  0.4383894198811982  1.0000
  H   H60       1.0  0.4937265654340003  0.5824582057018566  0.4057450103894399  1.0000
  C   C91       1.0  0.6266712115681894  0.9861837985502773  0.25666176922099915  1.0000
  C   C92       1.0  0.6000950580733494  0.9872981813309528  0.26020335543591727  1.0000
  C   C93       1.0  0.6005080850794626  0.014733385887267579  0.25750001231732983  1.0000
  C   C94       1.0  0.6275832742978246  0.04149924809079917  0.2519716795055144  1.0000
  C   C95       1.0  0.6543920718246578  0.04066918119195201  0.24924716498323804  1.0000
  C   C96       1.0  0.6538803280103787  0.013031798380072512  0.2514841368583954  1.0000
  H   H61       1.0  0.5791224922590918  0.9670063642619864  0.26478829014692834  1.0000
  H   H62       1.0  0.5797117689130851  0.015229860049954302  0.25986227629342584  1.0000
  H   H63       1.0  0.6753723310186486  0.061161990875683914  0.24489332641716935  1.0000
  H   H64       1.0  0.6745826848143218  0.012401430560258886  0.24878731547396016  1.0000
  C   C97       1.0  0.5699648435569409  0.7796677925016261  0.25999455076871847  1.0000
  C   C98       1.0  0.552794997124509  0.7484549351711396  0.2638985910777153  1.0000
  C   C99       1.0  0.5635034467186937  0.7332913294610405  0.2811156025055387  1.0000
  C   C100      1.0  0.5918402608603435  0.7491845173088624  0.2940231529479997  1.0000
  C   C101      1.0  0.6088889370616795  0.7804617263823019  0.2903930180215632  1.0000
  C   C102      1.0  0.5978755558273174  0.7957335092263731  0.2736439584470628  1.0000
  H   H65       1.0  0.5310290419159699  0.7360278694548845  0.25365296859852704  1.0000
  H   H66       1.0  0.550083215968655  0.7092333994405031  0.28394563998696654  1.0000
  H   H67       1.0  0.6308304582755473  0.7928974829481986  0.3003326731012459  1.0000
  H   H68       1.0  0.6113726249997413  0.8197970973056459  0.2705735607516232  1.0000
  C   C103      1.0  0.4402569361325562  0.9828956136742565  0.5320244913748716  1.0000
  C   C104      1.0  0.4244313467500163  0.9978722849971361  0.5384288734479153  1.0000
  C   C105      1.0  0.43783779490280655  0.028910366400651588  0.5342620731003964  1.0000
  C   C106      1.0  0.46740748750544076  0.045568469180077016  0.523861922025075  1.0000
  C   C107      1.0  0.4274947894504206  0.013290128005731816  0.001324854974985801  1.0000
  C   C108      1.0  0.4122075061227452  0.9829110197777654  0.009355959810686014  1.0000
  H   H69       1.0  0.4015156336367628  0.9853313653474226  0.5465526517239506  1.0000
  H   H70       1.0  0.4251719210951975  0.04008110975006258  0.5392946313997782  1.0000
  H   H71       1.0  0.4151821233096933  0.022934489193323634  0.991345072998209  1.0000
  H   H72       1.0  0.3881908212830827  0.9694214806515593  0.005740900675635707  1.0000
  C   C109      1.0  0.5049835669176201  0.9069574587484359  0.4083516067291712  1.0000
  C   C110      1.0  0.5237699309680035  0.9190072362330353  0.3840408888928429  1.0000
  C   C111      1.0  0.5238896911904753  0.8999701812540127  0.3622694122592918  1.0000
  C   C112      1.0  0.5054044268305882  0.8688387797952578  0.36496746725590085  1.0000
  C   C113      1.0  0.48666203604176517  0.8568735822291775  0.38928614206263995  1.0000
  C   C114      1.0  0.4862429536368699  0.875876669837851  0.41080528828499  1.0000
  H   H73       1.0  0.538351233944103  0.9430531942134114  0.3820434604736113  1.0000
  H   H74       1.0  0.538453286117106  0.9093298490586542  0.3435689756512975  1.0000
  H   H75       1.0  0.47221442749967507  0.8328136328109798  0.3913834495918687  1.0000
  H   H76       1.0  0.4714491791663978  0.8664068359194155  0.4293089621446392  1.0000
  C   C115      1.0  0.49803594939222784  0.8763806872279679  0.10437657888222984  1.0000
  C   C116      1.0  0.47511061315797287  0.8798390032756782  0.1171041998366015  1.0000
  C   C117      1.0  0.47200382080288383  0.8790794897282918  0.1473177948418152  1.0000
  C   C118      1.0  0.49161158703464825  0.8746470297451291  0.165005303245834  1.0000
  C   C119      1.0  0.5144745171239292  0.8710419201321346  0.15227634791880718  1.0000
  C   C120      1.0  0.5178115334088337  0.8721412452809004  0.12205147572243048  1.0000
  H   H77       1.0  0.45981449076772535  0.8832238714572826  0.10370260617252208  1.0000
  H   H78       1.0  0.4542601442231813  0.8818736963793852  0.15702197870449064  1.0000
  H   H79       1.0  0.529332861352292  0.8670630667326904  0.1656840985666855  1.0000
  H   H80       1.0  0.5354415174776676  0.869205041970501  0.11232909116600748  1.0000
  C   C121      1.0  0.0948323939357885  0.5769977635949612  0.43705134531505785  1.0000
  C   C122      1.0  0.06761222595843124  0.550600716831854  0.44328544625439553  1.0000
  C   C123      1.0  0.041050729330377234  0.5437271324665498  0.4284048393641862  1.0000
  C   C124      1.0  0.041513741252749314  0.563281187348907  0.4071722189047719  1.0000
  C   C125      1.0  0.06868081584158925  0.5898733106207148  0.4011363107496233  1.0000
  C   C126      1.0  0.0952612881838467  0.5967805335014109  0.41607649061341473  1.0000
  H   H81       1.0  0.06700797837138989  0.5352968917072901  0.45966820649914863  1.0000
  H   H82       1.0  0.02022689325782845  0.5232516873746225  0.433319695630384  1.0000
  H   H83       1.0  0.06902603488357784  0.6052837838286005  0.38502352627527947  1.0000
  H   H84       1.0  0.11593989695264696  0.6175293239273538  0.41165497052610106  1.0000
  C   C127      1.0  0.292901716675456  0.7510690354024636  0.46549218674331244  1.0000
  C   C128      1.0  0.307177628539297  0.7821584300472224  0.47060981696878446  1.0000
  C   C129      1.0  0.33756461773576785  0.798246159117029  0.47940168044506337  1.0000
  C   C130      1.0  0.35391156670006746  0.7833057984562101  0.48291102476066794  1.0000
  C   C131      1.0  0.33970991294649605  0.7523420132608905  0.47744411549880045  1.0000
  C   C132      1.0  0.309335652006281  0.7362437577414593  0.4690871445447129  1.0000
  H   H85       1.0  0.2946686676251165  0.7938597454153333  0.4678857174007849  1.0000
  H   H86       1.0  0.3482326245016317  0.8221008935153157  0.483646845062187  1.0000
  H   H87       1.0  0.33407720227146476  0.8063204472969864  0.9830855282942146  1.0000
  H   H88       1.0  0.2987007571903037  0.7123536679690146  0.46550008852128527  1.0000
  C   C133      1.0  0.24619997278764735  0.5991713736174961  0.03242004283588612  1.0000
  C   C134      1.0  0.2540921017562436  0.5835961753238914  0.05209941718028827  1.0000
  C   C135      1.0  0.25368681697617396  0.5884330900902011  0.08187340368620226  1.0000
  C   C136      1.0  0.2453850524490468  0.608891152202426  0.09214973269603079  1.0000
  C   C137      1.0  0.23865800612947988  0.6253766895452937  0.07243674287574697  1.0000
  C   C138      1.0  0.23911238700748985  0.6205629593460762  0.042629636850032585  1.0000
  H   H89       1.0  0.26658451021696317  0.5789304722971875  0.5369875558998163  1.0000
  H   H90       1.0  0.26012762805499423  0.5765118303715026  0.09683281622507192  1.0000
  H   H91       1.0  0.23239940356561112  0.6413849169561462  0.0802545543126994  1.0000
  H   H92       1.0  0.23382979029284662  0.6332957894514188  0.027636268755782987  1.0000
  C   C139      1.0  0.22606074410241256  0.6151509029982604  0.324586399559532  1.0000
  C   C140      1.0  0.21511659511958076  0.5859804889711547  0.3350637666786217  1.0000
  C   C141      1.0  0.2075052754875992  0.5622146691511339  0.3156717577566511  1.0000
  C   C142      1.0  0.21098080879516976  0.5674460239478986  0.28574922022887667  1.0000
  C   C143      1.0  0.22218364310690378  0.5966642454601777  0.2752998680280169  1.0000
  C   C144      1.0  0.22966192370258978  0.6204283708494328  0.2946911965819385  1.0000
  H   H93       1.0  0.21260873013663936  0.5817173731327514  0.3580546677285495  1.0000
  H   H94       1.0  0.19902334073373765  0.5396550951923847  0.3238599482672735  1.0000
  H   H95       1.0  0.22490143781158956  0.6008887733066904  0.25228856488765766  1.0000
  H   H96       1.0  0.23814077471899642  0.6429531413890465  0.28643161196032946  1.0000
  Fe  Fe49      1.0  0.21213802896028275  0.6191328740090392  0.9021397384518646  1.0000
  S   S97       1.0  0.18350453108019482  0.639244005161884  0.9152102900764346  1.0000
  S   S98       1.0  0.23114811006473535  0.6245425196054516  0.8565494085896979  1.0000
  Fe  Fe50      1.0  0.22211549332990757  0.608326865984213  0.9656552394679522  1.0000
  S   S99       1.0  0.19480135164097656  0.6280553803972885  0.9826182237493016  1.0000
  S   S100      1.0  0.2439305808436022  0.5902148599820449  0.9955214288639929  1.0000
  Fe  Fe51      1.0  0.16225114407594482  0.601270079468161  0.9475384305643753  1.0000
  S   S101      1.0  0.11429434206482356  0.5683868554681454  0.9619651006835517  1.0000
  Fe  Fe52      1.0  0.21919402552264644  0.6637510570267434  0.9489699879977006  1.0000
  S   S102      1.0  0.24112271547310202  0.7140698566734991  0.9559474619707918  1.0000
  S   S103      1.0  0.18861668834004505  0.5794545348579634  0.9321228440680094  1.0000
  S   S104      1.0  0.24864940565824675  0.6456023005746706  0.9344023873440107  1.0000
  Fe  Fe53      1.0  0.46142606468316194  0.8917738754776086  0.9764598043395832  1.0000
  S   S105      1.0  0.41200069762429536  0.8762163603821295  0.9792945267138337  1.0000
  S   S106      1.0  0.49362382555599166  0.9155280414883695  0.9397037373126865  1.0000
  Fe  Fe54      1.0  0.48105170605800407  0.8902431422324766  0.536595400637379  1.0000
  S   S107      1.0  0.43209169543058684  0.8734082705412048  0.5459221338759463  1.0000
  S   S108      1.0  0.517071100614181  0.8911226369365495  0.5654044993337475  1.0000
  Fe  Fe55      1.0  0.4078876364605348  0.8370586191762394  0.005109091827068868  1.0000
  S   S109      1.0  0.37674315133629543  0.7865131870072882  3.775374804848575e-05  1.0000
  Fe  Fe56      1.0  0.42453972376917815  0.9007669440818231  0.0217701535857473  1.0000
  S   S110      1.0  0.4219263540634957  0.9438362482566514  0.538594540611015  1.0000
  S   S111      1.0  0.45668158543091597  0.850829395113124  0.9981848404779178  1.0000
  S   S112      1.0  0.4892995864949607  0.9330638827182163  0.5157602936957749  1.0000
  Fe  Fe57      1.0  0.5702921746380151  0.9161126802743959  0.7770880279134403  1.0000
  S   S113      1.0  0.520997510152446  0.9000159045139574  0.7737137188194432  1.0000
  S   S114      1.0  0.593521023193024  0.9644008761496821  0.7928152834984877  1.0000
  Fe  Fe58      1.0  0.5601727814240373  0.8539244747348682  0.7617575430799564  1.0000
  S   S115      1.0  0.5103330189052799  0.8341407676494837  0.756341920301515  1.0000
  S   S116      1.0  0.5783282355711136  0.8221998108679283  0.7537514038037977  1.0000
  Fe  Fe59      1.0  0.521962609192026  0.8769309457306029  0.733198456643553  1.0000
  S   S117      1.0  0.491279529258269  0.8804310737202858  0.7003543937670746  1.0000
  Fe  Fe60      1.0  0.5131903889837245  0.8588675835590894  0.7970087336457164  1.0000
  S   S118      1.0  0.47520764552433103  0.8361206999103703  0.8292479260453527  1.0000
  S   S119      1.0  0.5720933037750945  0.8954328380169834  0.7347308257280932  1.0000
  S   S120      1.0  0.562386909890953  0.8761886094237306  0.8042949311751998  1.0000
  Fe  Fe61      1.0  0.5514928086332321  0.6754814624332416  0.8352860102824868  1.0000
  S   S121      1.0  0.5034263239355594  0.6385642599655759  0.83706759464254  1.0000
  S   S122      1.0  0.5536288857616423  0.7197810192728572  0.8455051544894042  1.0000
  Fe  Fe62      1.0  0.5730468541127735  0.6303566953729999  0.8247897050070078  1.0000
  S   S123      1.0  0.5261767771700631  0.5905191173006524  0.8256557606336371  1.0000
  S   S124      1.0  0.613723397257583  0.625341241884561  0.814522000090996  1.0000
  Fe  Fe63      1.0  0.5145946366913786  0.6195288786607237  0.7988394363644206  1.0000
  S   S125      1.0  0.47879660663887635  0.6010909510098389  0.7648401547064512  1.0000
  Fe  Fe64      1.0  0.519336344476864  0.6131755781215332  0.8640100378673855  1.0000
  S   S126      1.0  0.48767241863855354  0.5858122224296319  0.9001972292355129  1.0000
  S   S127      1.0  0.5618553449511101  0.6580834937589932  0.7947605676304899  1.0000
  S   S128      1.0  0.5670976495000012  0.6513623895766645  0.8653285832221407  1.0000
  Fe  Fe65      1.0  0.43576406871591267  0.4885659127821678  0.595900074970135  1.0000
  S   S129      1.0  0.482880923692807  0.5222406417943236  0.5828100125014927  1.0000
  S   S130      1.0  0.4202724847872766  0.4410461017912767  0.6103242630715079  1.0000
  Fe  Fe66      1.0  0.4116913651870597  0.5317582260627588  0.5843700211876586  1.0000
  S   S131      1.0  0.45735243982320567  0.5688143658173406  0.5700456038635272  1.0000
  S   S132      1.0  0.37105860351457615  0.5377838595398909  0.5772835761721489  1.0000
  Fe  Fe67      1.0  0.4613662296643696  0.5330087516172015  0.5461092058608024  1.0000
  S   S133      1.0  0.4748863906340518  0.5329832797562162  0.49958579231083555  1.0000
  Fe  Fe68      1.0  0.474599423897489  0.5548452193378522  0.608211898322066  1.0000
  S   S134      1.0  0.5124304409208347  0.588961142275959  0.6360146682932862  1.0000
  S   S135      1.0  0.41448460449809044  0.4968129474462478  0.5575254135709347  1.0000
  S   S136      1.0  0.42851590451711735  0.5200798878453095  0.6242445516868921  1.0000
  Fe  Fe69      1.0  0.19568790638698774  0.5456743940290444  0.7033949172925138  1.0000
  S   S137      1.0  0.18851609903608005  0.5017888112755773  0.6853979284251316  1.0000
  S   S138      1.0  0.17104603736189183  0.5434278021261432  0.745478305695996  1.0000
  Fe  Fe70      1.0  0.22626995026939978  0.5790978834956004  0.6470222640434138  1.0000
  S   S139      1.0  0.22090433877294052  0.5377706657283873  0.6253727299620045  1.0000
  S   S140      1.0  0.24435458356606804  0.6224060495426307  0.6217672347135281  1.0000
  Fe  Fe71      1.0  0.174332052512458  0.5149114947555565  0.6446805284494079  1.0000
  S   S141      1.0  0.13356337244008626  0.4905321998014712  0.6159866813175217  1.0000
  Fe  Fe72      1.0  0.23612206583541945  0.5290949846191124  0.6678167297497938  1.0000
  S   S142      1.0  0.2717024601296953  0.515046405348666  0.672682262796153  1.0000
  S   S143      1.0  0.1786717261706827  0.5569637721470825  0.6634511987013738  1.0000
  S   S144      1.0  0.2442618344277793  0.5721755642854971  0.6888044549029257  1.0000
  Fe  Fe73      1.0  0.6671131426009782  0.4532339113490788  0.797330038844342  1.0000
  S   S145      1.0  0.6870246319036127  0.5031104309330575  0.8036387526660937  1.0000
  S   S146      1.0  0.6652664409470378  0.4293408176556559  0.7557752983545457  1.0000
  Fe  Fe74      1.0  0.6521559541638363  0.43935905813416953  0.861492733648079  1.0000
  S   S147      1.0  0.6709768319294286  0.4878022041869112  0.8724021336489537  1.0000
  S   S148      1.0  0.6300408165023806  0.40158364254857776  0.8939556626148432  1.0000
  Fe  Fe75      1.0  0.6468509273934426  0.49007698714238723  0.8330656477494878  1.0000
  S   S149      1.0  0.6094371363720713  0.5013864117271541  0.8385764678360607  1.0000
  Fe  Fe76      1.0  0.7091228132429056  0.4957201011937004  0.842647160187848  1.0000
  S   S150      1.0  0.7561056869566576  0.5246247224593144  0.8609125352796133  1.0000
  S   S151      1.0  0.6258081965727991  0.44067891397881126  0.8238035961274555  1.0000
  S   S152      1.0  0.6915781428148265  0.4468424142492628  0.8343137798268295  1.0000
  Fe  Fe77      1.0  0.951705413707783  0.518294684215894  0.9141227948851172  1.0000
  S   S153      1.0  0.9497587146938214  0.47804708875078583  0.9349171768864787  1.0000
  S   S154      1.0  0.9959168807927663  0.5623418980403844  0.9124730672752677  1.0000
  Fe  Fe78      1.0  0.8855140518980276  0.4827339101462177  0.893560005012258  1.0000
  S   S155      1.0  0.8795740576832151  0.4401520396995443  0.913325355807452  1.0000
  S   S156      1.0  0.8463715931147907  0.47330462759919867  0.8641656482900021  1.0000
  Fe  Fe79      1.0  0.90445268952485  0.4687173833320792  0.951186576058203  1.0000
  S   S157      1.0  0.8875263080152185  0.45699749983758353  0.9971262015403226  1.0000
  Fe  Fe80      1.0  0.9252968801295509  0.4539721308289837  0.8949394936749515  1.0000
  S   S158      1.0  0.9355354598710378  0.4219059692772274  0.8709701356897283  1.0000
  S   S159      1.0  0.9076578726841662  0.5108432623707785  0.9329009597945573  1.0000
  S   S160      1.0  0.9299809206119077  0.4947892393668832  0.8728802853026308  1.0000
  Fe  Fe81      1.0  0.9729983446198389  0.3953838723356307  0.6694247641703592  1.0000
  S   S161      1.0  0.9841717216446793  0.44332019259811145  0.670459721170138  1.0000
  S   S162      1.0  0.012385161600189987  0.3872736233539313  0.6717623948732183  1.0000
  Fe  Fe82      1.0  0.9048878568870352  0.37103306842821987  0.6710452592649101  1.0000
  S   S163      1.0  0.9116080456417658  0.4177419120946964  0.6730142088666918  1.0000
  S   S164      1.0  0.8560204085897963  0.3340772156864483  0.6638527530920922  1.0000
  Fe  Fe83      1.0  0.9468365560054244  0.42949799304225755  0.6386743751714813  1.0000
  S   S165      1.0  0.9491442820156859  0.4627134265851442  0.6052579414117706  1.0000
  Fe  Fe84      1.0  0.9483709074301396  0.427679361313051  0.7045519383457562  1.0000
  S   S166      1.0  0.9603283496185726  0.4613580775101547  0.7403126081886556  1.0000
  S   S167      1.0  0.9383866199401483  0.3823162285605797  0.6344136542687511  1.0000
  S   S168      1.0  0.939031899424338  0.38007961147400515  0.7059345963363572  1.0000
  Fe  Fe85      1.0  0.6757242060807447  0.13001685806480026  0.7383121906733765  1.0000
  S   S169      1.0  0.634749336981955  0.13522723183751698  0.7410936501747338  1.0000
  S   S170      1.0  0.6766597919731421  0.08755914126148923  0.7265088652055604  1.0000
  Fe  Fe86      1.0  0.719662765974106  0.19683702064336978  0.746075233951316  1.0000
  S   S171      1.0  0.682574156392054  0.20780553642828223  0.7498736112273156  1.0000
  S   S172      1.0  0.7697055357271374  0.23015004813962683  0.7517428333305372  1.0000
  Fe  Fe87      1.0  0.6583132985396835  0.16671241648031287  0.7778647587862947  1.0000
  S   S173      1.0  0.6287776442036743  0.17080754386512528  0.8121762562178799  1.0000
  Fe  Fe88      1.0  0.6608315505058504  0.17585886396329992  0.7131751800246027  1.0000
  S   S174      1.0  0.6345114723747137  0.1874267539741214  0.6818788715403997  1.0000
  S   S175      1.0  0.6973831297003334  0.15813299338685247  0.7777188259285231  1.0000
  S   S176      1.0  0.7000742269999246  0.1682851925213983  0.7067245820053638  1.0000
  Fe  Fe89      1.0  0.5256314926765765  0.1013243863218618  0.0026988679389337022  1.0000
  S   S177      1.0  0.5578381642844085  0.08391593873261621  0.003053690178178803  1.0000
  S   S178      1.0  0.47622269020744357  0.06930684242903784  0.9951475222495489  1.0000
  Fe  Fe90      1.0  0.5748297854543809  0.18258747929618294  0.4929124790447178  1.0000
  S   S179      1.0  0.6126408938180279  0.17332754295676522  0.4828750535644504  1.0000
  S   S180      1.0  0.5854266916622564  0.2310093632983246  0.4896170952450173  1.0000
  Fe  Fe91      1.0  0.5861693376385303  0.12258909975071947  0.973548985249324  1.0000
  S   S181      1.0  0.6125238567540366  0.11559985715282624  0.9378211596715245  1.0000
  Fe  Fe92      1.0  0.5959438070634502  0.14368651948472838  0.5220461064644879  1.0000
  S   S182      1.0  0.6273223780844349  0.1410458222516138  0.5542087755296629  1.0000
  S   S183      1.0  0.5523364830388385  0.13803853594440843  0.9701676985518144  1.0000
  S   S184      1.0  0.5606439020592193  0.1554933417683164  0.5337432341072863  1.0000
  Fe  Fe93      1.0  0.5638819461173809  0.3458589378196393  0.5825648070072188  1.0000
  S   S185      1.0  0.6052851740112463  0.3906130834525845  0.590811353162225  1.0000
  S   S186      1.0  0.5631460406666413  0.30182910892138337  0.5904958750487448  1.0000
  Fe  Fe94      1.0  0.5248369966345601  0.3742555545426592  0.5704155442311496  1.0000
  S   S187      1.0  0.5629366084279576  0.42079871864987684  0.5765737622558952  1.0000
  S   S188      1.0  0.4766526034612274  0.36319632175041827  0.5638494823195739  1.0000
  Fe  Fe95      1.0  0.59073864289754  0.4057558546278538  0.5516455799288156  1.0000
  S   S189      1.0  0.6280058138123843  0.4409066944391045  0.5238648736382079  1.0000
  Fe  Fe96      1.0  0.5746134079218209  0.4023919618739502  0.6150997065424061  1.0000
  S   S190      1.0  0.5848814770367817  0.43237815949014546  0.6540163300411143  1.0000
  S   S191      1.0  0.5512806453824032  0.36013602570947145  0.5414929761036195  1.0000
  S   S192      1.0  0.5343434035486263  0.35643172980549287  0.6107720101646638  1.0000
  C   C145      1.0  0.5766830074090814  0.24940279150706474  0.5171200441165624  1.0000
  C   C146      1.0  0.5642439095794725  0.23547226437544436  0.5435966630363143  1.0000
  C   C147      1.0  0.559957762625817  0.25172125292185765  0.5658200757162838  1.0000
  C   C148      1.0  0.5674358697755548  0.2817649621036788  0.5615642754872221  1.0000
  C   C149      1.0  0.5793261779961478  0.2954893225515992  0.5349094398084157  1.0000
  C   C150      1.0  0.584106602144207  0.2794113608226469  0.5128716704635067  1.0000
  H   H97       1.0  0.5580479578826674  0.21229015888590252  0.5470197733294087  1.0000
  H   H98       1.0  0.5505628061136061  0.24093446819231604  0.5863340490362999  1.0000
  H   H99       1.0  0.5851213981706433  0.3185900767238698  0.531374060815496  1.0000
  H   H100      1.0  0.5345053161805559  0.1968268284359887  0.03138282494107658  1.0000
  C   C151      1.0  0.6317832539583458  0.17358100761331297  0.6467460405519376  1.0000
  C   C152      1.0  0.6138308312526105  0.17757101415378987  0.6264970360202508  1.0000
  C   C153      1.0  0.6120177778346076  0.16739041920580308  0.598062814783457  1.0000
  C   C154      1.0  0.6282572165588016  0.15330599374543669  0.5897772098023145  1.0000
  C   C155      1.0  0.6458689334627641  0.14900692814170025  0.610146549320777  1.0000
  C   C156      1.0  0.647548715265961  0.15900929221035426  0.638614921729766  1.0000
  H   H101      1.0  0.6015238803750129  0.1887749377508234  0.6327743096118074  1.0000
  H   H102      1.0  0.5984621883358852  0.1708784108096024  0.5825638379788911  1.0000
  H   H103      1.0  0.6584424133995157  0.13807269391347154  0.6038434865171499  1.0000
  H   H104      1.0  0.6613430168236459  0.1557427752004881  0.6541302538448879  1.0000
  C   C157      1.0  0.6233917339594461  0.15372304939747927  0.8463524456012844  1.0000
  C   C158      1.0  0.6012359584430369  0.15292874881489843  0.8649759150144642  1.0000
  C   C159      1.0  0.5969436352056791  0.14035948499777182  0.8927487212576468  1.0000
  C   C160      1.0  0.6152793170885642  0.12913424150179204  0.9022988078812597  1.0000
  C   C161      1.0  0.6371490637093378  0.12956368742001334  0.8835281369318064  1.0000
  C   C162      1.0  0.6411804918712626  0.14176370886630102  0.8555942283499147  1.0000
  H   H105      1.0  0.5871926651009034  0.1618802413230386  0.8578315919995302  1.0000
  H   H106      1.0  0.5794932571824146  0.13939940293353287  0.9067635975079217  1.0000
  H   H107      1.0  0.6512770982041536  0.12071184633450675  0.8907312576337931  1.0000
  H   H108      1.0  0.6582768951252292  0.14222524529843925  0.8413854859276738  1.0000
  C   C163      1.0  0.8323910771607833  0.3055735277171794  0.6888175032876311  1.0000
  C   C164      1.0  0.8022512950719729  0.2855141571240141  0.6813102159486493  1.0000
  C   C165      1.0  0.7826740094829461  0.2625194654571624  0.700414178802311  1.0000
  C   C166      1.0  0.7931122644449026  0.2592913477910032  0.7272543336957878  1.0000
  C   C167      1.0  0.8232736939042011  0.2792215094218726  0.7347001437027775  1.0000
  C   C168      1.0  0.8428076281484141  0.30231489903543335  0.715656500244417  1.0000
  H   H109      1.0  0.7939903252358549  0.2877953925659499  0.6605868806249463  1.0000
  H   H110      1.0  0.7595680847356311  0.24730983000016304  0.6943497291339  1.0000
  H   H111      1.0  0.8316086036210953  0.2768738632013887  0.7553750763981685  1.0000
  H   H112      1.0  0.8659424975281254  0.31749747645045895  0.7216991616679718  1.0000
  C   C169      1.0  0.9450073961012254  0.4324255239274016  0.8346932876238616  1.0000
  C   C170      1.0  0.9601331753364852  0.46278332989125703  0.8270212467610645  1.0000
  C   C171      1.0  0.9655936886405404  0.4713034825058324  0.7979585184585597  1.0000
  C   C172      1.0  0.9559573430740618  0.44948664479381223  0.7763399527767638  1.0000
  C   C173      1.0  0.941809645019054  0.4190584557974387  0.7839015815640948  1.0000
  C   C174      1.0  0.9365232211224072  0.41053970871607665  0.8131576398444404  1.0000
  H   H113      1.0  0.9676573672211941  0.47975321010719846  0.8435048409993251  1.0000
  H   H114      1.0  0.9767053363861871  0.49486966750866945  0.7921624235911986  1.0000
  H   H115      1.0  0.9344304795855017  0.40210371086183544  0.7672703594447379  1.0000
  H   H116      1.0  0.925012908820964  0.3869811810442709  0.8190236054694158  1.0000
  C   C175      1.0  0.9345917358758776  0.4411066119826986  0.5089692654695716  1.0000
  C   C176      1.0  0.9369406972860244  0.467632284786981  0.5196541605841244  1.0000
  C   C177      1.0  0.9427703621159707  0.4746594295734834  0.5490836405988905  1.0000
  C   C178      1.0  0.9463694032952867  0.45528976746920563  0.5679226875980732  1.0000
  C   C179      1.0  0.9451734282522897  0.4293492860108266  0.557013318730386  1.0000
  C   C180      1.0  0.9389578892795809  0.4221229746599762  0.5276709299385152  1.0000
  H   H117      1.0  0.933654364777744  0.482404622656502  0.5053769815968656  1.0000
  H   H118      1.0  0.9438319420673107  0.4948618618433063  0.5573841602315697  1.0000
  H   H119      1.0  0.9485993273578461  0.41463782846305547  0.5712316887543647  1.0000
  H   H120      1.0  0.9374626598293201  0.40172097225454256  0.5193945034398489  1.0000
  C   C181      1.0  0.7819065318022571  0.5111635758167817  0.8610391311187616  1.0000
  C   C182      1.0  0.8077486887161113  0.5252241145702864  0.8784229334534182  1.0000
  C   C183      1.0  0.8278671914506829  0.5139753011061264  0.8798672413842151  1.0000
  C   C184      1.0  0.822314001284182  0.4887526894372917  0.8636565426382923  1.0000
  C   C185      1.0  0.7967395121960794  0.4750417196635946  0.8460232609635632  1.0000
  C   C186      1.0  0.77662731259519  0.4861284158956358  0.8447421774048347  1.0000
  H   H121      1.0  0.8121264227093552  0.5447803260549648  0.8909205811303303  1.0000
  H   H122      1.0  0.8476752351830169  0.5248953543216394  0.8933052017543545  1.0000
  H   H123      1.0  0.7923975406382971  0.45567706574968736  0.8332360743185584  1.0000
  H   H124      1.0  0.7572183127496671  0.47548438997157694  0.830835153740061  1.0000
  C   C187      1.0  0.6310685476740523  0.4113328332728828  0.9304960593455077  1.0000
  C   C188      1.0  0.6479208890122501  0.44122188230896764  0.939330337812108  1.0000
  C   C189      1.0  0.648853006473633  0.4486374373348823  0.9685298837651014  1.0000
  C   C190      1.0  0.6327000809557333  0.426225621685114  0.9890973814639794  1.0000
  C   C191      1.0  0.6154541599926115  0.39629662482529415  0.9803595776764814  1.0000
  C   C192      1.0  0.6147962518798624  0.3888560980019626  0.9510679395624047  1.0000
  H   H125      1.0  0.6605752201394467  0.45869287444874435  0.923865021678373  1.0000
  H   H126      1.0  0.6583879052917703  0.47976537182218854  0.47587727265071583  1.0000
  H   H127      1.0  0.6029734073262167  0.37887518604176057  0.9962144803558923  1.0000
  H   H128      1.0  0.6017003537868166  0.365635295641898  0.9444100407280838  1.0000
  C   C193      1.0  0.641886993873097  0.42943931670674973  0.7281520123399362  1.0000
  C   C194      1.0  0.628891064756724  0.44773950946669366  0.7298227967319151  1.0000
  C   C195      1.0  0.6111233555792356  0.44815178088142804  0.7070352554906377  1.0000
  C   C196      1.0  0.6059748084066651  0.4300222723503128  0.6826861420988527  1.0000
  C   C197      1.0  0.6185104461160105  0.41132013453393157  0.6811949749259301  1.0000
  C   C198      1.0  0.6366482992612443  0.41124086242425345  0.7038055191358984  1.0000
  H   H129      1.0  0.6329129852296411  0.4618681056933463  0.7485087612520304  1.0000
  H   H130      1.0  0.601541375930566  0.46272862082055743  0.7082498560027324  1.0000
  H   H131      1.0  0.6144776393294166  0.39711632140900777  0.6625782141550323  1.0000
  H   H132      1.0  0.6465999680011455  0.3969805176293344  0.7025209411742496  1.0000
  C   C199      1.0  0.10016134548997789  0.46096427838942267  0.6310126460029964  1.0000
  C   C200      1.0  0.07225223052052242  0.4542580737555994  0.619335146171341  1.0000
  C   C201      1.0  0.04518769162328162  0.43167389942381773  0.6316982716675514  1.0000
  C   C202      1.0  0.045944308185551286  0.41502948713425514  0.6552559588687714  1.0000
  C   C203      1.0  0.07388520289231826  0.42101392498247164  0.6662487901720795  1.0000
  C   C204      1.0  0.10093091233771771  0.4443104072139924  0.654530797467065  1.0000
  H   H133      1.0  0.07147922140616296  0.4669290468370633  0.6010392317786585  1.0000
  H   H134      1.0  0.023740922323527425  0.42701374594856867  0.6229024861203581  1.0000
  H   H135      1.0  0.0745831524884839  0.40796280801590906  0.6842507200089963  1.0000
  H   H136      1.0  0.12236461666167714  0.44906112751821375  0.6634097319714027  1.0000
  C   C205      1.0  0.4368635583144691  0.4212525915876005  0.5946977422898486  1.0000
  C   C206      1.0  0.4191935414976444  0.39001775892252966  0.5924480382653156  1.0000
  C   C207      1.0  0.4316067041140685  0.3729627161248086  0.581839493156147  1.0000
  C   C208      1.0  0.4622443427040408  0.3866726960569782  0.574562703729906  1.0000
  C   C209      1.0  0.48016829237014913  0.4180274465952128  0.5766288121341017  1.0000
  C   C210      1.0  0.46735663467781347  0.43538215530817  0.5863225380094984  1.0000
  H   H137      1.0  0.39566832033639165  0.37888899093654216  0.598758735338811  1.0000
  H   H138      1.0  0.417537252812514  0.3488326221794977  0.5800105201158987  1.0000
  H   H139      1.0  0.5037459356066114  0.42886571106265  0.5705607611002459  1.0000
  H   H140      1.0  0.4812075735067749  0.45952717955666916  0.587950399466487  1.0000
  C   C211      1.0  0.3450100147317949  0.5339275492018838  0.6046733509028703  1.0000
  C   C212      1.0  0.31935995652812726  0.5356391363067924  0.5971212826933168  1.0000
  C   C213      1.0  0.2972063921932428  0.5309051019104508  0.6179305777834674  1.0000
  C   C214      1.0  0.30036881233271834  0.5240953055705473  0.6464681264845166  1.0000
  C   C215      1.0  0.3262951475609383  0.5228765364128053  0.6541052828824665  1.0000
  C   C216      1.0  0.34865901830359036  0.528006391486963  0.6333686952010709  1.0000
  H   H141      1.0  0.31635010823377396  0.5402968731470892  0.5750055265708524  1.0000
  H   H142      1.0  0.2773463803460556  0.5318424679680727  0.6117521880897356  1.0000
  H   H143      1.0  0.32902789244386116  0.5179246331060057  0.6762122355091972  1.0000
  H   H144      1.0  0.3685826930018662  0.5272093246238941  0.6395778479950215  1.0000
  C   C217      1.0  0.6131714667370226  0.5914717736275797  0.8229363526128276  1.0000
  C   C218      1.0  0.5872343108375477  0.5667333226080975  0.8341188448172078  1.0000
  C   C219      1.0  0.5866354128054274  0.5394147707783465  0.8388221413599056  1.0000
  C   C220      1.0  0.6119997670654739  0.5365734609783066  0.8326395241603001  1.0000
  C   C221      1.0  0.6380865299954127  0.5613378335571785  0.8216568645008901  1.0000
  C   C222      1.0  0.6386247415404998  0.588702085430594  0.8167932154917651  1.0000
  H   H145      1.0  0.5675962849018384  0.5685804293910218  0.8391653909647301  1.0000
  H   H146      1.0  0.5663970719791362  0.520390476659016  0.8473803224312987  1.0000
  H   H147      1.0  0.6577782888585351  0.5594048122508022  0.816862808455069  1.0000
  H   H148      1.0  0.6588084643030613  0.6077562494687929  0.8081471255314282  1.0000
  C   C223      1.0  0.48868863566034315  0.5990523283485192  0.7289647753361631  1.0000
  C   C224      1.0  0.4658346145467139  0.5814033910904438  0.7095215983755464  1.0000
  C   C225      1.0  0.472911162637317  0.5786764483783841  0.6808269581602262  1.0000
  C   C226      1.0  0.5028689184234392  0.5937572801271735  0.6713513672650561  1.0000
  C   C227      1.0  0.525697474740796  0.6124424875811433  0.6905398976979963  1.0000
  C   C228      1.0  0.5186522217228733  0.614944688033231  0.7194232025418787  1.0000
  H   H149      1.0  0.44256239182040635  0.569441387204459  0.7167424364213997  1.0000
  H   H150      1.0  0.4551169525774379  0.5649342717062089  0.6660966937382332  1.0000
  H   H151      1.0  0.5488553049074046  0.6246302782195023  0.6830617312677635  1.0000
  H   H152      1.0  0.536277494321798  0.6291844736127427  0.7342103959715863  1.0000
  C   C229      1.0  0.49781430902314  0.590898213186901  0.936826495718445  1.0000
  C   C230      1.0  0.4749913263021467  0.5767164573391795  0.9576791163806183  1.0000
  C   C231      1.0  0.4817996632062625  0.5809040687167214  0.9871764334993556  1.0000
  C   C232      1.0  0.5115929974163655  0.5989352242676987  0.9960608363223078  1.0000
  C   C233      1.0  0.5344677609540947  0.6133424736460718  0.9752069213810752  1.0000
  C   C234      1.0  0.527630460924018  0.6092599518053653  0.9456098848179837  1.0000
  H   H153      1.0  0.45183435902144514  0.5626492683909653  0.950990422380012  1.0000
  H   H154      1.0  0.4639376400841255  0.570120023218924  0.003022953803687667  1.0000
  H   H155      1.0  0.5575955635115716  0.6273333731078263  0.9819829925909191  1.0000
  H   H156      1.0  0.5454076583544486  0.6201307418379935  0.9296493659224777  1.0000
  C   C235      1.0  0.6163675849164382  0.9980537347690012  0.7734419550757708  1.0000
  C   C236      1.0  0.6167771736966686  0.024416701458920498  0.7823311380480537  1.0000
  C   C237      1.0  0.6349752748257936  0.05189690751534293  0.7680124285262302  1.0000
  C   C238      1.0  0.6533618393009899  0.053363497527473686  0.7449062270001632  1.0000
  C   C239      1.0  0.6531262329141801  0.02704027922673191  0.7360478335435939  1.0000
  C   C240      1.0  0.6346306877242566  0.9994387815492826  0.7501993107621246  1.0000
  H   H157      1.0  0.6030585967134499  0.02362949865404973  0.8005598653818476  1.0000
  H   H158      1.0  0.6351072675002755  0.07202314736808409  0.7751684315679985  1.0000
  H   H159      1.0  0.6674922983005858  0.028047602376055192  0.7183377627154892  1.0000
  H   H160      1.0  0.6351151206895068  0.9794574128855207  0.7436567887031711  1.0000
  C   C241      1.0  0.5712895903577249  0.7937905853770841  0.7793738401168634  1.0000
  C   C242      1.0  0.581482151991178  0.7734065745261003  0.7737874839596433  1.0000
  C   C243      1.0  0.5761324929643712  0.7505179556402274  0.7937363492178998  1.0000
  C   C244      1.0  0.5605795045545687  0.7478790076318105  0.8195161286185193  1.0000
  C   C245      1.0  0.5504332454100396  0.7682757202400579  0.8251006774517681  1.0000
  C   C246      1.0  0.5555507962779904  0.7909840975173705  0.8050577531680665  1.0000
  H   H161      1.0  0.5939223560700584  0.7756101289264328  0.7540937890429121  1.0000
  H   H162      1.0  0.5846492857915708  0.7353801897867205  0.7894627030289266  1.0000
  H   H163      1.0  0.5385944378602465  0.7665958731134338  0.8450586088166551  1.0000
  H   H164      1.0  0.5476520494454552  0.8065696997660213  0.8096512722286598  1.0000
  C   C247      1.0  0.4276885251694281  0.9698788980732084  0.02202465069990156  1.0000
  C   C248      1.0  0.45875417127831075  0.9877663007266742  0.027127736173485628  1.0000
  C   C249      1.0  0.4740125818757571  0.018624873768889882  0.019731782281983357  1.0000
  C   C250      1.0  0.4583575197335004  0.03136504875433532  0.006547749963286664  1.0000
  C   C251      1.0  0.48365097075940794  0.030849994083133044  0.5175638119718764  1.0000
  C   C252      1.0  0.47001376462796285  0.9994277056283074  0.5215699090580315  1.0000
  H   H165      1.0  0.4707118270295387  0.9780418357241298  0.0376264604544152  1.0000
  H   H166      1.0  0.49771590317547165  0.032538031836071415  0.02441324145769741  1.0000
  H   H167      1.0  0.5066311918185266  0.04366162894109099  0.5099014349606492  1.0000
  H   H168      1.0  0.48251090770437993  0.9880514907014987  0.5170017718163289  1.0000
  C   C253      1.0  0.48805509966663524  0.8932701635775594  0.9090975191441593  1.0000
  C   C254      1.0  0.46389468041214477  0.8638239175382768  0.9077685058860249  1.0000
  C   C255      1.0  0.46004286800381927  0.8463262956955144  0.8831516544401687  1.0000
  C   C256      1.0  0.4804815355548026  0.8581560250589951  0.8599989736601683  1.0000
  C   C257      1.0  0.5047456260251864  0.887540506262446  0.8614542129253879  1.0000
  C   C258      1.0  0.5084647903129721  0.9050960936008317  0.8859520735153512  1.0000
  H   H169      1.0  0.4481018991516481  0.8545657171938914  0.925626136719047  1.0000
  H   H170      1.0  0.44130217811194816  0.8235687345430479  0.8821321753928636  1.0000
  H   H171      1.0  0.5206712886186355  0.8967973193867509  0.843705928463669  1.0000
  H   H172      1.0  0.5272747935705673  0.9278278557597349  0.8869488074106504  1.0000
  C   C259      1.0  0.5097781667723517  0.8878676601104922  0.6029156597606419  1.0000
  C   C260      1.0  0.4842197898173764  0.8875903119569968  0.6141455018251201  1.0000
  C   C261      1.0  0.4787531374156914  0.8849781900081793  0.6440388265955407  1.0000
  C   C262      1.0  0.49874836284349683  0.8825872193705255  0.6629517232502121  1.0000
  C   C263      1.0  0.524474324873508  0.8830769345229676  0.6518453345419091  1.0000
  C   C264      1.0  0.5299809079288156  0.8857686143524919  0.6218690810533276  1.0000
  H   H173      1.0  0.4686535151976732  0.8894373682773693  0.5997938396468903  1.0000
  H   H174      1.0  0.4588960600244139  0.8847961006085934  0.6524715210615295  1.0000
  H   H175      1.0  0.540019400800134  0.8812000788091743  0.6662472437335484  1.0000
  H   H176      1.0  0.549798222126119  0.8859500398423884  0.6133140507563133  1.0000
  C   C265      1.0  0.08202509252626773  0.5681864986058595  0.9485650365172752  1.0000
  C   C266      1.0  0.0838939960369265  0.5897957769565055  0.929006274588518  1.0000
  C   C267      1.0  0.057340901769717956  0.5880805253303387  0.9183616737367476  1.0000
  C   C268      1.0  0.02887880819346922  0.5643996664862952  0.9266522196678362  1.0000
  C   C269      1.0  0.027161074092265425  0.5428097843842108  0.9461172549182532  1.0000
  C   C270      1.0  0.05357121777434164  0.5449035297063327  0.9572801120159691  1.0000
  H   H177      1.0  0.10574313857881973  0.6078959558864762  0.9222240680003244  1.0000
  H   H178      1.0  0.05888311117771683  0.6049968170887845  0.9034145910687241  1.0000
  H   H179      1.0  0.005531242577431428  0.524728928175093  0.952959188765447  1.0000
  H   H180      1.0  0.05198339232187029  0.5281150938313904  0.9724118220744107  1.0000
  C   C271      1.0  0.27824741965052413  0.7340679645702377  0.9697913353182666  1.0000
  C   C272      1.0  0.29401484306126674  0.7192739737932544  0.9770303990623596  1.0000
  C   C273      1.0  0.3242352855834015  0.7358277954921422  0.9858258949320599  1.0000
  C   C274      1.0  0.33890116653814095  0.767274015605215  0.98811406854513  1.0000
  C   C275      1.0  0.3230712075328084  0.7821152162015635  0.9812856531878027  1.0000
  C   C276      1.0  0.29287171150784136  0.7655406983720022  0.9720558384424529  1.0000
  H   H181      1.0  0.28307698380776086  0.6950948001586752  0.9754884785217381  1.0000
  H   H182      1.0  0.3364037132661617  0.7242079180336375  0.9907743659819986  1.0000
  H   H183      1.0  0.3523340890709465  0.7407280166422412  0.47979255703874585  1.0000
  H   H184      1.0  0.28084815658407575  0.7771925753720633  0.9665479006938029  1.0000
  C   C277      1.0  0.2543737362550793  0.6119501166610429  0.5248987709146375  1.0000
  C   C278      1.0  0.259983230894831  0.5947321607652383  0.5446840966673425  1.0000
  C   C279      1.0  0.2570826600326673  0.5978436409629244  0.5744852587942344  1.0000
  C   C280      1.0  0.2482745722017003  0.6179910221502047  0.5846406113566442  1.0000
  C   C281      1.0  0.24314888802773385  0.6355286328329784  0.5649051941987019  1.0000
  C   C282      1.0  0.24645767692461648  0.6327120424887046  0.5351887781580509  1.0000
  H   H185      1.0  0.2601071041111476  0.5673751706652985  0.04432776326531207  1.0000
  H   H186      1.0  0.26232353908884204  0.5851006081778715  0.5895637167045457  1.0000
  H   H187      1.0  0.2364185330892476  0.6512041538525255  0.5726644352497452  1.0000
  H   H188      1.0  0.24360905220510212  0.6471779788661183  0.5204066388718982  1.0000
  C   C283      1.0  0.2140562262515809  0.6010335366478147  0.8262979802843328  1.0000
  C   C284      1.0  0.18409904332832164  0.5776051089676396  0.8268490980081953  1.0000
  C   C285      1.0  0.1712985368070955  0.5600945091198778  0.8019481784744334  1.0000
  C   C286      1.0  0.1883569542543228  0.5656604159234667  0.7764018885295682  1.0000
  C   C287      1.0  0.21833645205395438  0.5889667868720754  0.7759427706137605  1.0000
  C   C288      1.0  0.23104451760305092  0.6066222168907752  0.8007362104549003  1.0000
  H   H189      1.0  0.17081565632794152  0.5731079437766924  0.8463727383284136  1.0000
  H   H190      1.0  0.14811956554853375  0.5420794684366536  0.8024946168294802  1.0000
  H   H191      1.0  0.23168314275857127  0.5934658163614531  0.7564434985349454  1.0000
  H   H192      1.0  0.2542331116427361  0.6246375562985671  0.8000993244168759  1.0000
  N   N1        1.0  0.3874505025827661  0.5392658429171897  0.20550669120810017  1.0000
  C   C289      1.0  0.40563586289048664  0.5251840150363583  0.21309454391494584  1.0000
  C   C290      1.0  0.3993511728655522  0.5568049595539971  0.1785747100875772  1.0000
  C   C291      1.0  0.3890042402947743  0.5593947530598745  0.2290840203994005  1.0000
  C   C292      1.0  0.3557369367847019  0.5156368761313104  0.20114085767009562  1.0000
  H   H193      1.0  0.39694667894219  0.5112751816383032  0.23301160734141232  1.0000
  H   H194      1.0  0.429584487425776  0.542355373497759  0.2170661506462071  1.0000
  H   H195      1.0  0.4056132797189109  0.5104573615417414  0.19541272020894387  1.0000
  H   H196      1.0  0.38552463449170976  0.5668396990302395  0.17149102958850948  1.0000
  H   H197      1.0  0.422792394211266  0.5755393211414883  0.18112254741780462  1.0000
  H   H198      1.0  0.39952746592352084  0.5425281684498874  0.16057128741446572  1.0000
  H   H199      1.0  0.37584653676469976  0.5706862064497331  0.2238167924466032  1.0000
  H   H200      1.0  0.41268532754371046  0.5772844921328586  0.23324896688248636  1.0000
  H   H201      1.0  0.3798814494135308  0.546838270580003  0.24967972158304153  1.0000
  H   H202      1.0  0.3414901392142827  0.5254223785447116  0.19459267232675195  1.0000
  H   H203      1.0  0.34564243444003395  0.5022430106802063  0.22112943726126724  1.0000
  H   H204      1.0  0.35388745026915724  0.49978987954853255  0.1838133994801487  1.0000
  N   N2        1.0  0.5117959499134657  0.5153234857003827  0.0026168675688749143  1.0000
  C   C293      1.0  0.4857698138151297  0.5198336504345502  0.007399822259885669  1.0000
  C   C294      1.0  0.5338599553824168  0.5393424839003755  0.9834042035999708  1.0000
  C   C295      1.0  0.5012276164341937  0.4856286832222779  0.98925350638559  1.0000
  C   C296      1.0  0.526193150490717  0.5165509651479079  0.03053454458488436  1.0000
  H   H205      1.0  0.4675409999509062  0.5010477297021226  0.01987118465679827  1.0000
  H   H206      1.0  0.47577698274738317  0.5214941105633106  0.9867057890365887  1.0000
  H   H207      1.0  0.4924017259676184  0.540640355458199  0.019845235994867982  1.0000
  H   H208      1.0  0.5538969847668528  0.5367935197886023  0.9792187463386809  1.0000
  H   H209      1.0  0.5236973669823386  0.5394316007306836  0.9622362263465658  1.0000
  H   H210      1.0  0.5420442414989504  0.5619376327008331  0.9931779867142633  1.0000
  H   H211      1.0  0.5202468560653393  0.4814129217603957  0.9852048257285114  1.0000
  H   H212      1.0  0.4898033289426138  0.48378063510702624  0.9683734349628831  1.0000
  H   H213      1.0  0.4846911521493938  0.46724379165482727  0.003640320289640453  1.0000
  H   H214      1.0  0.5451569551438676  0.5119717986441001  0.02796189234402302  1.0000
  H   H215      1.0  0.5097707529006078  0.4996709736354659  0.04606501285663067  1.0000
  H   H216      1.0  0.5354070279471498  0.5390619775013729  0.040731448650999535  1.0000
  N   N3        1.0  0.5025370477702367  0.675389968449808  0.9257070324500491  1.0000
  C   C297      1.0  0.4859679323919155  0.6763289249842823  0.9000741815115121  1.0000
  C   C298      1.0  0.5280705486710239  0.6715954730918331  0.9163142839204806  1.0000
  C   C299      1.0  0.48202365827281474  0.6498318478243752  0.9443873378254182  1.0000
  C   C300      1.0  0.5141935051790651  0.7037794709166186  0.9419150803886682  1.0000
  H   H217      1.0  0.500960512385864  0.6950065001700336  0.8851971058861138  1.0000
  H   H218      1.0  0.46669911463788477  0.6795075587577051  0.9062468732822312  1.0000
  H   H219      1.0  0.47671335571735646  0.6550556405565937  0.8875543263664472  1.0000
  H   H220      1.0  0.5411411917113959  0.670703059334061  0.9350161704257773  1.0000
  H   H221      1.0  0.5200098058913796  0.6503938834706633  0.9040361654320207  1.0000
  H   H222      1.0  0.543967421925984  0.690363551350791  0.9020053286006005  1.0000
  H   H223      1.0  0.4940817950142464  0.6474319681235701  0.963251836829688  1.0000
  H   H224      1.0  0.4719719383824451  0.6282247248723624  0.9323304409780029  1.0000
  H   H225      1.0  0.4630271211868128  0.6524094031459344  0.9527965117251612  1.0000
  H   H226      1.0  0.5267749269776427  0.7036809428250151  0.9614061248257746  1.0000
  H   H227      1.0  0.49557425602496546  0.7075331904062659  0.9492350527122381  1.0000
  H   H228      1.0  0.5299018614305268  0.7233966773469686  0.9283242613616357  1.0000
  N   N4        1.0  0.49633711469531133  0.6905165592825276  0.7513187840952358  1.0000
  C   C301      1.0  0.48964435914958887  0.6805320385875001  0.7209819204769848  1.0000
  C   C302      1.0  0.5219002231289565  0.6872651200876017  0.7612928810868712  1.0000
  C   C303      1.0  0.46958644065254096  0.6717509226710335  0.7695702900924077  1.0000
  C   C304      1.0  0.5043162760954344  0.722374079386682  0.7535447352095858  1.0000
  H   H229      1.0  0.47047725010879826  0.6826880376005713  0.7126106663698536  1.0000
  H   H230      1.0  0.48345844403160537  0.6564833249817021  0.7187405713934376  1.0000
  H   H231      1.0  0.5095058556191832  0.6939772503388862  0.7066780706035312  1.0000
  H   H232      1.0  0.5264458788506967  0.6928536289619578  0.7845998842538229  1.0000
  H   H233      1.0  0.5172095189341656  0.6638429012840439  0.7585269964011917  1.0000
  H   H234      1.0  0.5429603507716971  0.7022166072638761  0.7490495631270458  1.0000
  H   H235      1.0  0.4497619365100617  0.673573895295868  0.762726778078945  1.0000
  H   H236      1.0  0.4740210101294241  0.6784288606904234  0.7926771983520796  1.0000
  H   H237      1.0  0.46303489862153807  0.6475664836140674  0.7683797566333433  1.0000
  H   H238      1.0  0.5096538926501453  0.7305452681663832  0.7761999024010986  1.0000
  H   H239      1.0  0.48560834454466967  0.7258179597058161  0.7462013851972733  1.0000
  H   H240      1.0  0.5246059815307403  0.7372621472288976  0.740230964078907  1.0000
  N   N5        1.0  0.9884534580847039  0.42957526885155123  0.277816715951482  1.0000
  C   C305      1.0  0.01887800283234009  0.43326878537200203  0.28065321156942113  1.0000
  C   C306      1.0  0.9659555587118488  0.39730568155389007  0.27510727247715794  1.0000
  C   C307      1.0  0.9876290155592227  0.445821258990653  0.25181676923850027  1.0000
  C   C308      1.0  0.9812608552960315  0.4418343243804158  0.30363004578836206  1.0000
  H   H241      1.0  0.03643284900480892  0.457371063166048  0.2823940717484837  1.0000
  H   H242      1.0  0.024767268389086272  0.4239988349456855  0.26150318947906376  1.0000
  H   H243      1.0  0.02040219812680255  0.42132815035531884  0.3000394695014407  1.0000
  H   H244      1.0  0.9660690727003213  0.38430167490566597  0.2942535146508628  1.0000
  H   H245      1.0  0.9427050525183389  0.3937371803946109  0.27302424741433257  1.0000
  H   H246      1.0  0.9705205972175139  0.3873134061117651  0.25571307833004  1.0000
  H   H247      1.0  0.9647418125570149  0.44248595710376337  0.24829779366590993  1.0000
  H   H248      1.0  0.9938361040226926  0.4378188008295472  0.23200823639096307  1.0000
  H   H249      1.0  0.003418499584374457  0.4704147155364055  0.2534374921172802  1.0000
  H   H250      1.0  0.9581654633255817  0.43870410604120896  0.30232781054655994  1.0000
  H   H251      1.0  0.9971989089057339  0.4663266951384758  0.30608977665634957  1.0000
  H   H252      1.0  0.9820427269061076  0.4303981623133889  0.3237449115904399  1.0000
  N   N6        1.0  0.40274004529890234  0.5698512391963496  0.49454865413299903  1.0000
  C   C309      1.0  0.4218528147356276  0.5927984324358477  0.5158945935781203  1.0000
  C   C310      1.0  0.4148204164910132  0.5805536683398539  0.4651721011485695  1.0000
  C   C311      1.0  0.37156560011736933  0.5644242291615887  0.4967425483737173  1.0000
  C   C312      1.0  0.4027309729721526  0.5415761175150274  0.5004892976259121  1.0000
  H   H253      1.0  0.4223798777894664  0.6144432268867059  0.512124672744292  1.0000
  H   H254      1.0  0.44551652800338276  0.5973956893921314  0.5149473371299681  1.0000
  H   H255      1.0  0.41339574350765934  0.5853717793419106  0.5383218321403677  1.0000
  H   H256      1.0  0.4007939839704847  0.5639302920058539  0.4484697518375425  1.0000
  H   H257      1.0  0.4157431400304659  0.6021719102043989  0.4600625158787122  1.0000
  H   H258      1.0  0.4381371285094965  0.584350514672538  0.46274719041591156  1.0000
  H   H259      1.0  0.35637605720344745  0.5469645691617137  0.4812006697375494  1.0000
  H   H260      1.0  0.3706431654564281  0.5852482057362658  0.4923093074471026  1.0000
  H   H261      1.0  0.36198450836999563  0.5565217135255589  0.518807306609301  1.0000
  H   H262      1.0  0.38927040750905306  0.5239379833870879  0.48436660360288997  1.0000
  H   H263      1.0  0.39309700501313444  0.5324726757463205  0.5221799032112068  1.0000
  H   H264      1.0  0.4259620684934475  0.5450093382310524  0.4999878314547261  1.0000
  N   N7        1.0  0.5222697003343446  0.7733111454054985  0.3401000925344149  1.0000
  C   C313      1.0  0.5300729770954978  0.7492031744127996  0.3392707153017199  1.0000
  C   C314      1.0  0.5310815797941439  0.7900001370508245  0.3125103119498635  1.0000
  C   C315      1.0  0.5385680491538357  0.7941547357126895  0.3639662772329393  1.0000
  C   C316      1.0  0.4894228159527435  0.7600703114670507  0.34454410683104164  1.0000
  H   H265      1.0  0.5237435985215712  0.7360293740275966  0.3597300426972279  1.0000
  H   H266      1.0  0.5547451416133529  0.7585387246960313  0.3358763468267019  1.0000
  H   H267      1.0  0.5183338673026978  0.733176563279179  0.32135937251767677  1.0000
  H   H268      1.0  0.5198795892701558  0.775017508373736  0.29378534120073  1.0000
  H   H269      1.0  0.5247444481082648  0.8077408688823695  0.31205671365674154  1.0000
  H   H270      1.0  0.5558593414499478  0.8013500811003111  0.30889671919389694  1.0000
  H   H271      1.0  0.5634341033399504  0.8046793031504408  0.3610750724784022  1.0000
  H   H272      1.0  0.5324384477375822  0.7823791412582185  0.38517703138878184  1.0000
  H   H273      1.0  0.533271788709869  0.8127161796324367  0.36503762525768946  1.0000
  H   H274      1.0  0.48183708969208083  0.7471982849520511  0.36513391940724316  1.0000
  H   H275      1.0  0.4765335197360152  0.7445439175045993  0.32665681661550977  1.0000
  H   H276      1.0  0.48295524423998165  0.7778492192584092  0.34528785151230723  1.0000
  N   N8        1.0  0.6699637950393248  0.4833590889692649  0.6032022593460661  1.0000
  C   C317      1.0  0.6914253261007911  0.5157047751307224  0.6072316342191035  1.0000
  C   C318      1.0  0.6661905086348953  0.4671676217037033  0.63068130403246  1.0000
  C   C319      1.0  0.6815656812438804  0.4712557535719726  0.5806757434035924  1.0000
  C   C320      1.0  0.6405074878732818  0.47923149734011616  0.594161626085145  1.0000
  H   H277      1.0  0.6946886035282746  0.5285169753110402  0.5868550112201419  1.0000
  H   H278      1.0  0.7139191831779478  0.5196412111057501  0.6141027879509593  1.0000
  H   H279      1.0  0.6832120191054489  0.525467034396936  0.6240468635785147  1.0000
  H   H280      1.0  0.6571058815433933  0.4754833330153547  0.6480912756189753  1.0000
  H   H281      1.0  0.6500010711552868  0.44270550015596727  0.6283747997504296  1.0000
  H   H282      1.0  0.6878911416571404  0.4696814794675059  0.6383380302971488  1.0000
  H   H283      1.0  0.6658064303954332  0.44686314111903774  0.5770580913650282  1.0000
  H   H284      1.0  0.7038574709315444  0.4740525579236235  0.5865516079786126  1.0000
  H   H285      1.0  0.6840560707059082  0.48256230138948625  0.5594788918497581  1.0000
  H   H286      1.0  0.642251212718351  0.490884472778233  0.5733553156449092  1.0000
  H   H287      1.0  0.6305795965642059  0.4874951294662696  0.610768313084514  1.0000
  H   H288      1.0  0.6241056472780852  0.455125484993818  0.5907158248614861  1.0000
  N   N9        1.0  0.3221283299022552  0.7050069468515244  0.07237135086859547  1.0000
  C   C321      1.0  0.3116507106697635  0.6833129977459105  0.04826599755273063  1.0000
  C   C322      1.0  0.34683765472967926  0.7038763823004425  0.08761226410870568  1.0000
  C   C323      1.0  0.29687831910707185  0.697167121390835  0.0927250870083667  1.0000
  C   C324      1.0  0.33318671278129747  0.7356468896322902  0.06090368813301511  1.0000
  H   H289      1.0  0.29289966560223757  0.6834478978274675  0.03630256230708632  1.0000
  H   H290      1.0  0.30328217076024805  0.6599407478051438  0.05612144511865242  1.0000
  H   H291      1.0  0.3300988497633752  0.6886270752530244  0.03241767441003036  1.0000
  H   H292      1.0  0.33920919944293404  0.6810163355369805  0.0965417379226191  1.0000
  H   H293      1.0  0.36629356451782447  0.7096988199236784  0.07287906764770512  1.0000
  H   H294      1.0  0.35530378423343184  0.7199850133274115  0.10594347909961549  1.0000
  H   H295      1.0  0.3038068900123632  0.7133961995314277  0.11090534531373403  1.0000
  H   H296      1.0  0.28846581423339285  0.6744433292399632  0.102353631406791  1.0000
  H   H297      1.0  0.27751845793654856  0.6970741339358245  0.08179543470212641  1.0000
  H   H298      1.0  0.31529146025187715  0.73729683799527  0.04885194042491605  1.0000
  H   H299      1.0  0.35252230350041347  0.7424461756893596  0.04574579896162571  1.0000
  H   H300      1.0  0.3410938147320614  0.7526921929153086  0.07841508593577887  1.0000
  N   N10       1.0  0.12793500812369127  0.5737226266836787  0.3453995121512547  1.0000
  C   C325      1.0  0.13933991748365626  0.5656396823792063  0.3194683674051956  1.0000
  C   C326      1.0  0.09832870087956704  0.5481369847626291  0.3540178731072128  1.0000
  C   C327      1.0  0.12472815455173432  0.6001587770531426  0.3388565674470691  1.0000
  C   C328      1.0  0.14946849413748978  0.581071926910438  0.3692926504682653  1.0000
  H   H301      1.0  0.161381518292152  0.5847100329491819  0.3120788411832235  1.0000
  H   H302      1.0  0.12343125752584215  0.5593994297869265  0.30111110433580385  1.0000
  H   H303      1.0  0.1429586980806213  0.5463281937759342  0.3237360938261457  1.0000
  H   H304      1.0  0.08121027932576806  0.5423917311606782  0.33685533477777574  1.0000
  H   H305      1.0  0.099941580307836  0.5277475915840399  0.35878165521367755  1.0000
  H   H306      1.0  0.08937571116380838  0.5532835397897989  0.37387380828386174  1.0000
  H   H307      1.0  0.1162775393688713  0.6069650368947678  0.35793893981728475  1.0000
  H   H308      1.0  0.10854914172447938  0.5954544479566884  0.3209871935229486  1.0000
  H   H309      1.0  0.14676089685514757  0.6198742547492978  0.33241309588684886  1.0000
  H   H310      1.0  0.1530522553697965  0.5619151027451064  0.3744354560710275  1.0000
  H   H311      1.0  0.14130724983620263  0.5866713670387685  0.38941777149070084  1.0000
  H   H312      1.0  0.1718502430776819  0.6007303160593314  0.3638121665387603  1.0000
  N   N11       1.0  0.6049871934364048  0.2171621532534747  0.7536339584535147  1.0000
  C   C329      1.0  0.5771539476425044  0.21913539577963248  0.7548164702039921  1.0000
  C   C330      1.0  0.5969688423804346  0.18544994108816798  0.7498427984361457  1.0000
  C   C331      1.0  0.6218352490404638  0.22879627137777575  0.7808160363380044  1.0000
  C   C332      1.0  0.6239631649917773  0.23522758375657232  0.7290667955158276  1.0000
  H   H313      1.0  0.5823487921820727  0.24277303557536042  0.7576817715440579  1.0000
  H   H314      1.0  0.562339929352337  0.20570014299252662  0.7731311947317685  1.0000
  H   H315      1.0  0.5639249301442948  0.21052699562965324  0.7346038030713353  1.0000
  H   H316      1.0  0.6174332418733278  0.18317705165676035  0.7489181180845098  1.0000
  H   H317      1.0  0.5829447035193738  0.17112908776620267  0.7681433201580307  1.0000
  H   H318      1.0  0.5845412251722139  0.17594060652650195  0.7293906016825383  1.0000
  H   H319      1.0  0.6429717593169822  0.22758202401344793  0.780652126116397  1.0000
  H   H320      1.0  0.6083551507337319  0.21535866127549882  0.7997803251346625  1.0000
  H   H321      1.0  0.6281937015294252  0.2526337723700593  0.7845259373288902  1.0000
  H   H322      1.0  0.6304379884440486  0.2592918858000687  0.7311007958576904  1.0000
  H   H323      1.0  0.6120994175338765  0.22682185606377941  0.7081418163965021  1.0000
  H   H324      1.0  0.645132321255701  0.23414356726649907  0.7275113143510571  1.0000
  N   N12       1.0  0.6701282476527646  0.5631289855487411  0.2568867474485471  1.0000
  C   C333      1.0  0.6569292191086266  0.5773082827712249  0.2388383242243824  1.0000
  C   C334      1.0  0.6460198774616391  0.5388195749748437  0.274291935266557  1.0000
  C   C335      1.0  0.6929119397371829  0.5858183516464044  0.2763225212766926  1.0000
  C   C336      1.0  0.6845770613362739  0.5504934675247282  0.23821119404861005  1.0000
  H   H325      1.0  0.6459630130992591  0.5871440726886231  0.25240613505950493  1.0000
  H   H326      1.0  0.6394064200364983  0.5606315006919584  0.2241708879906279  1.0000
  H   H327      1.0  0.6744268839542243  0.5956759878095255  0.22524990773513243  1.0000
  H   H328      1.0  0.6336172936584867  0.5472398835675191  0.2875648313622856  1.0000
  H   H329      1.0  0.6292947769146326  0.5203302733188286  0.2604899658637369  1.0000
  H   H330      1.0  0.6554419967399266  0.5287606767511818  0.2892904794309967  1.0000
  H   H331      1.0  0.6826595250477971  0.5953209861209338  0.29121537093580085  1.0000
  H   H332      1.0  0.7113380558402482  0.6047629320943132  0.2640707894174421  1.0000
  H   H333      1.0  0.7034367242436299  0.5758260604010925  0.2901243820142591  1.0000
  H   H334      1.0  0.6942624199843005  0.5391505916329677  0.25124144509678353  1.0000
  H   H335      1.0  0.7031312527793657  0.5681785605221791  0.2249498345884077  1.0000
  H   H336      1.0  0.6680253384474372  0.533213556513984  0.22327354951191644  1.0000
  N   N13       1.0  0.5701365546321353  0.5709087438302218  0.4257112086852916  1.0000
  C   C337      1.0  0.5616547414398227  0.5694877620293447  0.4564859277111343  1.0000
  C   C338      1.0  0.5445881566142061  0.5470089950866132  0.40957096652888225  1.0000
  C   C339      1.0  0.5965423975065168  0.5665780158686323  0.42309415764056085  1.0000
  C   C340      1.0  0.5777571229681984  0.6005494306823782  0.41365311779243413  1.0000
  H   H337      1.0  0.5806465370211965  0.5867027852327146  0.4694625986701894  1.0000
  H   H338      1.0  0.55466825417663  0.5470542840116333  0.46609878492008816  1.0000
  H   H339      1.0  0.5424260735948097  0.5735922941630045  0.4593380569187444  1.0000
  H   H340      1.0  0.5505230825119621  0.5469328927233393  0.3864208292938741  1.0000
  H   H341      1.0  0.5375863622089101  0.5243421852720871  0.41854934350552164  1.0000
  H   H342      1.0  0.5246040249356198  0.5501470930447618  0.41021306341286046  1.0000
  H   H343      1.0  0.6162804707214645  0.5841582185516121  0.43502628677941435  1.0000
  H   H344      1.0  0.603688255888831  0.5677445522015497  0.4001691526449983  1.0000
  H   H345      1.0  0.591468349054802  0.5442753321230066  0.43168887542301004  1.0000
  H   H346      1.0  0.5968373814140142  0.6192004787289092  0.42533653407748145  1.0000
  H   H347      1.0  0.5582269041201634  0.6044661283526657  0.41501664287439577  1.0000
  H   H348      1.0  0.5843896847638846  0.6024110354325412  0.39048535720728483  1.0000
  N   N14       1.0  0.5498073175711018  0.8903658886285568  0.9846139147123538  1.0000
  C   C341      1.0  0.5827954043809849  0.9048720099912034  0.9803748499698324  1.0000
  C   C342      1.0  0.5345258063980547  0.8780811885827761  0.9568188459657943  1.0000
  C   C343      1.0  0.542085570888243  0.9128260209959553  0.9952944618327646  1.0000
  C   C344      1.0  0.5398361360536685  0.8657909157253209  0.0060093476068936455  1.0000
  H   H349      1.0  0.5909894233525286  0.9235768972160007  0.9643934865194446  1.0000
  H   H350      1.0  0.5894515323646358  0.8885860658198782  0.9722542401201888  1.0000
  H   H351      1.0  0.5949907724519543  0.9144120771917887  0.0009439018042445292  1.0000
  H   H352      1.0  0.5095806408657431  0.8672564948594711  0.9591172929097161  1.0000
  H   H353      1.0  0.5414339801392664  0.8960792173684461  0.9402196554068148  1.0000
  H   H354      1.0  0.5396550741844574  0.8609431829158684  0.9480654852898402  1.0000
  H   H355      1.0  0.5174190804541241  0.9025312662518707  0.9987277549169132  1.0000
  H   H356      1.0  0.5488944838942401  0.9316010863973496  0.9796371494697742  1.0000
  H   H357      1.0  0.552865833456867  0.9223756339557868  0.01642496743818937  1.0000
  H   H358      1.0  0.5150215524921494  0.8543709413138139  0.009731143205286273  1.0000
  H   H359      1.0  0.5504406542819906  0.8743802872638934  0.0274297436761233  1.0000
  H   H360      1.0  0.5454058872136892  0.8484372906684414  0.9988980887860928  1.0000
  N   N15       1.0  0.6960587207629266  0.40825306683462814  0.40541103186937916  1.0000
  C   C345      1.0  0.671885124577065  0.38793565899874927  0.4255563995081947  1.0000
  C   C346      1.0  0.6857956106258997  0.3995932325521857  0.3753859618801022  1.0000
  C   C347      1.0  0.7234859117103065  0.4061719680554006  0.41020230507591543  1.0000
  C   C348      1.0  0.7030491331391768  0.4394719546604353  0.4103903395726187  1.0000
  H   H361      1.0  0.6784097151348532  0.3942647734215826  0.4484477075410536  1.0000
  H   H362      1.0  0.6661704586788073  0.36416569869859083  0.4226781563620858  1.0000
  H   H363      1.0  0.6507722179347522  0.38875355922568017  0.42197494711794636  1.0000
  H   H364      1.0  0.7032545749285853  0.4148029227958296  0.3595507133763415  1.0000
  H   H365      1.0  0.6805266648672332  0.3762380129008382  0.3706963277255954  1.0000
  H   H366      1.0  0.664949411704015  0.40069252418981754  0.3711685776613115  1.0000
  H   H367      1.0  0.7419990148456691  0.4213408032466409  0.3951998701914459  1.0000
  H   H368      1.0  0.7191383161214661  0.3829281519383792  0.40659642138734925  1.0000
  H   H369      1.0  0.7320075784753235  0.4128365361575851  0.43257692901799355  1.0000
  H   H370      1.0  0.721055985941995  0.4554528131451449  0.3954162400254147  1.0000
  H   H371      1.0  0.7107646097725573  0.4468811134440148  0.43283485428675583  1.0000
  H   H372      1.0  0.6828092085197516  0.4417198311496335  0.4069305229878248  1.0000
  N   N16       1.0  0.5715323205862041  0.5747079103608691  0.7379865773035227  1.0000
  C   C349      1.0  0.5904409074840946  0.5615457259799791  0.7459685232529734  1.0000
  C   C350      1.0  0.5910928781055039  0.6072698386743052  0.7326464154840117  1.0000
  C   C351      1.0  0.5503331803430705  0.5700858664118392  0.7618576334818248  1.0000
  C   C352      1.0  0.5543298580129977  0.5599938312799345  0.7116309601219355  1.0000
  H   H373      1.0  0.5765070399919802  0.5372044079729851  0.7512081069859432  1.0000
  H   H374      1.0  0.6042449439507018  0.5727478175245138  0.7653515267395778  1.0000
  H   H375      1.0  0.6063545262550311  0.5640795942996265  0.7282705246675947  1.0000
  H   H376      1.0  0.6075500505404634  0.6116978151758188  0.7148876552775534  1.0000
  H   H377      1.0  0.5776634132020589  0.6180056996799456  0.7266144586154678  1.0000
  H   H378      1.0  0.6042338914312536  0.6190296538463275  0.7522483866902671  1.0000
  H   H379      1.0  0.5357324297250647  0.5798453596083257  0.7567478499072993  1.0000
  H   H380      1.0  0.5626866909310505  0.5809146848192356  0.7819981055930688  1.0000
  H   H381      1.0  0.5352652002796845  0.5458206386883191  0.7667095300999094  1.0000
  H   H382      1.0  0.5391616683421895  0.5687789649228879  0.7054915491581445  1.0000
  H   H383      1.0  0.5398657496854483  0.5353184775116965  0.7147542937399122  1.0000
  H   H384      1.0  0.5695548107097902  0.563808839870553  0.6928758301518599  1.0000
  N   N17       1.0  0.540851100063294  0.40181171097761437  0.20238803758872614  1.0000
  C   C353      1.0  0.5532968742158617  0.39292202894564804  0.17787434540722127  1.0000
  C   C354      1.0  0.5203116916679157  0.37483770745611134  0.21942732090028857  1.0000
  C   C355      1.0  0.5240321968813626  0.4161647571366196  0.19129647313360476  1.0000
  C   C356      1.0  0.5657493271707742  0.42323990485033164  0.22088536158719985  1.0000
  H   H385      1.0  0.5686460916324881  0.4126402249506103  0.16425332052480945  1.0000
  H   H386      1.0  0.5350436484179064  0.37674321065444955  0.16352701100563033  1.0000
  H   H387      1.0  0.5663065365257755  0.3821251397416361  0.18526684216002495  1.0000
  H   H388      1.0  0.510412957703384  0.38065652210750855  0.23809614093677484  1.0000
  H   H389      1.0  0.5013358811101594  0.3581653196152486  0.2059956985002239  1.0000
  H   H390      1.0  0.5323806926171417  0.36351397299554594  0.22806177775698552  1.0000
  H   H391      1.0  0.5148103393829939  0.4238081417194446  0.209098969578978  1.0000
  H   H392      1.0  0.504780531232125  0.40041879645023404  0.1775583942704237  1.0000
  H   H393      1.0  0.5386724381054322  0.43602056204906586  0.17748559857893664  1.0000
  H   H394      1.0  0.5816024279935765  0.4439087918086014  0.2087030376874802  1.0000
  H   H395      1.0  0.5790983223323426  0.4132125994834109  0.22936694362109517  1.0000
  H   H396      1.0  0.5572791871543943  0.4302973019276618  0.2397840388133942  1.0000
  N   N18       1.0  0.31967023916331483  0.718740891100417  0.5614891028321589  1.0000
  C   C357      1.0  0.31282447626507986  0.7066598708604847  0.5912639347441604  1.0000
  C   C358      1.0  0.2939405632098385  0.721072340373818  0.5501949403420109  1.0000
  C   C359      1.0  0.32505966335742914  0.6984132863828965  0.5429504717360595  1.0000
  C   C360      1.0  0.3469244418521144  0.7488816974631618  0.5615241625130206  1.0000
  H   H397      1.0  0.2922773490082163  0.6839818766827218  0.5921047647521379  1.0000
  H   H398      1.0  0.30872414831943606  0.7214266076514153  0.6059365033320185  1.0000
  H   H399      1.0  0.331611601415028  0.7042780523116793  0.6003424952563278  1.0000
  H   H400      1.0  0.2987500580249532  0.7311021808310094  0.5281716314507153  1.0000
  H   H401      1.0  0.2732299546034195  0.6986767815294394  0.548749355669563  1.0000
  H   H402      1.0  0.28863657728307585  0.735498518465408  0.5641431093438406  1.0000
  H   H403      1.0  0.3055273358725638  0.6751343750259058  0.5433908924875634  1.0000
  H   H404      1.0  0.3451145125917372  0.6971495974488661  0.5500998620965011  1.0000
  H   H405      1.0  0.32886519293034006  0.7060045788965422  0.5200603395979018  1.0000
  H   H406      1.0  0.35293766208273036  0.7584484930861035  0.5393298152847561  1.0000
  H   H407      1.0  0.3668460556902547  0.7481989239649417  0.570072950557547  1.0000
  H   H408      1.0  0.3435687939744866  0.7650431584839692  0.574821411403788  1.0000
  N   N19       1.0  0.2824270856550386  0.7171852059744742  0.8725366678929023  1.0000
  C   C361      1.0  0.2493800919699765  0.7009883136020563  0.8768676721552396  1.0000
  C   C362      1.0  0.2974187974961738  0.7300586045063986  0.9002701528837446  1.0000
  C   C363      1.0  0.2908290012013985  0.7415719570401167  0.851288007100094  1.0000
  C   C364      1.0  0.29197432092212905  0.696070308755256  0.8618102729460794  1.0000
  H   H409      1.0  0.2371617655632456  0.6906355439443119  0.8564933634288527  1.0000
  H   H410      1.0  0.2412938413348749  0.7159803548614332  0.8855549884439365  1.0000
  H   H411      1.0  0.24237148600012193  0.6824210919632818  0.8926219836367296  1.0000
  H   H412      1.0  0.29143788815301086  0.712126426378205  0.9167132217142435  1.0000
  H   H413      1.0  0.32240738024578686  0.7425690654270584  0.8980600428842751  1.0000
  H   H414      1.0  0.29040802342924643  0.7457834962512583  0.9092677889318099  1.0000
  H   H415      1.0  0.31564068337966356  0.7543780443683196  0.8476185054407135  1.0000
  H   H416      1.0  0.28374817678948305  0.7577359162057223  0.8588637091639677  1.0000
  H   H417      1.0  0.2797968412485101  0.7324800448683592  0.8301437643127809  1.0000
  H   H418      1.0  0.3167483740045518  0.7074186492405538  0.858164572265963  1.0000
  H   H419      1.0  0.2805977555638689  0.6853633262071014  0.8411856539996793  1.0000
  H   H420      1.0  0.2859409200075295  0.6774106657573936  0.8774838069575047  1.0000
  N   N20       1.0  0.7709187195602971  0.25740684651872686  0.3101311547227456  1.0000
  C   C365      1.0  0.7928006157708096  0.2719082770135721  0.33368613090384563  1.0000
  C   C366      1.0  0.7863831618647428  0.2683944871449334  0.2819956448056782  1.0000
  C   C367      1.0  0.7465093308256779  0.2647448944446498  0.3129069204785727  1.0000
  C   C368      1.0  0.7579608532323769  0.22449564230149546  0.3119197245057926  1.0000
  H   H421      1.0  0.7817954088119542  0.2640057883567453  0.3551984546854253  1.0000
  H   H422      1.0  0.8030758270093389  0.2967898434736908  0.3329880448518297  1.0000
  H   H423      1.0  0.8114684051091327  0.266729513990973  0.3321493666823219  1.0000
  H   H424      1.0  0.7704715524720199  0.25786625816359376  0.2637376094080719  1.0000
  H   H425      1.0  0.7966410229899937  0.29315537158320015  0.27977092271064247  1.0000
  H   H426      1.0  0.8046244565612195  0.2627810813562694  0.2789938788398603  1.0000
  H   H427      1.0  0.7340362805315526  0.25637751302593165  0.333734273515705  1.0000
  H   H428      1.0  0.7295247094144869  0.253996092614192  0.29549738824120825  1.0000
  H   H429      1.0  0.7553494361714598  0.2893660401507886  0.3116672418150729  1.0000
  H   H430      1.0  0.7416532007813745  0.2129952282305613  0.2943002305273358  1.0000
  H   H431      1.0  0.7454913985833319  0.21516432539625902  0.3325832859590473  1.0000
  H   H432      1.0  0.7756234419680134  0.21796527929747928  0.3097205397012319  1.0000
  N   N21       1.0  0.6527737080256611  0.21753298840095384  0.9406701397315728  1.0000
  C   C369      1.0  0.6199981802427611  0.19631275340466597  0.9405068158484654  1.0000
  C   C370      1.0  0.6651298640192548  0.2162574626372576  0.9690522282386798  1.0000
  C   C371      1.0  0.6582885216971126  0.24826163725947445  0.9354722374803784  1.0000
  C   C372      1.0  0.6674129053533115  0.2090938377388395  0.9177639414887383  1.0000
  H   H433      1.0  0.6099242699539363  0.19597032721705343  0.9192201567493249  1.0000
  H   H434      1.0  0.6079860714899122  0.20230806848769006  0.9569332534106981  1.0000
  H   H435      1.0  0.6150242733439718  0.17310944670346723  0.9454377795796185  1.0000
  H   H436      1.0  0.6896418581339032  0.23275426031128998  0.9704273387158316  1.0000
  H   H437      1.0  0.6534963864565976  0.22108496030194766  0.9869755212897949  1.0000
  H   H438      1.0  0.6621901909717187  0.1935699611148392  0.9731840965860284  1.0000
  H   H439      1.0  0.6473341252262645  0.2549777244499208  0.9525612400761998  1.0000
  H   H440      1.0  0.6489641724453407  0.2498857150745747  0.9143417541876961  1.0000
  H   H441      1.0  0.6828142088137854  0.26499657258049925  0.9354322136130427  1.0000
  H   H442      1.0  0.6921696933061167  0.2247918164762711  0.9168983539164693  1.0000
  H   H443      1.0  0.6580410659581682  0.2089503167345867  0.896087843752938  1.0000
  H   H444      1.0  0.6637962440931581  0.18606089718025934  0.9214725432782682  1.0000
  N   N22       1.0  0.6553331216174004  0.2529970723994129  0.5558420043122897  1.0000
  C   C373      1.0  0.6855535728355365  0.26335092408552185  0.5432127758750821  1.0000
  C   C374      1.0  0.633283622923096  0.2249595943503715  0.5414721622652642  1.0000
  C   C375      1.0  0.6466591534054963  0.2762116531802184  0.5514488852101793  1.0000
  C   C376      1.0  0.6557228791614677  0.24728412226493768  0.587062949987443  1.0000
  H   H445      1.0  0.6924467964895629  0.24603406328858998  0.5457547432822191  1.0000
  H   H446      1.0  0.7029514592422825  0.28434281577780884  0.5536657926052488  1.0000
  H   H447      1.0  0.6858849511986994  0.26794002090530156  0.5196608374578104  1.0000
  H   H448      1.0  0.610033716337412  0.21700457022459646  0.5496698072429544  1.0000
  H   H449      1.0  0.6329658308831437  0.22837518942569995  0.517786972600684  1.0000
  H   H450      1.0  0.6386214404944488  0.20662018059039894  0.544738869344207  1.0000
  H   H451      1.0  0.6245562639648792  0.26969123306559545  0.5618796555095109  1.0000
  H   H452      1.0  0.6442294427990571  0.2796701642515868  0.5280680626553523  1.0000
  H   H453      1.0  0.6634931094722173  0.29820099629957675  0.5607188811114285  1.0000
  H   H454      1.0  0.6330403933244345  0.2389208015860944  0.597050868663488  1.0000
  H   H455      1.0  0.6718437121798095  0.2680471341248908  0.5987261807872188  1.0000
  H   H456      1.0  0.6623867314355769  0.22999394188570074  0.5911195166459131  1.0000
  N   N23       1.0  0.5818842085879602  0.959060142040326  0.17426440986287112  1.0000
  C   C377      1.0  0.5955557641695608  0.9411879156143012  0.16417562670034447  1.0000
  C   C378      1.0  0.606013496918403  0.9899812756498195  0.18081780623435484  1.0000
  C   C379      1.0  0.5639173127755555  0.9450897059250069  0.20061360837841272  1.0000
  C   C380      1.0  0.5619962371069301  0.9597723953737766  0.1516419396053826  1.0000
  H   H457      1.0  0.6095474099906877  0.951135947780474  0.1444384531694111  1.0000
  H   H458      1.0  0.5779615729363023  0.9177240617128237  0.15902654196577226  1.0000
  H   H459      1.0  0.6103164366392534  0.9398606934391734  0.18105923776420696  1.0000
  H   H460      1.0  0.6194074915178895  0.0016908267877093763  0.16121518861794756  1.0000
  H   H461      1.0  0.5967116463148326  0.00372648668727682  0.1900382343996115  1.0000
  H   H462      1.0  0.6220127363460494  0.9899344700662012  0.1969749921343735  1.0000
  H   H463      1.0  0.5537027149629253  0.9581328475605639  0.20949973982586606  1.0000
  H   H464      1.0  0.5779431561092319  0.9432053897172854  0.21776804299003197  1.0000
  H   H465      1.0  0.5452570018894682  0.9220144066529914  0.19629176673491824  1.0000
  H   H466      1.0  0.5746562694985182  0.969958221771056  0.13127736501897078  1.0000
  H   H467      1.0  0.5511999396772559  0.9729262189492718  0.15870310248647976  1.0000
  H   H468      1.0  0.5434368038328536  0.9367077800087438  0.14641408347140217  1.0000
  N   N24       1.0  0.8601574810614792  0.49679224355356916  0.30118926799261364  1.0000
  C   C381      1.0  0.8573138065872515  0.469972623928056  0.3159423396861714  1.0000
  C   C382      1.0  0.8673382893875676  0.5208898443659773  0.32246810134427106  1.0000
  C   C383      1.0  0.831391024095568  0.48884974867940156  0.2868671282575351  1.0000
  C   C384      1.0  0.8846551914896793  0.5074385638141684  0.27943493384477813  1.0000
  H   H469      1.0  0.8532029797634434  0.4517973294421877  0.3003990612853214  1.0000
  H   H470      1.0  0.8384351981083662  0.46048362086656747  0.33173544080637474  1.0000
  H   H471      1.0  0.8780789111049859  0.47532302596683895  0.3280277262836537  1.0000
  H   H472      1.0  0.8708454652929996  0.5418482507392721  0.3118996794594769  1.0000
  H   H473      1.0  0.8488331521752617  0.5142427176565914  0.33850679097830005  1.0000
  H   H474      1.0  0.8881140182008473  0.5265252101976698  0.3347792068057258  1.0000
  H   H475      1.0  0.8124592620314016  0.4808596098454522  0.3027935835363081  1.0000
  H   H476      1.0  0.8251920801760306  0.47062645335797954  0.2707692088703405  1.0000
  H   H477      1.0  0.8326714478832876  0.5085255628996753  0.27546778020208423  1.0000
  H   H478      1.0  0.8871276317229303  0.5272541207606334  0.2673240898695732  1.0000
  H   H479      1.0  0.8804722174151448  0.4895798092668625  0.2634241654124893  1.0000
  H   H480      1.0  0.9067157542530925  0.5141752941311329  0.2897809116322612  1.0000
  N   N25       1.0  0.5991884768125336  0.2851195388780843  0.12473328004392108  1.0000
  C   C385      1.0  0.5903843348872942  0.2557233612869663  0.11139205742571891  1.0000
  C   C386      1.0  0.6091984138751301  0.28559741946376127  0.15468277231456878  1.0000
  C   C387      1.0  0.5730797220379866  0.29002621962803626  0.12496231990247862  1.0000
  C   C388      1.0  0.624105089498095  0.3092940707654348  0.10788446597351842  1.0000
  H   H481      1.0  0.5824508559189553  0.2546088746627723  0.08885108334803357  1.0000
  H   H482      1.0  0.5716634966332134  0.23692464868795604  0.12356729014492954  1.0000
  H   H483      1.0  0.6096060723085036  0.2513371928617238  0.1105421549464503  1.0000
  H   H484      1.0  0.6161833638619756  0.3076693673841938  0.1651607511422294  1.0000
  H   H485      1.0  0.5908551738273619  0.2678573056350084  0.1681295430146483  1.0000
  H   H486      1.0  0.6287976749462468  0.2817991639897286  0.1553933742791875  1.0000
  H   H487      1.0  0.5654838295573181  0.29063996159790667  0.10269670211684834  1.0000
  H   H488      1.0  0.5787474116832431  0.31175465207360703  0.1353321234049764  1.0000
  H   H489      1.0  0.5534839579858076  0.2718534167733787  0.13680434381189774  1.0000
  H   H490      1.0  0.6173653716122731  0.3094518385538105  0.0851215789712585  1.0000
  H   H491      1.0  0.6443229575823315  0.30652233289290715  0.10746001958800075  1.0000
  H   H492      1.0  0.6310033839907152  0.3318334634345443  0.11718633731423414  1.0000
  N   N26       1.0  0.42010914686132067  0.8360412000681533  0.7634905749365485  1.0000
  C   C389      1.0  0.3996723799323743  0.820979142270085  0.7882473527782877  1.0000
  C   C390      1.0  0.4355449421218783  0.8192364525659928  0.755447000137141  1.0000
  C   C391      1.0  0.4426767637535569  0.8670232354124959  0.7717213161909823  1.0000
  C   C392      1.0  0.4027320002035594  0.8369922082160968  0.7385493635842361  1.0000
  H   H493      1.0  0.3876895257326633  0.8330839521305567  0.7950157645993196  1.0000
  H   H494      1.0  0.41248958677688086  0.8201657495026793  0.8073274792157398  1.0000
  H   H495      1.0  0.3824642504751742  0.797442527538619  0.7829550556348144  1.0000
  H   H496      1.0  0.4516265170758125  0.8302654061886175  0.7371814380208602  1.0000
  H   H497      1.0  0.4485985329818085  0.8177571423173061  0.7738610506598506  1.0000
  H   H498      1.0  0.41927237509158044  0.7958672033092757  0.7487479605478676  1.0000
  H   H499      1.0  0.4562325535047411  0.8671504220010716  0.7904916269764259  1.0000
  H   H500      1.0  0.431857019293868  0.8803734495770673  0.7779635430244323  1.0000
  H   H501      1.0  0.4586114991433285  0.8790148925976525  0.7536018154631594  1.0000
  H   H502      1.0  0.38546405704025916  0.813996910432102  0.731692708284596  1.0000
  H   H503      1.0  0.41783243075657606  0.8481766052012989  0.7195914316989352  1.0000
  H   H504      1.0  0.3909179248515059  0.8496907569070454  0.7436864363455961  1.0000
  N   N27       1.0  0.1547280998567231  0.5488714063697592  0.5397191612977783  1.0000
  C   C393      1.0  0.13921613789164403  0.5157118440648263  0.541222527324913  1.0000
  C   C394      1.0  0.16986309437097097  0.5615053900405267  0.5674982075736424  1.0000
  C   C395      1.0  0.1324198367312098  0.5585264620730551  0.5339909341655106  1.0000
  C   C396      1.0  0.1773734282766546  0.5597057087394585  0.5161394987055685  1.0000
  H   H505      1.0  0.1552495861224266  0.5076788891110529  0.5464154613729221  1.0000
  H   H506      1.0  0.12802448392013946  0.5053013840687317  0.5204923557766712  1.0000
  H   H507      1.0  0.12155464128048617  0.5067879960342696  0.5584662966565416  1.0000
  H   H508      1.0  0.18127109027253818  0.5864633826967075  0.5675264400080859  1.0000
  H   H509      1.0  0.1535470021137319  0.5530389470883218  0.5858988960824411  1.0000
  H   H510      1.0  0.18732344240781343  0.555184523149287  0.5721537505465315  1.0000
  H   H511      1.0  0.11496503209566404  0.5508525047127645  0.5513472659035253  1.0000
  H   H512      1.0  0.12058403039675286  0.5493558894301653  0.5131507789616978  1.0000
  H   H513      1.0  0.14338470209907633  0.583440794247561  0.5324246161681004  1.0000
  H   H514      1.0  0.18931975905256843  0.5846260578252404  0.5143269863325675  1.0000
  H   H515      1.0  0.16674905812159882  0.5506530960469794  0.49484196586149365  1.0000
  H   H516      1.0  0.19479838056970683  0.5531026750844886  0.519701952769594  1.0000
  N   N28       1.0  0.8548916135671405  0.34149139507335224  0.07939371194192622  1.0000
  C   C397      1.0  0.8583601243185341  0.3501489090905742  0.04857265667938436  1.0000
  C   C398      1.0  0.883709481174691  0.3453227704466819  0.09015811131919958  1.0000
  C   C399      1.0  0.8310816652366477  0.30972902145445047  0.08289295925658595  1.0000
  C   C400      1.0  0.8465342596431608  0.3608339945890799  0.09607471156789592  1.0000
  H   H517      1.0  0.8645842050205477  0.33596681378507276  0.03529622152755229  1.0000
  H   H518      1.0  0.8764802920193191  0.37395946800549557  0.04537575934757808  1.0000
  H   H519      1.0  0.837182455918162  0.3479212354845688  0.039714315770627034  1.0000
  H   H520      1.0  0.8817194445950536  0.3381175455217972  0.11306662381324417  1.0000
  H   H521      1.0  0.8913524065792973  0.3319113215695174  0.07749155168596057  1.0000
  H   H522      1.0  0.9019089658904452  0.3691753248448578  0.08897078617348468  1.0000
  H   H523      1.0  0.8280277442965746  0.3027679931759523  0.10606980757853397  1.0000
  H   H524      1.0  0.8367841072816884  0.2944128060166711  0.07091494339604228  1.0000
  H   H525      1.0  0.8089417745222901  0.30586787348515493  0.07501003759191796  1.0000
  H   H526      1.0  0.8640202721311344  0.3849572941862122  0.09400997433515196  1.0000
  H   H527      1.0  0.8439601232346636  0.35507286850070496  0.11948737702798379  1.0000
  H   H528      1.0  0.8247989866001605  0.35839088967067784  0.08865622883434815  1.0000
  N   N29       1.0  0.8573739896617182  0.38732805957110256  0.588248845191299  1.0000
  C   C401      1.0  0.8670763592338461  0.412911216743462  0.5680978787914719  1.0000
  C   C402      1.0  0.8310438161019754  0.36041321087716766  0.5763513084710606  1.0000
  C   C403      1.0  0.8493482956999936  0.394980572511031  0.6164652034889232  1.0000
  C   C404      1.0  0.8822460149888103  0.3809832435192203  0.5922279922169916  1.0000
  H   H529      1.0  0.8859663317658505  0.43388461328804756  0.5772373951482529  1.0000
  H   H530      1.0  0.8484859344836947  0.4175136055497204  0.5634050214200051  1.0000
  H   H531      1.0  0.875272421697081  0.40883504340341914  0.5471452631500902  1.0000
  H   H532      1.0  0.8234987461858193  0.3407515789899583  0.5910996355242293  1.0000
  H   H533      1.0  0.8117052816065258  0.3642526181167047  0.5731735508064605  1.0000
  H   H534      1.0  0.8366195606246691  0.35420628760052747  0.5550721885699943  1.0000
  H   H535      1.0  0.8425998633360072  0.3764022972646046  0.6324077173010604  1.0000
  H   H536      1.0  0.8304477682460024  0.3996712559028546  0.6145023010133692  1.0000
  H   H537      1.0  0.8689029753152878  0.41534260068136786  0.6258056015654792  1.0000
  H   H538      1.0  0.9021936419268648  0.4006614797257061  0.6017182071015458  1.0000
  H   H539      1.0  0.8895275252234034  0.375723847126253  0.5713931304527122  1.0000
  H   H540      1.0  0.8756930051683645  0.36160124981575803  0.6070616315296339  1.0000
  N   N30       1.0  0.08375778365107545  0.5014578481230858  0.7096526408907142  1.0000
  C   C405      1.0  0.10233707411121018  0.5334534086137982  0.7175734511342196  1.0000
  C   C406      1.0  0.05554114279794353  0.4873196914767963  0.7268923046715292  1.0000
  C   C407      1.0  0.1009036982609881  0.4858468427251242  0.7153384374521792  1.0000
  C   C408      1.0  0.07625333683885382  0.49912950404599776  0.6786856540043352  1.0000
  H   H541      1.0  0.12383490249167939  0.5445411082691396  0.7049554295633483  1.0000
  H   H542      1.0  0.10874326096842157  0.5360662427255358  0.7407602998986054  1.0000
  H   H543      1.0  0.09026184645118773  0.5460642901879403  0.7135529043978798  1.0000
  H   H544      1.0  0.04107067465835068  0.46311004197092226  0.7212718586530199  1.0000
  H   H545      1.0  0.06024871268958898  0.48857235947839966  0.7503912270955849  1.0000
  H   H546      1.0  0.0418223014728103  0.4983087007345776  0.7229278429123468  1.0000
  H   H547      1.0  0.08720259899993521  0.4614142000153727  0.7107167622308573  1.0000
  H   H548      1.0  0.10824157377379562  0.4883473217860251  0.7382283514358302  1.0000
  H   H549      1.0  0.12173029499712884  0.4951209267587708  0.701763009709816  1.0000
  H   H550      1.0  0.0640840295804006  0.511382566455572  0.6733494209196192  1.0000
  H   H551      1.0  0.06133146652753174  0.47532619488889255  0.6724056419292387  1.0000
  H   H552      1.0  0.09686500443230162  0.5083365880589154  0.6648088058667885  1.0000
  N   N31       1.0  0.5656276050557063  0.906067840382732  0.48104543357177026  1.0000
  C   C409      1.0  0.5563579272821414  0.8834265479321601  0.5043614060787878  1.0000
  C   C410      1.0  0.5986427662462228  0.9210223266165772  0.4767932399268927  1.0000
  C   C411      1.0  0.5571163510485995  0.9287079197673114  0.4890811404949618  1.0000
  C   C412      1.0  0.5503556361160866  0.8912002506335712  0.453950254045042  1.0000
  H   H553      1.0  0.5315345483657679  0.8716987030175148  0.50812831161364  1.0000
  H   H554      1.0  0.5669842191748498  0.8939413973417328  0.5252979664242732  1.0000
  H   H555      1.0  0.5625033150691466  0.8659944806362306  0.499230128763835  1.0000
  H   H556      1.0  0.6062986837194513  0.9382337722100422  0.45931210390884014  1.0000
  H   H557      1.0  0.6108244909904592  0.9325502398388912  0.49683265323383746  1.0000
  H   H558      1.0  0.6058813687141152  0.9045902324426097  0.47069604883282196  1.0000
  H   H559      1.0  0.5636597799622591  0.9461850828584933  0.47201007719748483  1.0000
  H   H560      1.0  0.5676412222662612  0.9400167063474625  0.5097572013153966  1.0000
  H   H561      1.0  0.5323582901873829  0.9181441480657048  0.4920512168479641  1.0000
  H   H562      1.0  0.5253958407678746  0.8796735801791231  0.4564390204086586  1.0000
  H   H563      1.0  0.5562749720809289  0.8740435302395305  0.4470021654024324  1.0000
  H   H564      1.0  0.5564570149255427  0.9077143960263208  0.4359898787371701  1.0000
  N   N32       1.0  0.7338334506923024  0.4545060162877912  0.9318447097550713  1.0000
  C   C413      1.0  0.763789912857384  0.45686911991853074  0.929825889814903  1.0000
  C   C414      1.0  0.7176693227393683  0.44274089310049813  0.9043856554993858  1.0000
  C   C415      1.0  0.7376013843064325  0.48456171309852997  0.9373130423469898  1.0000
  C   C416      1.0  0.7163401813738871  0.43390102918753914  0.955709774024696  1.0000
  H   H565      1.0  0.7618743858265733  0.4346387480162999  0.925674557124089  1.0000
  H   H566      1.0  0.7769260723455881  0.46610811766896953  0.9499737999530377  1.0000
  H   H567      1.0  0.7773574584493913  0.4719547873399052  0.9118123699540854  1.0000
  H   H568      1.0  0.6949547835056875  0.44056793556940094  0.9050458727465228  1.0000
  H   H569      1.0  0.7301675134648972  0.45799362408225425  0.8860641361529672  1.0000
  H   H570      1.0  0.7144928470137698  0.4201876575916621  0.8992546103699616  1.0000
  H   H571      1.0  0.7496826179643241  0.49424181484992424  0.9578672288899814  1.0000
  H   H572      1.0  0.7154435031797621  0.4836688242878118  0.9386713732595243  1.0000
  H   H573      1.0  0.7507435104560938  0.5006547869618465  0.9196596471054803  1.0000
  H   H574      1.0  0.7277796145229051  0.44221506084101275  0.9768120462835903  1.0000
  H   H575      1.0  0.7129987856274529  0.4110068740134058  0.9521883018804369  1.0000
  H   H576      1.0  0.693549506500583  0.4314395775384567  0.9577824190212664  1.0000
  N   N33       1.0  0.1497082977562254  0.5413643181390327  0.05217182089691809  1.0000
  C   C417      1.0  0.13073884283828607  0.5245773968135213  0.07725993260199318  1.0000
  C   C418      1.0  0.16207017278453573  0.5738939016188448  0.05671895880017576  1.0000
  C   C419      1.0  0.13141434315457068  0.5320985142039768  0.02560629054917387  1.0000
  C   C420      1.0  0.1747810399122549  0.5350339115883939  0.04911071253799933  1.0000
  H   H577      1.0  0.12127946686623492  0.4999084564728116  0.07487688486140677  1.0000
  H   H578      1.0  0.11147249673198312  0.5286302645635894  0.0802749684418176  1.0000
  H   H579      1.0  0.14397021444617386  0.531242685915143  0.09763909838198624  1.0000
  H   H580      1.0  0.17643874705645501  0.5871629423338949  0.038126927846726284  1.0000
  H   H581      1.0  0.1438182509353887  0.5795431819520916  0.05913492539735727  1.0000
  H   H582      1.0  0.17618571625239632  0.581742610264248  0.07649760537902933  1.0000
  H   H583      1.0  0.14521093314955746  0.5444262685908559  0.00629690039277886  1.0000
  H   H584      1.0  0.11248491872237665  0.5369003197265202  0.02692644428233387  1.0000
  H   H585      1.0  0.12162768150710845  0.507658633609487  0.021453941006912846  1.0000
  H   H586      1.0  0.1896200246838411  0.5426353924730637  0.06841490158543242  1.0000
  H   H587      1.0  0.18914983806411834  0.5467340547252102  0.029943322358407024  1.0000
  H   H588      1.0  0.16634784085190302  0.5106022603318188  0.04641545258342731  1.0000
  N   N34       1.0  0.5564610654706654  0.973726094220284  0.7003478613633148  1.0000
  C   C421      1.0  0.57929406959342  0.0060353618782966745  0.7009556904082593  1.0000
  C   C422      1.0  0.5388216360808051  0.9653448411190492  0.727548081115239  1.0000
  C   C423      1.0  0.5716179599212958  0.9557737143539198  0.6973212032150622  1.0000
  C   C424      1.0  0.5360804955679134  0.9676049322749452  0.6756353820313288  1.0000
  H   H589      1.0  0.594047229081491  0.01297244418959087  0.6814171102184761  1.0000
  H   H590      1.0  0.594176287602369  0.01150375656491942  0.7200171491760446  1.0000
  H   H591      1.0  0.568671149437231  0.020332480990252533  0.7023828584872928  1.0000
  H   H592      1.0  0.5210236867805808  0.9412169993836773  0.7275355059166249  1.0000
  H   H593      1.0  0.5534669605987484  0.9689089624393066  0.7466019777288609  1.0000
  H   H594      1.0  0.5275839136955668  0.9788691021265363  0.7310056908153907  1.0000
  H   H595      1.0  0.5857286286534832  0.9618139554129379  0.6773934601993847  1.0000
  H   H596      1.0  0.554909572949306  0.9313445253171908  0.696184460085912  1.0000
  H   H597      1.0  0.5865087926056048  0.9591303917935385  0.7160139750695881  1.0000
  H   H598      1.0  0.51831493790314  0.943469481688382  0.6748996016563147  1.0000
  H   H599      1.0  0.5485702257845858  0.9729323345029681  0.6547181594640078  1.0000
  H   H600      1.0  0.5244164302608229  0.9809380931752306  0.6769677217849422  1.0000
  N   N35       1.0  0.16731851526392696  0.41906148803161064  0.1435209030099877  1.0000
  C   C425      1.0  0.18947085427918753  0.4210699187833175  0.1650467219931479  1.0000
  C   C426      1.0  0.14057348874556014  0.4166948593531408  0.1584766619329983  1.0000
  C   C427      1.0  0.15802680007464712  0.3923038876282581  0.125258801309537  1.0000
  C   C428      1.0  0.18127849907796317  0.4462881685514374  0.1252071747778825  1.0000
  H   H601      1.0  0.21024433798106337  0.4235937304106303  0.15446672190284194  1.0000
  H   H602      1.0  0.17993498067524824  0.4008639032239317  0.17920947706521903  1.0000
  H   H603      1.0  0.19695977447386748  0.44103428962518204  0.17921610301859794  1.0000
  H   H604      1.0  0.1235438558055113  0.4155321734735797  0.14286303339970846  1.0000
  H   H605      1.0  0.12935164938333335  0.3964437882664451  0.17256263389577584  1.0000
  H   H606      1.0  0.14672916511671164  0.43661834276417827  0.17231356288913813  1.0000
  H   H607      1.0  0.17770737918758792  0.3934511652246279  0.11363946189175633  1.0000
  H   H608      1.0  0.14138471239887593  0.39025746799043126  0.10874535744656993  1.0000
  H   H609      1.0  0.1473607716395086  0.37130981539142754  0.1383862513151494  1.0000
  H   H610      1.0  0.18872860016956786  0.46671584440971614  0.1384613925691841  1.0000
  H   H611      1.0  0.16515312123507797  0.4460266293764856  0.109029595633934  1.0000
  H   H612      1.0  0.20165828582006887  0.4490275842275292  0.11362717416680376  1.0000
  N   N36       1.0  0.7795222467023207  0.160274514818819  0.7185241676408048  1.0000
  C   C429      1.0  0.7558524069482627  0.13466805720013475  0.7022375567415841  1.0000
  C   C430      1.0  0.7677995587385789  0.1612512720290598  0.7474834712013032  1.0000
  C   C431      1.0  0.7881891773435971  0.18864894607787835  0.7030065809496675  1.0000
  C   C432      1.0  0.8062142472761369  0.15655331249170698  0.7215024630747275  1.0000
  H   H613      1.0  0.7638595160985006  0.13293961858411518  0.6803288548414379  1.0000
  H   H614      1.0  0.7354293912980275  0.13685375099720923  0.6995103771055649  1.0000
  H   H615      1.0  0.7482479574773141  0.11293871128333628  0.7136794796428478  1.0000
  H   H616      1.0  0.7848761134160851  0.18045575527421712  0.7604170467125235  1.0000
  H   H617      1.0  0.7478323024511666  0.16424334219100664  0.7458663905573527  1.0000
  H   H618      1.0  0.7606962610738507  0.140152521151806  0.7598479685732266  1.0000
  H   H619      1.0  0.7971987880433792  0.1888788314348068  0.6810410356497715  1.0000
  H   H620      1.0  0.8057733387764564  0.20847331653093043  0.7149267225774677  1.0000
  H   H621      1.0  0.7686277242155413  0.19232712288752624  0.700582323044447  1.0000
  H   H622      1.0  0.8244070867449911  0.1755256458775086  0.7337927618798005  1.0000
  H   H623      1.0  0.8157255122408898  0.15579848276937586  0.7000428431791874  1.0000
  H   H624      1.0  0.8004545008993056  0.13538513670344762  0.7331840907409316  1.0000
  N   N37       1.0  0.32716924549536913  0.4394060003867821  0.6217129952135779  1.0000
  C   C433      1.0  0.34048020196102635  0.46253748561645186  0.5988434757806083  1.0000
  C   C434      1.0  0.32022199071133234  0.4520961820562153  0.6473475699573826  1.0000
  C   C435      1.0  0.34891002736913485  0.4296227672178898  0.62958507231417  1.0000
  C   C436      1.0  0.29911797336426926  0.4134472816988573  0.6109907343855909  1.0000
  H   H625      1.0  0.32487796902736044  0.470729500456529  0.5924045841418777  1.0000
  H   H626      1.0  0.34612345684810075  0.45385652861280723  0.5791577522302322  1.0000
  H   H627      1.0  0.36169210545715497  0.4824251944652202  0.6062202827179811  1.0000
  H   H628      1.0  0.30426075759829724  0.4602268060665565  0.642044499521924  1.0000
  H   H629      1.0  0.3097594808408839  0.43518781124860745  0.6649641990728871  1.0000
  H   H630      1.0  0.3409577555129553  0.4715573461772464  0.656187015984725  1.0000
  H   H631      1.0  0.3704982250746851  0.44878570482805435  0.6374760155667581  1.0000
  H   H632      1.0  0.35476027240532826  0.4200027384051238  0.6107049226578665  1.0000
  H   H633      1.0  0.3398516865844475  0.41224484687195134  0.646883294083865  1.0000
  H   H634      1.0  0.30355865478558064  0.40339157720019575  0.5915873883387262  1.0000
  H   H635      1.0  0.28229245337713266  0.4201943092524601  0.60487465838868  1.0000
  H   H636      1.0  0.28844986240489573  0.39550691482164185  0.6276992438236466  1.0000
  N   N38       1.0  0.5610002318698342  0.42708003050002297  0.89534623600631  1.0000
  C   C437      1.0  0.5412150533635252  0.4273226634841843  0.9185957588452422  1.0000
  C   C438      1.0  0.5513651490295576  0.4329792847626173  0.8672613248344175  1.0000
  C   C439      1.0  0.5591677674268745  0.3974293792602933  0.8945878899286214  1.0000
  C   C440      1.0  0.5924186416363635  0.45066582502193064  0.9009424704257377  1.0000
  H   H637      1.0  0.547857034686617  0.4226387673698053  0.9400079251105161  1.0000
  H   H638      1.0  0.5172505130958925  0.40995909626053123  0.9149637648432988  1.0000
  H   H639      1.0  0.5424797765649235  0.44956492491941447  0.9199560166640653  1.0000
  H   H640      1.0  0.5664002684909457  0.43365436946632  0.8494028800859041  1.0000
  H   H641      1.0  0.5279317680076552  0.4154229540203608  0.8619732476353348  1.0000
  H   H642      1.0  0.5524284766751377  0.4551863473012822  0.867082010905029  1.0000
  H   H643      1.0  0.5673800596741045  0.3927280248292376  0.9150687733893442  1.0000
  H   H644      1.0  0.5733704748353131  0.3962941027596854  0.876834344209431  1.0000
  H   H645      1.0  0.5356789209634601  0.378908229218716  0.891174103094985  1.0000
  H   H646      1.0  0.6080750124153153  0.44978530322236726  0.8847754698942749  1.0000
  H   H647      1.0  0.5999736993612812  0.4479809882391425  0.9226301774366407  1.0000
  H   H648      1.0  0.5952512389865553  0.4736005993882619  0.8996824401024875  1.0000
  N   N39       1.0  0.044727104300971605  0.5000113777511249  0.8720134441649532  1.0000
  C   C441      1.0  0.056153286535327744  0.5018150254133699  0.9015822694657678  1.0000
  C   C442      1.0  0.03054611356168824  0.5189518028210754  0.869855615845813  1.0000
  C   C443      1.0  0.022169212976134823  0.46847418338946667  0.8654501390924342  1.0000
  C   C444      1.0  0.07010574040902198  0.5108585913615274  0.8512158763347347  1.0000
  H   H649      1.0  0.07369024654102499  0.5252232345980792  0.9070311659669487  1.0000
  H   H650      1.0  0.06663442474630077  0.48748517220655213  0.9041888509739952  1.0000
  H   H651      1.0  0.03770455008043183  0.49437759428270145  0.9179052684783123  1.0000
  H   H652      1.0  0.04685865037442238  0.5428645629194226  0.8749415068793732  1.0000
  H   H653      1.0  0.021840623130910296  0.5183420502013315  0.8477735616613583  1.0000
  H   H654      1.0  0.011191507212537699  0.511397072204948  0.8851767372593767  1.0000
  H   H655      1.0  0.031719327152415225  0.45330649426620717  0.8678243579734767  1.0000
  H   H656      1.0  0.013802253610198918  0.46603479248852137  0.8429508671586031  1.0000
  H   H657      1.0  0.002154854627575802  0.4598888549342514  0.8800931936720536  1.0000
  H   H658      1.0  0.06233120127246749  0.5099127687978191  0.8286531024575532  1.0000
  H   H659      1.0  0.0813596870888367  0.4970890523958216  0.8522644330396704  1.0000
  H   H660      1.0  0.08758437225879186  0.5345944317844054  0.8556758234915787  1.0000
  N   N40       1.0  0.5071964999007466  0.0038378824212990095  0.9446156976067102  1.0000
  C   C445      1.0  0.4744537029326359  0.9822578832071126  0.9465047096135739  1.0000
  C   C446      1.0  0.5124219538290888  0.03487312929839048  0.9444116913834824  1.0000
  C   C447      1.0  0.5195826572100388  0.998509516397156  0.9177762717892214  1.0000
  C   C448      1.0  0.5224013242355027  0.9997013105309279  0.9697672363617094  1.0000
  H   H661      1.0  0.4697468345644582  0.9586095436930272  0.9473066129245075  1.0000
  H   H662      1.0  0.4622195222783318  0.9843874235153116  0.9277310344570548  1.0000
  H   H663      1.0  0.4642764757774987  0.9859759180106727  0.966262761848775  1.0000
  H   H664      1.0  0.5368931521331866  0.05178577978450071  0.9426233917966146  1.0000
  H   H665      1.0  0.5007035808809718  0.038673395683155254  0.926150722117348  1.0000
  H   H666      1.0  0.5038375478294018  0.03985074331009375  0.9645558822484256  1.0000
  H   H667      1.0  0.5086766975766965  0.0015160366479973761  0.8983594945859564  1.0000
  H   H668      1.0  0.5159315697526003  0.9752482420877239  0.9171328553212129  1.0000
  H   H669      1.0  0.5442987924508402  0.014316646878184569  0.9157952679000492  1.0000
  H   H670      1.0  0.5470914885163661  0.01591464947213228  0.969307585186292  1.0000
  H   H671      1.0  0.5190520403406537  0.9765448693500077  0.9704134438546096  1.0000
  H   H672      1.0  0.5133533492685316  0.0032170671746916133  0.9903952164049316  1.0000
  N   N41       1.0  0.5684292410307493  0.08723567591492774  0.19305401478282774  1.0000
  C   C449      1.0  0.5636591154076054  0.08317985162966388  0.22461405841728915  1.0000
  C   C450      1.0  0.5405145500160083  0.06569461379234422  0.1780195118826602  1.0000
  C   C451      1.0  0.5931982986164005  0.08187058181198655  0.18440387909762682  1.0000
  C   C452      1.0  0.5764101703519271  0.11821898183323297  0.18508739775968522  1.0000
  H   H673      1.0  0.5451932199594028  0.08709557760420104  0.2320417271350908  1.0000
  H   H674      1.0  0.5843884879776039  0.09903965874942085  0.2365015913430608  1.0000
  H   H675      1.0  0.5580650695332222  0.06018343239728575  0.23148802271655627  1.0000
  H   H676      1.0  0.5339455663218864  0.042077435018540554  0.18339418675544983  1.0000
  H   H677      1.0  0.5213271999048782  0.06908942667762967  0.1840411587640307  1.0000
  H   H678      1.0  0.543421872309491  0.06834500045898996  0.1541136698211061  1.0000
  H   H679      1.0  0.5959709741625943  0.08256994389834324  0.1605618679802518  1.0000
  H   H680      1.0  0.589134572083677  0.05962331860849387  0.19207754683611114  1.0000
  H   H681      1.0  0.6151145215607513  0.09913497867209511  0.19368927329603916  1.0000
  H   H682      1.0  0.5799045446759655  0.12191294307319432  0.16136009839127952  1.0000
  H   H683      1.0  0.5976899044455295  0.13512602523208142  0.19566581611504558  1.0000
  H   H684      1.0  0.5584855022442281  0.12331965073361524  0.19157344574591384  1.0000
  N   N42       1.0  0.2935773145628993  0.7400004752524894  0.36746843092911097  1.0000
  C   C453      1.0  0.3013497776962622  0.7652803600881269  0.34746471927424566  1.0000
  C   C454      1.0  0.26148483987936133  0.7261645673208043  0.37598444768173345  1.0000
  C   C455      1.0  0.3125885019640709  0.7512088936883452  0.3934629757829751  1.0000
  C   C456      1.0  0.2988149375651966  0.7172936940693427  0.3530495909908761  1.0000
  H   H685      1.0  0.32544290598164916  0.7762678960613674  0.3405985318581201  1.0000
  H   H686      1.0  0.29764392223118097  0.7827842852159496  0.3577875729363864  1.0000
  H   H687      1.0  0.28732501075764894  0.757557289850266  0.3276439524605164  1.0000
  H   H688      1.0  0.25660831159958203  0.7425518644306023  0.38707385777268755  1.0000
  H   H689      1.0  0.24631542664953796  0.7168752486569583  0.35704557177081203  1.0000
  H   H690      1.0  0.25507070485867095  0.7072945170822869  0.3913122892828049  1.0000
  H   H691      1.0  0.3074594261409778  0.7325647029760227  0.4087995461960514  1.0000
  H   H692      1.0  0.3086782803327881  0.7678680834707268  0.40530672050137045  1.0000
  H   H693      1.0  0.33702842250169723  0.7622307821290244  0.3879947678174769  1.0000
  H   H694      1.0  0.2930404729475067  0.6978402024204367  0.36758214796538713  1.0000
  H   H695      1.0  0.3227757663141771  0.7268536897166037  0.3462688629510255  1.0000
  H   H696      1.0  0.28453497423797797  0.7080203563110804  0.3335068074771731  1.0000
  N   N43       1.0  0.5261913596944243  0.08510633193070165  0.5983885878516431  1.0000
  C   C457      1.0  0.5443279892656789  0.08779440948121416  0.6240941112649748  1.0000
  C   C458      1.0  0.5424650438329882  0.08442654566911173  0.5722053468311173  1.0000
  C   C459      1.0  0.5213401317416849  0.1111525678827693  0.5969435509038459  1.0000
  C   C460      1.0  0.49667081816251885  0.05710805053153613  0.6001708150598378  1.0000
  H   H697      1.0  0.5668999417581312  0.10856265771701912  0.6230846862415952  1.0000
  H   H698      1.0  0.5482714678787899  0.06841945351833158  0.6258641214029439  1.0000
  H   H699      1.0  0.5329940421075986  0.08880412746301533  0.6442963505545485  1.0000
  H   H700      1.0  0.5294239013684826  0.08237174612921913  0.552441394654017  1.0000
  H   H701      1.0  0.5647261394538259  0.10527377290982236  0.5699834218080709  1.0000
  H   H702      1.0  0.5466043081445503  0.06512235591948998  0.5724275779167493  1.0000
  H   H703      1.0  0.5082408208010366  0.11013657937670641  0.5774038170654955  1.0000
  H   H704      1.0  0.5431034553952242  0.13270970595173148  0.5959462028155684  1.0000
  H   H705      1.0  0.5085280272598284  0.11203442387489623  0.616045752740714  1.0000
  H   H706      1.0  0.4821449547307962  0.05516420570807859  0.5815545447826296  1.0000
  H   H707      1.0  0.4840505554180657  0.05632094177178838  0.6200955831798088  1.0000
  H   H708      1.0  0.49921028765510483  0.03680787373603432  0.5998609695399667  1.0000
  N   N44       1.0  0.8704926776429107  0.4483298670894645  0.7857556937379165  1.0000
  C   C461      1.0  0.8402441859359466  0.4213225333316798  0.7876320165560781  1.0000
  C   C462      1.0  0.8675054899981336  0.47550474613599913  0.7845911709117481  1.0000
  C   C463      1.0  0.8862771074648513  0.44688051878998497  0.7594854938681097  1.0000
  C   C464      1.0  0.8880464341577372  0.44964554289827247  0.8114369445852219  1.0000
  H   H709      1.0  0.8279506033927837  0.42187199841010226  0.8073941726991976  1.0000
  H   H710      1.0  0.8417825846442073  0.4004540363512995  0.7886251475477128  1.0000
  H   H711      1.0  0.8262580908156925  0.4195543726455107  0.768644342206213  1.0000
  H   H712      1.0  0.8899740646256804  0.49634052127335376  0.7838918169789638  1.0000
  H   H713      1.0  0.8547493729693033  0.4755055602906869  0.7652460754576416  1.0000
  H   H714      1.0  0.8553619256523234  0.4771334287300539  0.8039187462567141  1.0000
  H   H715      1.0  0.8897437336206572  0.4271141728285378  0.7599207449561861  1.0000
  H   H716      1.0  0.9090217911886768  0.46722179605807523  0.7573143656424532  1.0000
  H   H717      1.0  0.8735377197884694  0.4452922020450082  0.7395868618311172  1.0000
  H   H718      1.0  0.9106727144309059  0.47019181066533056  0.8111897141801623  1.0000
  H   H719      1.0  0.8913748906846999  0.4298549927316682  0.8126612924575691  1.0000
  H   H720      1.0  0.8765357631485414  0.4499583503164649  0.8317573956456981  1.0000
  N   N45       1.0  0.4924181340919126  0.39511038554181155  0.6638490028948911  1.0000
  C   C465      1.0  0.47720345792969876  0.4050790922367754  0.6846527976044209  1.0000
  C   C466      1.0  0.4694998770626177  0.3696433208427037  0.6468779231279183  1.0000
  C   C467      1.0  0.5112926964930472  0.3855846794429176  0.6796067134138576  1.0000
  C   C468      1.0  0.5116286046722074  0.42023425515429613  0.6441994027333589  1.0000
  H   H721      1.0  0.4628331994146979  0.41249015670738814  0.6733313571515916  1.0000
  H   H722      1.0  0.49388459457031164  0.4243469542799446  0.6977335912971585  1.0000
  H   H723      1.0  0.4623775021250779  0.38663758089943084  0.699747897445729  1.0000
  H   H724      1.0  0.4541372366707879  0.3757952614985048  0.6357771487206236  1.0000
  H   H725      1.0  0.4800532569305738  0.36251774216764143  0.6297948166708169  1.0000
  H   H726      1.0  0.455363115100703  0.34971957860919173  0.6606917882965405  1.0000
  H   H727      1.0  0.49761134081825315  0.3665748775273854  0.6945721204969025  1.0000
  H   H728      1.0  0.5290464308173985  0.4043567464224596  0.692439739258545  1.0000
  H   H729      1.0  0.5232525818650337  0.37817936935415924  0.664482406863755  1.0000
  H   H730      1.0  0.5221139365888545  0.4130571790412422  0.6271474052192249  1.0000
  H   H731      1.0  0.530305870181474  0.4392400493093547  0.6559471791843368  1.0000
  H   H732      1.0  0.4984149286504387  0.4290642546023862  0.6331726588390989  1.0000
  N   N46       1.0  0.9691557949864488  0.5422795862536723  0.01602085752493961  1.0000
  C   C469      1.0  0.973195033092309  0.5159005182367341  0.012427651701725642  1.0000
  C   C470      1.0  0.9808085605919995  0.5616987600758676  0.9901335519789827  1.0000
  C   C471      1.0  0.9858432577321227  0.5593600393943224  0.04173966575127767  1.0000
  C   C472      1.0  0.9367295463372936  0.5320787760268675  0.019759338955642917  1.0000
  H   H733      1.0  0.9653066332169178  0.5010878967966578  0.031866811172145015  1.0000
  H   H734      1.0  0.9972677311407456  0.5226738274512167  0.008625185914545285  1.0000
  H   H735      1.0  0.9600038903727726  0.501940400125553  0.9938372038680594  1.0000
  H   H736      1.0  0.9775557472518591  0.5815188266311586  0.9917213912722752  1.0000
  H   H737      1.0  0.005340663071588647  0.5702756424814212  0.9867484399601366  1.0000
  H   H738      1.0  0.9690882477069224  0.5492736414063547  0.9702505228392501  1.0000
  H   H739      1.0  0.010355361102409644  0.5671064333934932  0.03967028681996283  1.0000
  H   H740      1.0  0.9773697027075074  0.545344573578689  0.06166285784890033  1.0000
  H   H741      1.0  0.9835455253265547  0.5796071505009937  0.04499802012316218  1.0000
  H   H742      1.0  0.9328366771378793  0.5512050610666367  0.023972965028031524  1.0000
  H   H743      1.0  0.9266024867440907  0.5157786745451614  0.03795501861355369  1.0000
  H   H744      1.0  0.9237780362093498  0.5204900182160995  6.980977058024251e-05  1.0000
  N   N47       1.0  0.5196469702433018  0.022885411644996356  0.427200973442863  1.0000
  C   C473      1.0  0.5015424100118098  0.0011598183978107632  0.4045456303660418  1.0000
  C   C474      1.0  0.512524218085852  0.04747263713436728  0.42819075131533546  1.0000
  C   C475      1.0  0.5520736031431274  0.03546189579844977  0.4206551410171485  1.0000
  C   C476      1.0  0.512467586439934  0.007405785983783719  0.4554528231335076  1.0000
  H   H745      1.0  0.5065004691257713  0.012041579288230906  0.3828862936563207  1.0000
  H   H746      1.0  0.4769406559679607  0.9911893670632806  0.40881974592459497  1.0000
  H   H747      1.0  0.5062791471003709  0.9822024921392791  0.40341107555945843  1.0000
  H   H748      1.0  0.525866183223993  0.06427161090679863  0.44505482354366604  1.0000
  H   H749      1.0  0.5180783995635343  0.05997313315845726  0.40732756663101705  1.0000
  H   H750      1.0  0.48824341048452347  0.03891245678645451  0.433073537714494  1.0000
  H   H751      1.0  0.5582185973752081  0.01752801730310627  0.4194294681837137  1.0000
  H   H752      1.0  0.5664328666094002  0.05189982844079247  0.4373832660007572  1.0000
  H   H753      1.0  0.5584040215501137  0.04781418263872211  0.39968245100568667  1.0000
  H   H754      1.0  0.525852393390584  0.023085508944692412  0.473015709182763  1.0000
  H   H755      1.0  0.517454788225176  0.9886503954743763  0.45546206699885  1.0000
  H   H756      1.0  0.4881327589874899  0.9976093602907887  0.46103859343288905  1.0000
  N   N48       1.0  0.5664314164233217  0.6838572069923187  0.21059586441511793  1.0000
  C   C477      1.0  0.5374613772114601  0.6801600038165394  0.221181014587052  1.0000
  C   C478      1.0  0.5645635571314117  0.6541936852120863  0.20965098872432497  1.0000
  C   C479      1.0  0.5909252814276312  0.7040486751877456  0.23019593933170843  1.0000
  C   C480      1.0  0.5726743112110334  0.6970481169922567  0.18127673966391467  1.0000
  H   H757      1.0  0.5379021291674069  0.702014583971382  0.22184268851121286  1.0000
  H   H758      1.0  0.5320635141174145  0.6704381372549185  0.2433701764635723  1.0000
  H   H759      1.0  0.5184438766404621  0.6648872056969983  0.20706389563019134  1.0000
  H   H760      1.0  0.5861718480198729  0.6560518240153003  0.20231324996821412  1.0000
  H   H761      1.0  0.5590324909376141  0.6431993251254806  0.23125031439044114  1.0000
  H   H762      1.0  0.5466608248718323  0.6386046712566409  0.1946312212394812  1.0000
  H   H763      1.0  0.6130932483231997  0.7070046683869255  0.22323849058843098  1.0000
  H   H764      1.0  0.5866909358894603  0.6951854954587128  0.25270106897635747  1.0000
  H   H765      1.0  0.5932121526153824  0.7267813566687721  0.23107877357004805  1.0000
  H   H766      1.0  0.5741015841514897  0.7194275425917529  0.18121742822873096  1.0000
  H   H767      1.0  0.5545819359759196  0.6823678259024702  0.16594603334448493  1.0000
  H   H768      1.0  0.594390705010772  0.7001693792777005  0.17258144230338102  1.0000
