data_image0
_chemical_formula_structural       FeS2FeS2FeSFeS3FeS2FeS2FeSFeS3FeS2FeS2FeSFeS3FeS2FeS2FeSFeS3FeS2FeS2FeSFeS3FeS2FeS2FeSFeS3FeS2FeS2FeSFeS3FeS2FeS2FeSFeS3FeS2FeS2FeSFeS3FeS2FeS2FeSFeS3FeS2FeS2FeSFeS3FeS2FeS2FeSFeS3C6H4C6H4C6H4C6H4C6H4C6H4C6H4C6H4C6H4C6H4C6H4C6H4C6H4C6H4C6H4C6H4C6H4C6H4C6H4C6H4C6H4C6H4C6H4C6H4FeS2FeS2FeSFeS3FeS2FeS2FeSFeS3FeS2FeS2FeSFeS3FeS2FeS2FeSFeS3FeS2FeS2FeSFeS3FeS2FeS2FeSFeS3FeS2FeS2FeSFeS3FeS2FeS2FeSFeS3FeS2FeS2FeSFeS3FeS2FeS2FeSFeS3FeS2FeS2FeSFeS3FeS2FeS2FeSFeS3C6H4C6H4C6H4C6H4C6H4C6H4C6H4C6H4C6H4C6H4C6H4C6H4C6H4C6H4C6H4C6H4C6H4C6H4C6H4C6H4C6H4C6H4C6H4C6H4NC4H12NC4H12NC4H12NC4H12NC4H12NC4H12NC4H12NC4H12NC4H12NC4H12NC4H12NC4H12NC4H12NC4H12NC4H12NC4H12NC4H12NC4H12NC4H12NC4H12NC4H12NC4H12NC4H12NC4H12NC4H12NC4H12NC4H12NC4H12NC4H12NC4H12NC4H12NC4H12NC4H12NC4H12NC4H12NC4H12NC4H12NC4H12NC4H12NC4H12NC4H12NC4H12NC4H12NC4H12NC4H12NC4H12NC4H12NC4H12
_chemical_formula_sum              "Fe96 S192 C480 H768 N48"
_cell_length_a       50.18574467073549
_cell_length_b       49.76510019515504
_cell_length_c       40.34124210196148
_cell_angle_alpha    89.66513750392335
_cell_angle_beta     90.20835779001222
_cell_angle_gamma    120.16832121962646

_space_group_name_H-M_alt    "P 1"
_space_group_IT_number       1

loop_
  _space_group_symop_operation_xyz
  'x, y, z'

loop_
  _atom_site_type_symbol
  _atom_site_label
  _atom_site_symmetry_multiplicity
  _atom_site_fract_x
  _atom_site_fract_y
  _atom_site_fract_z
  _atom_site_occupancy
  Fe  Fe1       1.0  0.1413943846652014  0.4271785720374012  0.30248480407565975  1.0000
  S   S1        1.0  0.11026868216960754  0.42542707402999197  0.3435226656101027  1.0000
  S   S2        1.0  0.19132402901766546  0.43833545043057714  0.3099008200441776  1.0000
  Fe  Fe2       1.0  0.09341537987318879  0.41829671588016704  0.24828144667660318  1.0000
  S   S3        1.0  0.05986514309731657  0.4167039628950225  0.28557672586203914  1.0000
  S   S4        1.0  0.08170566399609391  0.41077253912612743  0.19321073767217342  1.0000
  Fe  Fe3       1.0  0.1005611318288998  0.45612794693637604  0.31041121184150483  1.0000
  S   S5        1.0  0.09481527579839397  0.4939792175969817  0.334085130409198  1.0000
  Fe  Fe4       1.0  0.0723678610447522  0.38628501388066555  0.3148114186667476  1.0000
  S   S6        1.0  0.030360830631820206  0.34275605628009426  0.3326353108625975  1.0000
  S   S7        1.0  0.13391767704844984  0.4606157771359912  0.2708575827270068  1.0000
  S   S8        1.0  0.1038162958408885  0.38525978437435865  0.27603137506578346  1.0000
  Fe  Fe5       1.0  0.30317041653203625  0.4124796477142705  0.43755564735182867  1.0000
  S   S9        1.0  0.347009437215203  0.45306267117239074  0.41808194694389844  1.0000
  S   S10       1.0  0.2533436493327616  0.3967244239199198  0.4228017099097276  1.0000
  Fe  Fe6       1.0  0.33843658121944553  0.39043603186982995  0.4834240454372961  1.0000
  S   S11       1.0  0.3844157336029046  0.4284215390336322  0.46601157888076006  1.0000
  S   S12       1.0  0.35567573507619055  0.4197112017976111  0.04771457144401413  1.0000
  Fe  Fe7       1.0  0.3645013000097919  0.4595747700986721  0.47041841256665995  1.0000
  S   S13       1.0  0.39577826822579304  0.5036928008227605  0.4981635821891815  1.0000
  Fe  Fe8       1.0  0.36352801180614186  0.418755380348379  0.41521543309197034  1.0000
  S   S14       1.0  0.3942094326855812  0.42603699365077047  0.37166348565289203  1.0000
  S   S15       1.0  0.3192465473589503  0.42223522277593295  0.49071431598944837  1.0000
  S   S16       1.0  0.31886750548571985  0.3774566294610393  0.43157504296955895  1.0000
  Fe  Fe9       1.0  0.5527996301347954  0.6352353606117884  0.43765666517044566  1.0000
  S   S17       1.0  0.5859562329198613  0.682022235441886  0.4163312745055996  1.0000
  S   S18       1.0  0.5065135124642357  0.6062520441069268  0.41306722889163294  1.0000
  Fe  Fe10      1.0  0.5971333724850372  0.641922149367252  0.4920816696503582  1.0000
  S   S19       1.0  0.6335419122343566  0.6899397410662665  0.47595882320891764  1.0000
  S   S20       1.0  0.6631738062557954  0.6552442664045645  0.005078374620369964  1.0000
  Fe  Fe11      1.0  0.5937288884295149  0.6986886087266991  0.46928253551864424  1.0000
  S   S21       1.0  0.5874026043848024  0.7408164224699149  0.4755207893363826  1.0000
  Fe  Fe12      1.0  0.6223983401437648  0.6691664278558533  0.4246022379318614  1.0000
  S   S22       1.0  0.6608189377945292  0.6798502394833889  0.38777291485546644  1.0000
  S   S23       1.0  0.588737024356122  0.6671902536833848  0.01651837946962763  1.0000
  S   S24       1.0  0.5884529245945782  0.620948255458847  0.4412827889155438  1.0000
  Fe  Fe13      1.0  0.5917850014355027  0.866674280803116  0.11257159380868426  1.0000
  S   S25       1.0  0.5833770414331647  0.8885879861042857  0.06817363220739138  1.0000
  S   S26       1.0  0.5944517678890968  0.8220777379609981  0.1110934925163119  1.0000
  Fe  Fe14      1.0  0.5984390267883373  0.9195447275656994  0.15933113031985283  1.0000
  S   S27       1.0  0.5908313137747095  0.9451837113678659  0.11755775383944526  1.0000
  S   S28       1.0  0.5984227840129047  0.9325091450695184  0.21369152949974343  1.0000
  Fe  Fe15      1.0  0.553150995162209  0.8980539791646865  0.10153216983761237  1.0000
  S   S29       1.0  0.5054081960846792  0.8862304248178818  0.08473700171776638  1.0000
  Fe  Fe16      1.0  0.6217370859881317  0.9334619260308329  0.08821322673383489  1.0000
  S   S30       1.0  0.6606561185614482  0.9643119672179048  0.05355542098859066  1.0000
  S   S31       1.0  0.5585668249453903  0.8726823359360913  0.14469679935671845  1.0000
  S   S32       1.0  0.6322900609053139  0.9112226039881663  0.1311765045615732  1.0000
  Fe  Fe17      1.0  0.31041658258767213  0.8772430647289253  0.156464263227892  1.0000
  S   S33       1.0  0.3428444698735238  0.9054553898779705  0.19756325073793454  1.0000
  S   S34       1.0  0.26603592255470676  0.8295216080210502  0.15704962185165108  1.0000
  Fe  Fe18      1.0  0.3479077261131427  0.9274557166678405  0.10332344618586135  1.0000
  S   S35       1.0  0.3825698174946732  0.9595078953422191  0.1402991783695149  1.0000
  S   S36       1.0  0.3520698449706609  0.9339156080879342  0.04713146635480445  1.0000
  Fe  Fe19      1.0  0.3812038685534838  0.9169583616239744  0.1611642330360126  1.0000
  S   S37       1.0  0.42775384424416385  0.9241886361304729  0.17660142459991798  1.0000
  Fe  Fe20      1.0  0.3421312894156772  0.9459940160521011  0.1737563051222987  1.0000
  S   S38       1.0  0.33835159940019943  0.9818636907197058  0.2039201290755757  1.0000
  S   S39       1.0  0.34930135123594674  0.8853758610229545  0.12197168807842346  1.0000
  S   S40       1.0  0.30709671716615133  0.9174009101951426  0.1349696259072595  1.0000
  Fe  Fe21      1.0  0.1012650219275843  0.6400785138024174  0.27139695333912495  1.0000
  S   S41       1.0  0.13126148082843211  0.6688379352441634  0.31315372068723313  1.0000
  S   S42       1.0  0.10861341974533764  0.6051576842983288  0.2436835742270937  1.0000
  Fe  Fe22      1.0  0.06412573919541759  0.6725251497937269  0.2723478826546128  1.0000
  S   S43       1.0  0.09201852399010668  0.7047867143101364  0.3137132196705852  1.0000
  S   S44       1.0  0.019677702601605274  0.6664240182721366  0.25216750279526756  1.0000
  Fe  Fe23      1.0  0.13314873733288352  0.7092472161115801  0.2854344196909289  1.0000
  S   S45       1.0  0.18118957611559197  0.7525927912057165  0.28078232224941196  1.0000
  Fe  Fe24      1.0  0.08762221989316464  0.6615495700854729  0.33719017108682064  1.0000
  S   S46       1.0  0.07682063458551727  0.6436547842805626  0.39048722154234966  1.0000
  S   S47       1.0  0.10502200342009578  0.6804123095329995  0.24232657923873968  1.0000
  S   S48       1.0  0.05770275598787639  0.6292869401026934  0.2971918062834844  1.0000
  Fe  Fe25      1.0  0.9065436578047781  0.5914390983095223  0.056727441211669644  1.0000
  S   S49       1.0  0.9365603929432511  0.5910383029953793  0.0979761819548026  1.0000
  S   S50       1.0  0.8597257070407271  0.5886958040940936  0.06335753001964992  1.0000
  Fe  Fe26      1.0  0.9553598431883423  0.602101815088556  0.002943217209487014  1.0000
  S   S51       1.0  0.9887234930101297  0.6032600807576438  0.040777100470202846  1.0000
  S   S52       1.0  0.9756709159157781  0.6446645670271767  0.4848446528553163  1.0000
  Fe  Fe27      1.0  0.947839718774135  0.5624019600240324  0.06405199437606642  1.0000
  S   S53       1.0  0.956538447018363  0.5252955591177602  0.08548667802962974  1.0000
  Fe  Fe28      1.0  0.9747870158487169  0.6316812429125701  0.07118700311468075  1.0000
  S   S54       1.0  0.011170560217539593  0.6747572990458865  0.0967573968272207  1.0000
  S   S55       1.0  0.9145699319884677  0.5590568856207706  0.0245148041018826  1.0000
  S   S56       1.0  0.9445407904718447  0.6341784692015939  0.03158626769170647  1.0000
  Fe  Fe29      1.0  0.6745488499645549  0.545516352428364  0.18613695767983313  1.0000
  S   S57       1.0  0.7073296513684372  0.5531630907977307  0.22762286269251852  1.0000
  S   S58       1.0  0.642788600614395  0.4975475311794955  0.16551881409656255  1.0000
  Fe  Fe30      1.0  0.696783210257604  0.6144185388104272  0.17972548483729045  1.0000
  S   S59       1.0  0.7316392754281104  0.6273838056946388  0.22087577612320294  1.0000
  S   S60       1.0  0.6854606015027865  0.6497273677279971  0.1587853633015139  1.0000
  Fe  Fe31      1.0  0.742427427034874  0.5930211739479438  0.19638650168006386  1.0000
  S   S61       1.0  0.7904757212128145  0.5984263759816137  0.1918495392793789  1.0000
  Fe  Fe32      1.0  0.6935947072711488  0.5865683935259758  0.24816619137314236  1.0000
  S   S62       1.0  0.6753623293339637  0.5811182148068782  0.3011994152129358  1.0000
  S   S63       1.0  0.7101690663186283  0.5832330032920107  0.15346342995449552  1.0000
  S   S64       1.0  0.6583013282201671  0.5757756341755568  0.20839185277919833  1.0000
  Fe  Fe33      1.0  0.6674007115731772  0.07752398555385072  0.4062415372709741  1.0000
  S   S65       1.0  0.7091806880542386  0.07662873897675249  0.3878477462008701  1.0000
  S   S66       1.0  0.6359541906272486  0.05045085166515419  0.4485457299423739  1.0000
  Fe  Fe34      1.0  0.6755098421099619  0.12770920564715915  0.35832944754970275  1.0000
  S   S67       1.0  0.7179558632759125  0.13101677358306762  0.3361624224041269  1.0000
  S   S68       1.0  0.6580009127211325  0.1586816789142729  0.3392947216325728  1.0000
  Fe  Fe35      1.0  0.6913022535761432  0.07861935653629572  0.3368374530314022  1.0000
  S   S69       1.0  0.6958480106343143  0.05587828734293426  0.28979159007304034  1.0000
  Fe  Fe36      1.0  0.7319957977309778  0.12897032018245722  0.3886799467145595  1.0000
  S   S70       1.0  0.7818652577271782  0.15917974087255252  0.40603712602868935  1.0000
  S   S71       1.0  0.6477883011198882  0.07576952531203121  0.355476412888074  1.0000
  S   S72       1.0  0.6913794860874107  0.12956558344185454  0.4106434161337373  1.0000
  Fe  Fe37      1.0  0.9598203496194326  0.3332044298636039  0.010060755809281159  1.0000
  S   S73       1.0  0.9306781507352531  0.29701478071470605  0.04821695826660303  1.0000
  S   S74       1.0  0.007061063085208152  0.3280702438495613  0.4870865899606611  1.0000
  Fe  Fe38      1.0  0.9256659831932729  0.3683415651538691  0.016584028243300915  1.0000
  S   S75       1.0  0.8942493923867589  0.33549317182895905  0.05530697583503158  1.0000
  S   S76       1.0  0.920142482445814  0.4075938016532906  0.9961212618836891  1.0000
  Fe  Fe39      1.0  0.936833608772905  0.3381973208505616  0.07738724278607166  1.0000
  S   S77       1.0  0.945628090256405  0.34563434035616075  0.13302837372232254  1.0000
  Fe  Fe40      1.0  0.890497648562161  0.2971465333030648  0.022520628748388814  1.0000
  S   S78       1.0  0.8405154545682186  0.25747212855122936  0.016246909001179394  1.0000
  S   S79       1.0  0.9683063129195633  0.3741746487583278  0.040898439285890265  1.0000
  S   S80       1.0  0.9345205422402554  0.33987443099966047  0.4699432923168173  1.0000
  Fe  Fe41      1.0  0.40786022186336834  0.3333580185770799  0.23660760801976605  1.0000
  S   S81       1.0  0.4047181417236103  0.3017939163808096  0.19531209792417978  1.0000
  S   S82       1.0  0.36847808171554614  0.31759025045175476  0.2726919991140677  1.0000
  Fe  Fe42      1.0  0.47460261240428275  0.3805813975957869  0.22138540037672463  1.0000
  S   S83       1.0  0.47653637536861004  0.3525570857979138  0.17919374369699836  1.0000
  S   S84       1.0  0.5150414288584861  0.42447229024972194  0.24163978436175046  1.0000
  Fe  Fe43      1.0  0.43002072872579195  0.34594014656008343  0.16522113916158618  1.0000
  S   S85       1.0  0.4194568182299871  0.34795522719536  0.11054707757463839  1.0000
  Fe  Fe44      1.0  0.4511062627453435  0.31129482518673574  0.21319960149365283  1.0000
  S   S86       1.0  0.464686520774467  0.27396396935257505  0.21650222278575584  1.0000
  S   S87       1.0  0.4298238666937438  0.37691055776177323  0.2054644488021233  1.0000
  S   S88       1.0  0.45242052700683116  0.339875016686881  0.25640322315745173  1.0000
  Fe  Fe45      1.0  0.4293057233908409  0.09309869463209881  0.4015133279024025  1.0000
  S   S89       1.0  0.4643189722714763  0.08090301640250414  0.38515030162783814  1.0000
  S   S90       1.0  0.39279800172330775  0.06568768656127424  0.4405980945159256  1.0000
  Fe  Fe46      1.0  0.45536877913849266  0.1505210497364792  0.35490037514417505  1.0000
  S   S91       1.0  0.49289087497747747  0.1423316124992713  0.3354606250272678  1.0000
  S   S92       1.0  0.4491734756676421  0.19258079894705923  0.3456344662881135  1.0000
  Fe  Fe47      1.0  0.45531432269147154  0.0920018085419687  0.3338654615461348  1.0000
  S   S93       1.0  0.4542654047718856  0.057825602831911634  0.29661813231266687  1.0000
  Fe  Fe48      1.0  0.498674115590531  0.13178655383771828  0.3883655681600836  1.0000
  S   S94       1.0  0.5420532732310932  0.14371761004113515  0.4169001036086664  1.0000
  S   S95       1.0  0.41723523774251703  0.10051558286162024  0.3496233745590534  1.0000
  S   S96       1.0  0.4641727066899258  0.14358202399936273  0.4083751398857141  1.0000
  C   C1        1.0  0.45554823220302354  0.21564319472673563  0.30953183359016223  1.0000
  C   C2        1.0  0.460659528906786  0.20691448680379212  0.27835200743726984  1.0000
  C   C3        1.0  0.4639024742091757  0.2252648127077829  0.25016557750082896  1.0000
  C   C4        1.0  0.46202901070937097  0.25243850830702375  0.2528240520466735  1.0000
  C   C5        1.0  0.4577452253225233  0.26161552516829817  0.28410053203659974  1.0000
  C   C6        1.0  0.45432283997954853  0.24319251531387168  0.31221976798055556  1.0000
  H   H1        1.0  0.46164667326701686  0.18578918364193286  0.275892654798243  1.0000
  H   H2        1.0  0.4673786880712712  0.21803214040485674  0.22609640498836897  1.0000
  H   H3        1.0  0.4568332206740473  0.282747154436191  0.2866406285784098  1.0000
  H   H4        1.0  0.4506798331455187  0.2502685015223693  0.3363028724245719  1.0000
  C   C7        1.0  0.626839240809318  0.1560674358838521  0.3617177218261493  1.0000
  C   C8        1.0  0.6093369152870579  0.1682283880311656  0.34811857822288095  1.0000
  C   C9        1.0  0.5833660362289812  0.1648669762107515  0.3649935596559974  1.0000
  C   C10       1.0  0.5751793635495602  0.14975328235459115  0.39575742945293974  1.0000
  C   C11       1.0  0.5933743487764769  0.13861984991921478  0.40984050830478086  1.0000
  C   C12       1.0  0.618926629151326  0.14140281461247317  0.392686812224591  1.0000
  H   H5        1.0  0.6154913211466372  0.17973054529627244  0.3242154276265113  1.0000
  H   H6        1.0  0.5696022650162941  0.17385096230624403  0.35422664072408216  1.0000
  H   H7        1.0  0.5871955564184275  0.12707788706344098  0.43373803208231826  1.0000
  H   H8        1.0  0.6322361188297683  0.13189241234252522  0.40335646955802124  1.0000
  C   C13       1.0  0.79960044552441  0.19259838066503776  0.43183873971874986  1.0000
  C   C14       1.0  0.7824680382369459  0.20097719110022577  0.4522145866076219  1.0000
  C   C15       1.0  0.7976543929228  0.2271047453938114  0.47311087505701893  1.0000
  C   C16       1.0  0.8300720006464596  0.24522122173579797  0.4738691157241418  1.0000
  C   C17       1.0  0.8471464656744694  0.23670455195232304  0.45361133577594076  1.0000
  C   C18       1.0  0.8319698294962182  0.2104732070320148  0.4328763187716295  1.0000
  H   H9        1.0  0.7576113369298544  0.18715459653345592  0.4522425149168444  1.0000
  H   H10       1.0  0.7842611475117697  0.23335420298288684  0.4889268926504219  1.0000
  H   H11       1.0  0.8720601506602523  0.2502867494100451  0.4539704275404367  1.0000
  H   H12       1.0  0.845482329232513  0.20405114189890847  0.4174660264937071  1.0000
  C   C19       1.0  0.607263165548592  0.4770682524362792  0.18661338834870317  1.0000
  C   C20       1.0  0.6032919207215071  0.4871334629566804  0.21751745390663643  1.0000
  C   C21       1.0  0.5749013230992871  0.47073177458351995  0.23405383241877162  1.0000
  C   C22       1.0  0.5501787639455894  0.4442838354198021  0.21977403716336452  1.0000
  C   C23       1.0  0.5541238022221427  0.4340740743289088  0.1888928394233515  1.0000
  C   C24       1.0  0.5826994585711089  0.4502989779302415  0.17247964577053596  1.0000
  H   H13       1.0  0.6221483346136661  0.5074990038513686  0.22884236083227605  1.0000
  H   H14       1.0  0.5720636013189356  0.4787116987484757  0.25796933609933714  1.0000
  H   H15       1.0  0.535068992207351  0.4140538434673308  0.1774146341183776  1.0000
  H   H16       1.0  0.585560707155283  0.4425213899986707  0.1484667939974936  1.0000
  C   C25       1.0  0.9488133772942439  0.4945896613768658  0.05832934489026235  1.0000
  C   C26       1.0  0.963039769632039  0.47681790647194533  0.06362773602428008  1.0000
  C   C27       1.0  0.954791096302438  0.4502375619257187  0.04438170019180544  1.0000
  C   C28       1.0  0.932400016652113  0.44153706036962714  0.01960713318892655  1.0000
  C   C29       1.0  0.9192348259419147  0.46010579829884557  0.01336658554552204  1.0000
  C   C30       1.0  0.9273030669132106  0.48647363164525376  0.032744349093265464  1.0000
  H   H17       1.0  0.8688232411369703  0.4277502414627381  0.509519750112686  1.0000
  H   H18       1.0  0.9002404607844767  0.40339307408248337  0.49671042766860096  1.0000
  H   H19       1.0  0.9021894618188208  0.45372433405415385  0.9939416050609973  1.0000
  H   H20       1.0  0.9162999407844981  0.5000696854363943  0.02833000702345029  1.0000
  C   C31       1.0  0.841198353056248  0.5917775072939752  0.09952353612375514  1.0000
  C   C32       1.0  0.8159931444413518  0.5966128484479153  0.09587621584141484  1.0000
  C   C33       1.0  0.8002267023904261  0.598721113623067  0.12377456135973047  1.0000
  C   C34       1.0  0.80944514274309  0.5959228535079739  0.15576853879699123  1.0000
  C   C35       1.0  0.8347350606145323  0.5912386345377897  0.15942537737533494  1.0000
  C   C36       1.0  0.8504480175859663  0.5890436207894036  0.13152849038025594  1.0000
  H   H21       1.0  0.8086775509623412  0.5988544080531716  0.07124569834455638  1.0000
  H   H22       1.0  0.7811922427840968  0.6028844993200881  0.12053130688876754  1.0000
  H   H23       1.0  0.8420357331182924  0.5889760227706042  0.1840556210505872  1.0000
  H   H24       1.0  0.8693777749951099  0.5847270741640439  0.13479798280735822  1.0000
  C   C37       1.0  0.0027402254364241596  0.6428475963729742  0.45818854914998375  1.0000
  C   C38       1.0  0.017063105731746533  0.6258030317462894  0.4665585539772355  1.0000
  C   C39       1.0  0.03963313074625656  0.6262668744371965  0.4455040030570597  1.0000
  C   C40       1.0  0.04769780555599673  0.6432248266352173  0.4155975626376121  1.0000
  C   C41       1.0  0.03291729537396604  0.6597404278390305  0.4069336932433771  1.0000
  C   C42       1.0  0.01083258602747117  0.6598394210354837  0.4283525703125628  1.0000
  H   H25       1.0  0.011311157741741514  0.6127903692982437  0.48951014138378285  1.0000
  H   H26       1.0  0.051083170132351516  0.6135459490942601  0.452432921180357  1.0000
  H   H27       1.0  0.039031180877821425  0.6730285269646983  0.3840853293822326  1.0000
  H   H28       1.0  3.9596398721419845e-05  0.6732676908726732  0.4217389193668849  1.0000
  C   C43       1.0  0.017945743232295582  0.6688265834100358  0.20901803805366193  1.0000
  C   C44       1.0  0.9897854238740642  0.6503168879788943  0.19295597653646251  1.0000
  C   C45       1.0  0.9877943146156517  0.6514532946867337  0.1584055888215552  1.0000
  C   C46       1.0  0.013725822340634908  0.671786126166139  0.1398493439658313  1.0000
  C   C47       1.0  0.04184258161802301  0.6906036100972266  0.1559570373627019  1.0000
  C   C48       1.0  0.04409412675465929  0.6887704943271098  0.19051064995493178  1.0000
  H   H29       1.0  0.9695500360164596  0.6348685607082074  0.20730067215183806  1.0000
  H   H30       1.0  0.9660353073247535  0.6370623159237879  0.1463412717020376  1.0000
  H   H31       1.0  0.06192259144747081  0.7065642286428325  0.14169650144824486  1.0000
  H   H32       1.0  0.06581477751536924  0.7033833930756372  0.20290985843428563  1.0000
  C   C49       1.0  0.24238750788725588  0.8089292718998671  0.19178703132379601  1.0000
  C   C50       1.0  0.2515889450767964  0.8184395100031565  0.2244633725904035  1.0000
  C   C51       1.0  0.2324849595425933  0.8009901964823527  0.25121203943557424  1.0000
  C   C52       1.0  0.2037603507841409  0.7740151889874024  0.24579802983367155  1.0000
  C   C53       1.0  0.19441845900869917  0.7646006183246549  0.21309807051940852  1.0000
  C   C54       1.0  0.21371525430133986  0.7818314758654286  0.1863341084822539  1.0000
  H   H33       1.0  0.27351732622378977  0.8391510122623005  0.22918184105253517  1.0000
  H   H34       1.0  0.2399852234319968  0.808574927700318  0.2763431947930879  1.0000
  H   H35       1.0  0.17232144158082452  0.7441094406260336  0.20841450507888465  1.0000
  H   H36       1.0  0.20626271381715533  0.7742196103505395  0.16121951907875115  1.0000
  C   C55       1.0  0.37082438919979405  0.003553243649128124  0.22914024120982565  1.0000
  C   C56       1.0  0.3937847306239721  0.9955709825618068  0.23151718688020956  1.0000
  C   C57       1.0  0.41940084225296453  0.012652253292942508  0.2520910107606401  1.0000
  C   C58       1.0  0.42217479642975797  0.037729432563865545  0.2704747161959305  1.0000
  C   C59       1.0  0.39928338783192496  0.045832942187089554  0.26814071522179167  1.0000
  C   C60       1.0  0.3736220103815635  0.02874509005795378  0.24743278519929673  1.0000
  H   H37       1.0  0.39180747290733675  0.9761784133194777  0.2175142467262032  1.0000
  H   H38       1.0  0.4370666883499918  0.006311435531713094  0.253754071600362  1.0000
  H   H39       1.0  0.4014716692143096  0.06539467312559433  0.28196391284750183  1.0000
  H   H40       1.0  0.35597895981630806  0.03509592738681366  0.24543318682700455  1.0000
  C   C61       1.0  0.3634052396884601  0.9690744290817277  0.02499861896870447  1.0000
  C   C62       1.0  0.36332109258011147  0.9944578389179612  0.03959851111452618  1.0000
  C   C63       1.0  0.37136191010955455  0.021453711447872323  0.020708572801645675  1.0000
  C   C64       1.0  0.392785575902647  0.03654257508187113  0.4662438223090387  1.0000
  C   C65       1.0  0.40873701239112514  0.021340494429609815  0.45728616415023093  1.0000
  C   C66       1.0  0.40595077545318636  0.9963714904610192  0.47660962360947123  1.0000
  H   H41       1.0  0.3563845906147931  0.9930839657968216  0.06520892297311266  1.0000
  H   H42       1.0  0.37047964376723286  0.040642562085155196  0.03203603546951695  1.0000
  H   H43       1.0  0.4227282270483716  0.028422403423242537  0.43515524738730865  1.0000
  H   H44       1.0  0.4177714170353059  0.9842849205758543  0.46901529294213723  1.0000
  C   C67       1.0  0.6251172532898284  0.9677952919179283  0.23366898634492547  1.0000
  C   C68       1.0  0.6530831973683052  0.9893276433063933  0.2189938426557112  1.0000
  C   C69       1.0  0.6742406617013544  0.016243637352182372  0.2364324726056812  1.0000
  C   C70       1.0  0.6675576752678254  0.02228257516347039  0.2684755171269599  1.0000
  C   C71       1.0  0.6392723133781866  0.00106470810949455  0.2828789534374009  1.0000
  C   C72       1.0  0.6183115478121659  0.9738734530735343  0.26565387197560136  1.0000
  H   H45       1.0  0.6587439979215073  0.9849508661786854  0.19451724182989585  1.0000
  H   H46       1.0  0.6960794644225144  0.03241951602338218  0.22511180997128993  1.0000
  H   H47       1.0  0.633911208919253  0.0052572823097774  0.3075788251198239  1.0000
  H   H48       1.0  0.5968767301734141  0.9573135429293264  0.27737254641411335  1.0000
  C   C73       1.0  0.644014472573538  0.026338455616647348  0.4736167395081258  1.0000
  C   C74       1.0  0.6684970108460889  0.021432307665851576  0.4665246748806544  1.0000
  C   C75       1.0  0.6705912551226338  0.9968014938340963  0.995489546128895  1.0000
  C   C76       1.0  0.650763219402149  0.9826407615544926  0.022518564824595706  1.0000
  C   C77       1.0  0.6237040567407774  0.9839625797795626  0.02496297611324308  1.0000
  C   C78       1.0  0.6258666139911178  0.01240946228517892  0.5017740942997053  1.0000
  H   H49       1.0  0.6819755792736706  0.031353414556191464  0.4443438172068995  1.0000
  H   H50       1.0  0.691426279496544  0.9955623191647776  0.9933705942431117  1.0000
  H   H51       1.0  0.6082382494396482  0.9729713997457597  0.04564081173414463  1.0000
  H   H52       1.0  0.6067839710010332  0.015980568486143598  0.5072555344991119  1.0000
  C   C79       1.0  0.44907048381345827  0.9148715553014914  0.14922769092370403  1.0000
  C   C80       1.0  0.43472157264114725  0.8926102174617404  0.12443724560025385  1.0000
  C   C81       1.0  0.45234261645417334  0.8843809574085281  0.10437342609859578  1.0000
  C   C82       1.0  0.48428433258175024  0.8982066187468424  0.10914537289851488  1.0000
  C   C83       1.0  0.49873323295371247  0.9211675432622668  0.13326618328655898  1.0000
  C   C84       1.0  0.4811434664703998  0.9295614714279608  0.15311875298304664  1.0000
  H   H53       1.0  0.4099936847827132  0.8811520918355424  0.12128009790468156  1.0000
  H   H54       1.0  0.44110375167865845  0.8667013828318365  0.08560110310599044  1.0000
  H   H55       1.0  0.5234480367851811  0.9324730906363764  0.13651980376152384  1.0000
  H   H56       1.0  0.49238882031513936  0.9476383360625749  0.1714471355687659  1.0000
  C   C85       1.0  0.6645260549850565  0.6518419630705369  0.3644529448777707  1.0000
  C   C86       1.0  0.6905919599512977  0.6617226789011503  0.3442353441298376  1.0000
  C   C87       1.0  0.6942310693641502  0.6403612868959846  0.3247992363564598  1.0000
  C   C88       1.0  0.6716950500173436  0.6088495927412433  0.3251952531304428  1.0000
  C   C89       1.0  0.6459604552476514  0.5988386652457641  0.34603932336277415  1.0000
  C   C90       1.0  0.6422081189054908  0.6202474754752346  0.3653426988070894  1.0000
  H   H57       1.0  0.7081486367131281  0.6860706407812426  0.34366030307765083  1.0000
  H   H58       1.0  0.7146350522371124  0.6482220810658021  0.3097030142002173  1.0000
  H   H59       1.0  0.6285990854819946  0.5744345551832499  0.34680317896627005  1.0000
  H   H60       1.0  0.6219200791615113  0.6123538408271606  0.3805677773157024  1.0000
  C   C91       1.0  0.6673952935546602  0.6519457973068085  0.04796040117587498  1.0000
  C   C92       1.0  0.6840192091331109  0.6379219337296804  0.059232764551365454  1.0000
  C   C93       1.0  0.6888340838723728  0.6361568403429236  0.09332018017682371  1.0000
  C   C94       1.0  0.6777007770061625  0.649155014844934  0.11616200903773237  1.0000
  C   C95       1.0  0.661088158437889  0.6631862694685662  0.10487830999512456  1.0000
  C   C96       1.0  0.6555954594421181  0.6642403338258706  0.07086094396912926  1.0000
  H   H61       1.0  0.693279069881895  0.628488561183671  0.04157145294839614  1.0000
  H   H62       1.0  0.7018912116420277  0.625567783391977  0.10182791462347184  1.0000
  H   H63       1.0  0.6526075094918311  0.6734474672205788  0.1224526842950877  1.0000
  H   H64       1.0  0.6430485641789971  0.6753704270541541  0.06232145652905654  1.0000
  C   C97       1.0  0.5901747426569056  0.7650820538441261  0.01922506297001338  1.0000
  C   C98       1.0  0.5816355480948119  0.7879845672722323  0.01672986232179442  1.0000
  C   C99       1.0  0.5824421578917743  0.8053281619686249  0.04464362482370842  1.0000
  C   C100      1.0  0.5920595948818766  0.800142238993255  0.07540281740100938  1.0000
  C   C101      1.0  0.6001655588387405  0.7769282845283425  0.0779995489606988  1.0000
  C   C102      1.0  0.5992398112431412  0.7594711110873431  0.05010938969898937  1.0000
  H   H65       1.0  0.5715846877581535  0.7877450957609037  0.4876188094874403  1.0000
  H   H66       1.0  0.5754367243652212  0.822567106640402  0.04244644967396056  1.0000
  H   H67       1.0  0.6075544655312448  0.7726634928881809  0.10170896686184974  1.0000
  H   H68       1.0  0.6059640643209553  0.7420154306454673  0.0524612730748478  1.0000
  C   C103      1.0  0.37161713292816567  0.39799617038467705  0.06506324941410928  1.0000
  C   C104      1.0  0.3799673064665728  0.3803981129411003  0.045309026471746165  1.0000
  C   C105      1.0  0.39428174633938745  0.36498023808298785  0.059709918988823184  1.0000
  C   C106      1.0  0.4003163512899245  0.36685777654605917  0.09396298018426612  1.0000
  C   C107      1.0  0.39180753153737563  0.3843238890825688  0.11374299838924999  1.0000
  C   C108      1.0  0.37754878037575473  0.3998068931307689  0.09932943062275132  1.0000
  H   H69       1.0  0.375562407351417  0.3787712853649977  0.018908015942826827  1.0000
  H   H70       1.0  0.4007619316934646  0.35151888699371553  0.044203677485992895  1.0000
  H   H71       1.0  0.3962988555217904  0.38597654745252047  0.14011493940846317  1.0000
  H   H72       1.0  0.37116222581554803  0.4133396012569177  0.11483002007011676  1.0000
  C   C109      1.0  0.38669253870123627  0.3950666348936193  0.3453241709862479  1.0000
  C   C110      1.0  0.40625175706260286  0.4009068990668031  0.3182504039107514  1.0000
  C   C111      1.0  0.4008573010284163  0.3770291348295005  0.2962550345901946  1.0000
  C   C112      1.0  0.37557007602286513  0.34724499407263343  0.30088546591476256  1.0000
  C   C113      1.0  0.35593494011247273  0.34125848597018077  0.328061676304663  1.0000
  C   C114      1.0  0.36166198717709375  0.3651388213073197  0.35049037251088444  1.0000
  H   H73       1.0  0.4256602151384316  0.4239862921348431  0.31412839531023046  1.0000
  H   H74       1.0  0.41622939382875535  0.381812488142466  0.2755527282870983  1.0000
  H   H75       1.0  0.3365246923656426  0.31813051743597254  0.3319113878799241  1.0000
  H   H76       1.0  0.346897261108449  0.36040055188128145  0.37175530315195426  1.0000
  C   C115      1.0  0.4266537075124703  0.5318325639677648  0.47439606294412456  1.0000
  C   C116      1.0  0.4550932935185755  0.5514624667371567  0.4896076485577841  1.0000
  C   C117      1.0  0.47998879639837333  0.5739871250834649  0.47090042128317827  1.0000
  C   C118      1.0  0.47620321978184965  0.5776342782851812  0.4371176315419824  1.0000
  C   C119      1.0  0.44772462136428287  0.5581095435395117  0.4219730843271562  1.0000
  C   C120      1.0  0.4231173980611303  0.5350208176514929  0.44046271210402604  1.0000
  H   H77       1.0  0.4579936803078452  0.54902683939053  0.5158419728935838  1.0000
  H   H78       1.0  0.5019783700515335  0.588623253606115  0.48273694340618456  1.0000
  H   H79       1.0  0.44461727327530254  0.5608588309406934  0.3958595986021228  1.0000
  H   H80       1.0  0.40116634233677717  0.5201674580534682  0.4286181369771033  1.0000
  C   C121      1.0  0.043936303080215885  0.3945433357339126  0.17655625631724245  1.0000
  C   C122      1.0  0.018570485277479058  0.388302788476449  0.19630631692935696  1.0000
  C   C123      1.0  0.9886474979283795  0.3735493850636795  0.18259888522897136  1.0000
  C   C124      1.0  0.983785508260162  0.36515184334144224  0.14896119063298457  1.0000
  C   C125      1.0  0.009202625149708377  0.37200051204575174  0.12904424029995848  1.0000
  C   C126      1.0  0.039081314082031506  0.38655928921740834  0.14281363749884207  1.0000
  H   H81       1.0  0.02200108370837115  0.39471527535038403  0.22216912972428404  1.0000
  H   H82       1.0  0.9691786494444721  0.3685442911180639  0.1981759322998608  1.0000
  H   H83       1.0  0.005859072240270713  0.3656819205708315  0.10310754608247584  1.0000
  H   H84       1.0  0.058530924718680495  0.39133941444481174  0.12727226834792035  1.0000
  C   C127      1.0  0.02435720020269468  0.33946810374823766  0.37560746233171516  1.0000
  C   C128      1.0  0.0491986092369559  0.3519447832752103  0.3977084530142707  1.0000
  C   C129      1.0  0.043768834052007044  0.34809461087680377  0.4320035127460412  1.0000
  C   C130      1.0  0.013531037230569254  0.3325696573217751  0.4441992061649713  1.0000
  C   C131      1.0  0.9887264342398888  0.3207098862961696  0.4220927602424007  1.0000
  C   C132      1.0  0.9941516794557428  0.3237142523650493  0.38782334707655575  1.0000
  H   H85       1.0  0.0725743586913391  0.36383149745128923  0.38836917313329944  1.0000
  H   H86       1.0  0.06301798102287548  0.35719109161200524  0.44905576915438544  1.0000
  H   H87       1.0  0.9653442746112438  0.30840404540533006  0.43137909125279816  1.0000
  H   H88       1.0  0.9748873927755651  0.31387834549135324  0.3707740027428667  1.0000
  C   C133      1.0  0.09886871617922564  0.5246962711846292  0.30847571373569954  1.0000
  C   C134      1.0  0.10504985911868518  0.5255654457436013  0.2745545325986579  1.0000
  C   C135      1.0  0.10803636089442413  0.5503328336367531  0.2547730087101047  1.0000
  C   C136      1.0  0.1047580659121529  0.5742511468536722  0.2687861532337399  1.0000
  C   C137      1.0  0.09856753408883205  0.5733712057880511  0.3026700580611619  1.0000
  C   C138      1.0  0.09564234485696783  0.548669975973954  0.32242410653025233  1.0000
  H   H89       1.0  0.10753998113272983  0.5071648606130703  0.2635698190421812  1.0000
  H   H90       1.0  0.1128508980704134  0.550859989129699  0.22858886740731113  1.0000
  H   H91       1.0  0.09601575689125989  0.5916967521535262  0.31376190912266094  1.0000
  H   H92       1.0  0.09092239053106754  0.5481875911492536  0.3486366154064327  1.0000
  C   C139      1.0  0.23671241798810458  0.4107459435213932  0.39318128843623984  1.0000
  C   C140      1.0  0.20441064935204098  0.39513826653683537  0.3899158755744044  1.0000
  C   C141      1.0  0.1900852677420443  0.4038631246268867  0.365307751584913  1.0000
  C   C142      1.0  0.20795686871704938  0.4280828734634832  0.3432290609129918  1.0000
  C   C143      1.0  0.24028029041584098  0.443828853587033  0.34660433597787454  1.0000
  C   C144      1.0  0.2545931001606302  0.4355357219431532  0.3716618363598887  1.0000
  H   H93       1.0  0.19031550420845086  0.37594998727383866  0.40638552018475765  1.0000
  H   H94       1.0  0.16524417590087778  0.39144784475616895  0.36300419683921825  1.0000
  H   H95       1.0  0.25430988518351616  0.46269817167130184  0.3297635178689966  1.0000
  H   H96       1.0  0.27940252409757427  0.4481417853121254  0.37405376593182144  1.0000
  Fe  Fe49      1.0  0.13449046206524867  0.42245194984419415  0.8008704637946809  1.0000
  S   S97       1.0  0.11196015895353148  0.4353885230595755  0.8408502690846987  1.0000
  S   S98       1.0  0.1702088717907712  0.4069099960446105  0.8080541346430915  1.0000
  Fe  Fe50      1.0  0.0946471156846316  0.42905651681610063  0.7456241957666896  1.0000
  S   S99       1.0  0.06978426312177231  0.4427862096596335  0.7817942884681178  1.0000
  S   S100      1.0  0.08529350483466422  0.42611469296058085  0.6899011461894767  1.0000
  Fe  Fe51      1.0  0.11613663173452506  0.4723728504739803  0.8053283341875492  1.0000
  S   S101      1.0  0.13060100359788318  0.5191223967202733  0.8280488177227655  1.0000
  Fe  Fe52      1.0  0.06768347063158776  0.4048240569159014  0.8138397508924309  1.0000
  S   S102      1.0  0.021818951161010396  0.3688143079698615  0.8348899200895048  1.0000
  S   S103      1.0  0.14188624494936286  0.4618285156779529  0.7668418445861026  1.0000
  S   S104      1.0  0.089495383966647  0.3888717972300711  0.7761667632091648  1.0000
  Fe  Fe53      1.0  0.29829270686697507  0.41548033864606027  0.9394923795634882  1.0000
  S   S105      1.0  0.33139498758204283  0.4247402329065706  0.8979260712048251  1.0000
  S   S106      1.0  0.2512265224069596  0.41177893926402  0.9332516590758234  1.0000
  Fe  Fe54      1.0  0.34526169631382064  0.4193231304082438  0.9926898261131063  1.0000
  S   S107      1.0  0.3816650068496709  0.4299363521151416  0.954593079518034  1.0000
  S   S108      1.0  0.3311250152643743  0.3585330280023658  0.5276007983673571  1.0000
  Fe  Fe55      1.0  0.3666269498290594  0.46126858701858353  0.9315396644629853  1.0000
  S   S109      1.0  0.3980846851145499  0.5089747956875539  0.9105312971027941  1.0000
  Fe  Fe56      1.0  0.3429593645224416  0.39241212225382543  0.9251969732853033  1.0000
  S   S110      1.0  0.3489038182584203  0.35369898162123975  0.9049765412552553  1.0000
  S   S111      1.0  0.33316575115598956  0.45397279604541113  0.9718217654248518  1.0000
  S   S112      1.0  0.30691804357766916  0.3798694944999537  0.9646004829598266  1.0000
  Fe  Fe57      1.0  0.5541881895945564  0.6307985592972085  0.9821383011947541  1.0000
  S   S113      1.0  0.5575042431540774  0.6647105777297957  0.9433396203675817  1.0000
  S   S114      1.0  0.5090560943677217  0.5952527378998824  0.005578763503095718  1.0000
  Fe  Fe58      1.0  0.6236104233842305  0.6611183560187425  0.9878061075584473  1.0000
  S   S115      1.0  0.6319777359919534  0.6982998422223596  0.9504680276726822  1.0000
  S   S116      1.0  0.5982788558589814  0.6093688794466856  0.5301181930026257  1.0000
  Fe  Fe59      1.0  0.593699449606817  0.7010974099294213  0.9765812138950632  1.0000
  S   S117      1.0  0.588810864779257  0.7441814563463034  0.9830439416007889  1.0000
  Fe  Fe60      1.0  0.5952644155857281  0.6587393356905273  0.9209987176755594  1.0000
  S   S118      1.0  0.6021186859576062  0.6572013283211309  0.8654114202491807  1.0000
  S   S119      1.0  0.5583524674028197  0.6521136442518647  0.4898451799093476  1.0000
  S   S120      1.0  0.5886102270745691  0.6214734198515894  0.9570824317448233  1.0000
  Fe  Fe61      1.0  0.6020348462150072  0.8701899864676841  0.6023415940839631  1.0000
  S   S121      1.0  0.5923245573971886  0.8916415784152814  0.5584129308851987  1.0000
  S   S122      1.0  0.6092523322201286  0.8284101647246116  0.5999482143250839  1.0000
  Fe  Fe62      1.0  0.6053534135743559  0.9207574335025862  0.6503183371228021  1.0000
  S   S123      1.0  0.5965339342936932  0.9460593020340377  0.6091024253366618  1.0000
  S   S124      1.0  0.6030257474740371  0.9311694042426658  0.7050761574428345  1.0000
  Fe  Fe63      1.0  0.5606673849998425  0.8984815229766413  0.5921279134838524  1.0000
  S   S125      1.0  0.5124474991147069  0.884643254337987  0.575593150948126  1.0000
  Fe  Fe64      1.0  0.6290990458940773  0.937014792237685  0.5792622957392147  1.0000
  S   S126      1.0  0.6671771315665752  0.9686880789808242  0.5441665853793132  1.0000
  S   S127      1.0  0.5672947506367533  0.8732944971842328  0.6346392467482308  1.0000
  S   S128      1.0  0.6409194335316833  0.9154148295512369  0.6218210947464905  1.0000
  Fe  Fe65      1.0  0.3243715457413176  0.8886073132559854  0.6304667957854961  1.0000
  S   S129      1.0  0.3529507160980427  0.9138936874529688  0.674774292033632  1.0000
  S   S130      1.0  0.2782570133202633  0.8431008547318407  0.6337040403450901  1.0000
  Fe  Fe66      1.0  0.3678369692611437  0.9408407542456018  0.5817031264970111  1.0000
  S   S131      1.0  0.39860699663765153  0.9699621606582123  0.6230927349143407  1.0000
  S   S132      1.0  0.384664547178072  0.9547171702778584  0.5283894838337911  1.0000
  Fe  Fe67      1.0  0.39397606476197455  0.9255914120693639  0.642631037477739  1.0000
  S   S133      1.0  0.43841053265621466  0.9305384759245587  0.6623427107522817  1.0000
  Fe  Fe68      1.0  0.3552316125330877  0.955949100948404  0.6513371261624152  1.0000
  S   S134      1.0  0.3477291535426477  0.988806223619864  0.6829240474232536  1.0000
  S   S135      1.0  0.36546882829866445  0.8966809823188817  0.5999203823949695  1.0000
  S   S136      1.0  0.32422722809567817  0.9303391923507649  0.6083578128189135  1.0000
  Fe  Fe69      1.0  0.11695687970500117  0.6584174976564835  0.7621366084432097  1.0000
  S   S137      1.0  0.1473115442264917  0.6891862390037787  0.8028227590710055  1.0000
  S   S138      1.0  0.12011516709422582  0.6188901835394287  0.7392144492965737  1.0000
  Fe  Fe70      1.0  0.08795843437222052  0.6980201179263457  0.7500452323877538  1.0000
  S   S139      1.0  0.11673906358478722  0.7326131265975729  0.7891088871033534  1.0000
  S   S140      1.0  0.05256590315788062  0.7027136053911225  0.7199878864387682  1.0000
  Fe  Fe71      1.0  0.15629448027990733  0.7286928166874372  0.7682912012942706  1.0000
  S   S141      1.0  0.20660619837796126  0.7675608441599167  0.76374941419105  1.0000
  Fe  Fe72      1.0  0.10507319755423711  0.6901998959938465  0.8200235824284366  1.0000
  S   S142      1.0  0.09301889751413885  0.6909248218386289  0.8743726556102139  1.0000
  S   S143      1.0  0.12811362167668863  0.6977177717144456  0.7266350874194203  1.0000
  S   S144      1.0  0.07396813654476586  0.6559062654935965  0.7819862540151734  1.0000
  Fe  Fe73      1.0  0.8881438274759798  0.5853585387925719  0.5670051705032396  1.0000
  S   S145      1.0  0.8933914593372402  0.5467027370778944  0.589232466318007  1.0000
  S   S146      1.0  0.8466497150927048  0.5921885048255924  0.5729500215863869  1.0000
  Fe  Fe74      1.0  0.9464686970858824  0.6083644898103492  0.5235978910638008  1.0000
  S   S147      1.0  0.9558608125456309  0.5716364028349178  0.5426864466527792  1.0000
  S   S148      1.0  0.9647160365706767  0.6039069829204456  0.9472966821119835  1.0000
  Fe  Fe75      1.0  0.9051426391039212  0.5391789569017932  0.5377719881687706  1.0000
  S   S149      1.0  0.8841672319893571  0.4910524056485048  0.5161102927324214  1.0000
  Fe  Fe76      1.0  0.9437497346372975  0.5825205194105855  0.5923889733583556  1.0000
  S   S150      1.0  0.9742557988599773  0.5825405848416206  0.6332884621104293  1.0000
  S   S151      1.0  0.8961715816550725  0.5750183387600072  0.5147964707605363  1.0000
  S   S152      1.0  0.9381485331819356  0.6221269340252543  0.5739494515873884  1.0000
  Fe  Fe77      1.0  0.6482033919723574  0.5411267742339325  0.6850515398746616  1.0000
  S   S153      1.0  0.6753747308556205  0.5403253451673775  0.7289251969496385  1.0000
  S   S154      1.0  0.605811107505393  0.5010052260375443  0.6623689591077679  1.0000
  Fe  Fe78      1.0  0.6881317712751821  0.6106232511537497  0.6760269070302407  1.0000
  S   S155      1.0  0.7178784125224461  0.6156092239535832  0.7199388236731216  1.0000
  S   S156      1.0  0.6986881280657866  0.6518219683119637  0.6435804141182532  1.0000
  Fe  Fe79      1.0  0.7174347944773609  0.5734247745597749  0.6992350264346091  1.0000
  S   S157      1.0  0.7631632627446318  0.5738345161537571  0.6992580995129365  1.0000
  Fe  Fe80      1.0  0.6734165645369553  0.5825173665594049  0.7455976575080624  1.0000
  S   S158      1.0  0.6609065521896014  0.5827310169238465  0.7998915261938224  1.0000
  S   S159      1.0  0.6901688997650394  0.5705257150830485  0.6538722782017369  1.0000
  S   S160      1.0  0.643704959570474  0.581210551709066  0.7032551569688915  1.0000
  Fe  Fe81      1.0  0.6618483317167  0.06678005097109928  0.9065957569492521  1.0000
  S   S161      1.0  0.7047042089605902  0.0682103548261197  0.8876747849000323  1.0000
  S   S162      1.0  0.6290982117735743  0.037837281776745876  0.947223978747462  1.0000
  Fe  Fe82      1.0  0.6680699675472425  0.11754106191258898  0.8609306754470653  1.0000
  S   S163      1.0  0.7112516272896369  0.12323069759330978  0.8382845864276938  1.0000
  S   S164      1.0  0.6489986756948737  0.14729897327717148  0.8423057400300146  1.0000
  Fe  Fe83      1.0  0.6867305904496516  0.07098378908471209  0.8369894753092432  1.0000
  S   S165      1.0  0.6941644033702515  0.05181940454930244  0.7887836878910232  1.0000
  Fe  Fe84      1.0  0.7257496201685241  0.12034252396068562  0.8902899464969088  1.0000
  S   S166      1.0  0.776027976120213  0.15307008802991964  0.9048516602769427  1.0000
  S   S167      1.0  0.6422951674282198  0.0657280089113616  0.8559608303318207  1.0000
  S   S168      1.0  0.684179946310198  0.11854428207328159  0.9130540867969753  1.0000
  Fe  Fe85      1.0  0.9669168692764856  0.333100649602706  0.5028453349345409  1.0000
  S   S169      1.0  0.9310922317591765  0.30301580293583524  0.5404467572980235  1.0000
  S   S170      1.0  0.0032986799402747735  0.33850546680537885  0.9878742402693054  1.0000
  Fe  Fe86      1.0  0.9474688128101316  0.38152508576211674  0.5018423534334274  1.0000
  S   S171      1.0  0.9100680986736349  0.355587456935779  0.5391636694290227  1.0000
  S   S172      1.0  0.9653316575423252  0.43034049082033204  0.4830278775395595  1.0000
  Fe  Fe87      1.0  0.9449918141483209  0.34812999830385216  0.5665063549237432  1.0000
  S   S173      1.0  0.952370162539836  0.35507014486516864  0.6222716543667263  1.0000
  Fe  Fe88      1.0  0.899153131193006  0.31267146535697515  0.5095036969829931  1.0000
  S   S174      1.0  0.8478563597818762  0.2781219053473176  0.5004218802087396  1.0000
  S   S175      1.0  0.9828501391743495  0.376988367226217  0.5312109569350972  1.0000
  S   S176      1.0  0.9195905962090865  0.33030855808670007  0.9821547604225702  1.0000
  Fe  Fe89      1.0  0.3988259827456856  0.33076113046909267  0.7331031090152494  1.0000
  S   S177      1.0  0.3876074111229763  0.2936277180825605  0.6949659271149654  1.0000
  S   S178      1.0  0.36248911259132593  0.3410610559397782  0.751182778297095  1.0000
  Fe  Fe90      1.0  0.4674418533960822  0.35530702982612705  0.7295243167587641  1.0000
  S   S179      1.0  0.461509584088003  0.321079866367069  0.6904630929851531  1.0000
  S   S180      1.0  0.5145764609097944  0.3863667290951158  0.7515894728307966  1.0000
  Fe  Fe91      1.0  0.4272131322583306  0.3319484425190284  0.6669297623499486  1.0000
  S   S181      1.0  0.42969986007872646  0.3409809866147836  0.6111895169738619  1.0000
  Fe  Fe92      1.0  0.4227544679927013  0.2858856171060111  0.722205486983895  1.0000
  S   S182      1.0  0.42270560291938863  0.2399267917740588  0.7267661052674012  1.0000
  S   S183      1.0  0.43676075773583706  0.3694156067120479  0.703607112850745  1.0000
  S   S184      1.0  0.4303334832039436  0.3198376138804535  0.7626915244041798  1.0000
  Fe  Fe93      1.0  0.41670440353180704  0.07395676945985127  0.9162223879771398  1.0000
  S   S185      1.0  0.45014659822156783  0.060523221597850896  0.8971788317516137  1.0000
  S   S186      1.0  0.38826902152653703  0.05747111953388147  0.9639752942661935  1.0000
  Fe  Fe94      1.0  0.436832612052692  0.12686844504994532  0.8638685607669373  1.0000
  S   S187      1.0  0.4726370310003284  0.11757191289460618  0.8414038316892537  1.0000
  S   S188      1.0  0.4276338840617628  0.16739631839620106  0.8565538351752319  1.0000
  Fe  Fe95      1.0  0.4357522310788011  0.067085223074026  0.8463181248014452  1.0000
  S   S189      1.0  0.4330295632928025  0.031166512057085618  0.8104035920787538  1.0000
  Fe  Fe96      1.0  0.48450511290334963  0.11138011348813982  0.8936213476837364  1.0000
  S   S190      1.0  0.5300015141545431  0.12616447330811398  0.9190110298810577  1.0000
  S   S191      1.0  0.39899318842596315  0.07640161586854084  0.8653545295426733  1.0000
  S   S192      1.0  0.45217152999547633  0.12475085666048624  0.9159166589696376  1.0000
  C   C145      1.0  0.42648487781157046  0.18714353303791117  0.8199908252528567  1.0000
  C   C146      1.0  0.4306375955883562  0.1786660433431858  0.7882396673442044  1.0000
  C   C147      1.0  0.42912516740529794  0.19487738083826667  0.7600701951577358  1.0000
  C   C148      1.0  0.42360773702148824  0.21984552844036243  0.7631933379764604  1.0000
  C   C149      1.0  0.41948633562637594  0.2283321947624503  0.7949631811553439  1.0000
  C   C150      1.0  0.42098008179749746  0.21212327858109623  0.8231036185747302  1.0000
  H   H97       1.0  0.43479003674398736  0.15947149367724694  0.7853391932023728  1.0000
  H   H98       1.0  0.4322443035951828  0.1879535609297712  0.7356798747919975  1.0000
  H   H99       1.0  0.4147495616593205  0.24712746845162326  0.7978891067598385  1.0000
  H   H100      1.0  0.4175961880630868  0.21885021801682442  0.8474801174263925  1.0000
  C   C151      1.0  0.6160776817519883  0.14170951011982427  0.8636711186872043  1.0000
  C   C152      1.0  0.5965006483723074  0.15089367145313987  0.8489818062172715  1.0000
  C   C153      1.0  0.5698507001036394  0.14610063152775332  0.865599579160707  1.0000
  C   C154      1.0  0.5629966233334311  0.13253299513386954  0.8971874316294405  1.0000
  C   C155      1.0  0.5829386790036717  0.12397259069591672  0.9120900266648029  1.0000
  C   C156      1.0  0.6091428533542255  0.1280802080769354  0.8951865361206027  1.0000
  H   H101      1.0  0.6018911386916838  0.16160530652229804  0.8246618302150683  1.0000
  H   H102      1.0  0.5548205665779073  0.15323421594329834  0.854208094380127  1.0000
  H   H103      1.0  0.5778480580786698  0.11368657464501711  0.9366267046459223  1.0000
  H   H104      1.0  0.6240846359208042  0.12093191470513032  0.9067159665507237  1.0000
  C   C157      1.0  0.7933351581424785  0.18237696430524  0.9356404523967207  1.0000
  C   C158      1.0  0.7758882430675981  0.1886943902671188  0.9578853159674688  1.0000
  C   C159      1.0  0.7907306874994623  0.21187779392987968  0.9822099064641804  1.0000
  C   C160      1.0  0.823141395880974  0.2295163558451885  0.9841336538729292  1.0000
  C   C161      1.0  0.8405329801840768  0.2237290770460822  0.9612904504703543  1.0000
  C   C162      1.0  0.825685411011278  0.20016851405645314  0.9373575500425353  1.0000
  H   H105      1.0  0.7510458485116873  0.17564102113308458  0.9565106444371849  1.0000
  H   H106      1.0  0.7770877715131207  0.21628497875968794  0.9996969234802956  1.0000
  H   H107      1.0  0.8654401234787933  0.23699009545669852  0.9624929562189771  1.0000
  H   H108      1.0  0.8394389521354818  0.19562605985556744  0.9201486099862569  1.0000
  C   C163      1.0  0.5815651612460132  0.4683147464106789  0.6867516696304612  1.0000
  C   C164      1.0  0.5519689438440774  0.4471781920265684  0.6750178524437475  1.0000
  C   C165      1.0  0.5313435973080067  0.42183321409566016  0.6946678424113003  1.0000
  C   C166      1.0  0.5403248407960236  0.4173929056808708  0.7261040851480831  1.0000
  C   C167      1.0  0.5701092435910572  0.43819070400894494  0.7376542680595507  1.0000
  C   C168      1.0  0.5906981501146337  0.46366720930281374  0.7180475681110102  1.0000
  H   H109      1.0  0.5448340854668821  0.4506388568021547  0.6507782565333411  1.0000
  H   H110      1.0  0.5084829531496639  0.40582014422586987  0.685474578920843  1.0000
  H   H111      1.0  0.5772479601824898  0.43467379422741764  0.7618490169853261  1.0000
  H   H112      1.0  0.6135978738060298  0.4796616928078067  0.7270906920401936  1.0000
  C   C169      1.0  0.9074837455603167  0.47451479424720944  0.5095033332117718  1.0000
  C   C170      1.0  0.893523183610019  0.44216991673265843  0.5065008433417982  1.0000
  C   C171      1.0  0.9112760300729714  0.42836172789976673  0.4992867502949713  1.0000
  C   C172      1.0  0.9429562661848891  0.44697220912852453  0.4939905710228847  1.0000
  C   C173      1.0  0.9570222582858752  0.47931327162473253  0.49719230997432384  1.0000
  C   C174      1.0  0.9393916573130016  0.49303424397423434  0.5054665155495227  1.0000
  H   H113      1.0  0.9803626566293274  0.48361314653912413  0.08277269137477905  1.0000
  H   H114      1.0  0.965667223881366  0.43649887290581035  0.048729380923187016  1.0000
  H   H115      1.0  0.9816085485733599  0.49376100830732034  0.49340230430975895  1.0000
  H   H116      1.0  0.9504008471213418  0.517916891668743  0.507948751783043  1.0000
  C   C175      1.0  0.8225665381639277  0.5829310972006356  0.6083177912700823  1.0000
  C   C176      1.0  0.7922123031864372  0.5769014600351682  0.6041042320940848  1.0000
  C   C177      1.0  0.7731279506156675  0.5722191236499152  0.6316545239866803  1.0000
  C   C178      1.0  0.7845775319127484  0.5746953547318256  0.6638329619075324  1.0000
  C   C179      1.0  0.8147098641931146  0.5800599830181377  0.6680671523209325  1.0000
  C   C180      1.0  0.8335653021065298  0.5839557055509519  0.6404789955097221  1.0000
  H   H117      1.0  0.7834044914082449  0.575779509823947  0.5793256230076647  1.0000
  H   H118      1.0  0.7496872756867913  0.567104165911265  0.6279691223535916  1.0000
  H   H119      1.0  0.8237275185083353  0.5817463143353623  0.692847054998686  1.0000
  H   H120      1.0  0.8568851634545298  0.5886444712959511  0.64411590793864  1.0000
  C   C181      1.0  0.0015047410102506653  0.6268060996863448  0.9285978426491746  1.0000
  C   C182      1.0  0.02520645002577725  0.6530100146946038  0.944205250014424  1.0000
  C   C183      1.0  0.0531927573388067  0.6720796236775113  0.9274250924657931  1.0000
  C   C184      1.0  0.05793685754177962  0.6651232380433081  0.8949879584489329  1.0000
  C   C185      1.0  0.03459740502335018  0.6383821084015644  0.8797473874472035  1.0000
  C   C186      1.0  0.006488202482489491  0.6194589186538989  0.8964120338759353  1.0000
  H   H121      1.0  0.021741584649790726  0.6589488540623897  0.9689515287600776  1.0000
  H   H122      1.0  0.0711662777528268  0.6925518206391341  0.9395629142367985  1.0000
  H   H123      1.0  0.038243109164512346  0.6322632282603177  0.8551980536447652  1.0000
  H   H124      1.0  0.9884309204455577  0.5990227238864579  0.8843035981493572  1.0000
  C   C187      1.0  0.030940056584933144  0.6697366798587598  0.6953016073727845  1.0000
  C   C188      1.0  0.006679693911587657  0.6672385620784478  0.6756538807574264  1.0000
  C   C189      1.0  0.9890164711598838  0.6405381874350309  0.6563749045818393  1.0000
  C   C190      1.0  0.995563009067121  0.6163117204956958  0.6569236149071468  1.0000
  C   C191      1.0  0.019835349023070048  0.6189533742797874  0.6765073070666555  1.0000
  C   C192      1.0  0.03757480497752419  0.6456340830799087  0.6955060565905566  1.0000
  H   H125      1.0  0.0013978421448337082  0.6858069310621202  0.675561899079529  1.0000
  H   H126      1.0  0.9700086690420896  0.6384108925391458  0.6416656013212115  1.0000
  H   H127      1.0  0.025019851338231147  0.6002952313231785  0.6769710758715622  1.0000
  H   H128      1.0  0.05638401025537543  0.6474132727065073  0.7103187145530448  1.0000
  C   C193      1.0  0.2588861521475363  0.8222072146463443  0.6701430039859785  1.0000
  C   C194      1.0  0.2737985844407748  0.827970678791186  0.7008470972264229  1.0000
  C   C195      1.0  0.25747733724783006  0.8109365627989334  0.7291719110902679  1.0000
  C   C196      1.0  0.22609202390286562  0.7880201024533865  0.7271881639049061  1.0000
  C   C197      1.0  0.21124542732120605  0.7821122943645226  0.6964594446620699  1.0000
  C   C198      1.0  0.22760387253376627  0.7990685757300885  0.6681250126651992  1.0000
  H   H129      1.0  0.29799409134595545  0.8452383575000577  0.7026448546193516  1.0000
  H   H130      1.0  0.26924877009570536  0.8155300232899697  0.7527758607892844  1.0000
  H   H131      1.0  0.18714292932299806  0.7645566966891767  0.6944947833282411  1.0000
  H   H132      1.0  0.2158943860497345  0.7943191729730359  0.6444631456438441  1.0000
  C   C199      1.0  0.3718151769697098  0.0014038322863831887  0.718059350140326  1.0000
  C   C200      1.0  0.39240629827222445  0.9907425165948369  0.7238760827042553  1.0000
  C   C201      1.0  0.41096469775382377  0.00011441959682190183  0.7523368530201946  1.0000
  C   C202      1.0  0.4092984080853843  0.020421038313071578  0.7750456663314337  1.0000
  C   C203      1.0  0.3888461162505917  0.03131560802258093  0.7692376620442414  1.0000
  C   C204      1.0  0.370014376962718  0.02168689920800171  0.7407862760237076  1.0000
  H   H133      1.0  0.3942149506639267  0.9753710140914813  0.706384791638414  1.0000
  H   H134      1.0  0.42677534608716855  0.9916646422924126  0.7566628915176572  1.0000
  H   H135      1.0  0.3874902044473264  0.0470330943522288  0.7866464537456564  1.0000
  H   H136      1.0  0.3541848176172616  0.030083066275420345  0.7363095353919534  1.0000
  C   C205      1.0  0.3879612563109374  0.9868945900109934  0.5056218247896884  1.0000
  C   C206      1.0  0.3726268347443477  0.0025781693563937673  0.5150475589998179  1.0000
  C   C207      1.0  0.37469012871214025  0.02697602646851274  0.49516101195591794  1.0000
  C   C208      1.0  0.38036132090422975  0.02376025201958995  0.9873111166493065  1.0000
  C   C209      1.0  0.38131738420142147  0.9986950173541855  0.9730253236980527  1.0000
  C   C210      1.0  0.3725281502927818  0.9713990981761367  0.9916615444109859  1.0000
  H   H137      1.0  0.358572524116768  0.9954399132021234  0.5371935425053588  1.0000
  H   H138      1.0  0.36211963688662063  0.03846002461565621  0.5022021223973411  1.0000
  H   H139      1.0  0.3879719684322775  4.185459832273253e-06  0.9473210260412733  1.0000
  H   H140      1.0  0.37267714176404115  0.9519297300848633  0.9800643215307825  1.0000
  C   C211      1.0  0.6279950150983024  0.9657070632515535  0.727195499034337  1.0000
  C   C212      1.0  0.6560880770639487  0.9887146231092727  0.7140692048736533  1.0000
  C   C213      1.0  0.6758435569179495  0.01501049724638426  0.7331729854609214  1.0000
  C   C214      1.0  0.6675959613910387  0.018911610439598017  0.7653583121013855  1.0000
  C   C215      1.0  0.6391797133545207  0.996201692509321  0.7782232924250821  1.0000
  C   C216      1.0  0.6196261058895207  0.9696487352261816  0.7593176252734449  1.0000
  H   H141      1.0  0.662915878815326  0.9859711976960479  0.6894971643530771  1.0000
  H   H142      1.0  0.6978001633636837  0.032374080977760206  0.7230370525641014  1.0000
  H   H143      1.0  0.6326361253387085  0.998775769713394  0.8030003371568655  1.0000
  H   H144      1.0  0.5980675951280986  0.9519259170210692  0.7698223571499024  1.0000
  C   C217      1.0  0.6370384235422654  0.01502312295279351  0.9744177265807339  1.0000
  C   C218      1.0  0.6635708004690294  0.012703967156566742  0.9712217693461352  1.0000
  C   C219      1.0  0.6753710453359978  0.0034649434306175397  0.4881571962119649  1.0000
  C   C220      1.0  0.6574135662532052  0.9899025358761312  0.5165860333741704  1.0000
  C   C221      1.0  0.6324102927001931  0.9940772093093824  0.5230994442813093  1.0000
  C   C222      1.0  0.6169837419101544  0.00029070905310901734  0.001077741846832847  1.0000
  H   H145      1.0  0.6788021419128247  0.023421284054872548  0.9503269955227207  1.0000
  H   H146      1.0  0.6945019599597358  0.9999546416919773  0.48280188384977485  1.0000
  H   H147      1.0  0.6184058068699962  0.9836403511216177  0.5448882225206173  1.0000
  H   H148      1.0  0.5963577823462908  0.0018892856356103052  0.0035451779719266607  1.0000
  C   C223      1.0  0.45875779024781344  0.9186233800407267  0.63675572742796  1.0000
  C   C224      1.0  0.443645015104959  0.8952904255131158  0.6131653309545656  1.0000
  C   C225      1.0  0.4604346970693699  0.8853318236948005  0.5941196870914837  1.0000
  C   C226      1.0  0.49231998860680815  0.8986031419932046  0.5986451710059897  1.0000
  C   C227      1.0  0.5075093979080724  0.9224121496121581  0.6217455514338591  1.0000
  C   C228      1.0  0.49071684503366  0.9323326141653987  0.6407846536156476  1.0000
  H   H149      1.0  0.418962332133715  0.8844714596061265  0.6100223111509104  1.0000
  H   H150      1.0  0.4486023280064005  0.8669321683684865  0.5761972676814792  1.0000
  H   H151      1.0  0.5321584171194313  0.9331026537381206  0.6249718249551582  1.0000
  H   H152      1.0  0.5025491025392929  0.9509580511752458  0.6584349049248014  1.0000
  C   C229      1.0  0.6166087290226065  0.634963052070442  0.8467856088663843  1.0000
  C   C230      1.0  0.6272378467415822  0.6413912252289172  0.8138702546302065  1.0000
  C   C231      1.0  0.6406142803009109  0.6254345672754175  0.7989260170503503  1.0000
  C   C232      1.0  0.6433641119274178  0.6027940765642441  0.8168179134539272  1.0000
  C   C233      1.0  0.631988963499535  0.595789665381408  0.8493996010192413  1.0000
  C   C234      1.0  0.618631615440845  0.6117361715582008  0.8643236262964524  1.0000
  H   H153      1.0  0.6256280411052509  0.6592346115733192  0.8000459920417292  1.0000
  H   H154      1.0  0.6491656184492466  0.6309794987161514  0.7737629466847731  1.0000
  H   H155      1.0  0.6336460208257667  0.5779945711868976  0.8632516009330433  1.0000
  H   H156      1.0  0.6100506893036477  0.606186526981966  0.8894508494247582  1.0000
  C   C235      1.0  0.6262769063243724  0.622404401711818  0.561599086689875  1.0000
  C   C236      1.0  0.6254900380271416  0.6005077008027421  0.5841158970548237  1.0000
  C   C237      1.0  0.6476885029093798  0.6095737170820331  0.609209241147174  1.0000
  C   C238      1.0  0.6709416189996846  0.6406410651250419  0.6119283966222276  1.0000
  C   C239      1.0  0.6720359092659453  0.6626272508700122  0.5891718460063029  1.0000
  C   C240      1.0  0.6496636424449682  0.6535312720207649  0.5639952767196827  1.0000
  H   H157      1.0  0.6075193978163402  0.5763833768252006  0.5823172636617806  1.0000
  H   H158      1.0  0.646609621792541  0.5924186014650804  0.6265618239777093  1.0000
  H   H159      1.0  0.689923952571835  0.6867261788649978  0.5913043557653813  1.0000
  H   H160      1.0  0.6503393579788781  0.6705940019065354  0.5467752125276875  1.0000
  C   C241      1.0  0.5924756720805046  0.7637956712829548  0.5111147510397842  1.0000
  C   C242      1.0  0.5825315990777871  0.7856689460394972  0.5098651030247543  1.0000
  C   C243      1.0  0.5867384885180567  0.8050384902425769  0.5371325627513533  1.0000
  C   C244      1.0  0.6014550101920989  0.8031147759442797  0.5658032189737936  1.0000
  C   C245      1.0  0.6110835955986837  0.7810040229700522  0.5671843412864268  1.0000
  C   C246      1.0  0.6065360244267894  0.7613512189753231  0.5400607201612245  1.0000
  H   H161      1.0  0.5742918387676063  0.792312759647655  0.9930249665625891  1.0000
  H   H162      1.0  0.5789150850903703  0.8216998034456577  0.5358387994580405  1.0000
  H   H163      1.0  0.6223233517089151  0.7791882249864631  0.5893371487056102  1.0000
  H   H164      1.0  0.61428614360939  0.7446362291737549  0.5414465053177822  1.0000
  C   C247      1.0  0.3590130782228529  0.35391645716157577  0.5502472958109271  1.0000
  C   C248      1.0  0.35130486139142847  0.34018409717483045  0.5819489317154324  1.0000
  C   C249      1.0  0.37296832826448667  0.3369003870916235  0.6012872175353482  1.0000
  C   C250      1.0  0.40236963477124993  0.34655319696404313  0.5887066388710199  1.0000
  C   C251      1.0  0.40995231086730555  0.359857282236858  0.5568104496006634  1.0000
  C   C252      1.0  0.38851806105878217  0.3637972291966987  0.5377700617819279  1.0000
  H   H165      1.0  0.32850359793518374  0.33233739646604926  0.5917840918738698  1.0000
  H   H166      1.0  0.36673017141806286  0.3264822907853143  0.6257166538785834  1.0000
  H   H167      1.0  0.4325589075401458  0.3671538610177707  0.5467578065649755  1.0000
  H   H168      1.0  0.3946716394460558  0.3740500824521934  0.5132721179351846  1.0000
  C   C253      1.0  0.3558833887393744  0.3532488911485141  0.8623673857966504  1.0000
  C   C254      1.0  0.36653415094840647  0.3337951220035917  0.8508828226873854  1.0000
  C   C255      1.0  0.36982102808354944  0.33087374942968895  0.8167645842999715  1.0000
  C   C256      1.0  0.36157034283124734  0.34670850687339366  0.7939954618084492  1.0000
  C   C257      1.0  0.35085277200826265  0.36612645408732536  0.8054698896708272  1.0000
  C   C258      1.0  0.3485084881707008  0.36982865767415696  0.8396153544789551  1.0000
  H   H169      1.0  0.3720808511074158  0.32078266590168725  0.8684055156406243  1.0000
  H   H170      1.0  0.3777708193394612  0.3156013643654337  0.8080575450524292  1.0000
  H   H171      1.0  0.344513195408293  0.37842951120646123  0.7878448518472781  1.0000
  H   H172      1.0  0.3404820201920092  0.3850320392189006  0.8481667096803331  1.0000
  C   C259      1.0  0.42897294819576354  0.5329105016615043  0.9368935198052313  1.0000
  C   C260      1.0  0.42650056693153615  0.5279174272658097  0.9711748591551658  1.0000
  C   C261      1.0  0.4510435015690989  0.5476000964629133  0.9920104749239128  1.0000
  C   C262      1.0  0.4785023493209217  0.5717292534406808  0.9786576802607152  1.0000
  C   C263      1.0  0.48103264389518546  0.5767180797339064  0.9443800439106825  1.0000
  C   C264      1.0  0.4561370451292079  0.5575566959111603  0.923580395443891  1.0000
  H   H173      1.0  0.40546171274632725  0.5092145209206008  0.9816572949551492  1.0000
  H   H174      1.0  0.44876077942474113  0.5441427234779794  0.018535534436175727  1.0000
  H   H175      1.0  0.5021202664152793  0.5952953083006519  0.933848077541126  1.0000
  H   H176      1.0  0.4581408284869256  0.5615233828963824  0.897070489205731  1.0000
  C   C265      1.0  0.04774965082973715  0.4081994307997347  0.6724713006081664  1.0000
  C   C266      1.0  0.02149570755579504  0.38808607240500237  0.6908146576334828  1.0000
  C   C267      1.0  0.9923722210261212  0.37235895944716213  0.6752620595156196  1.0000
  C   C268      1.0  0.9891956293082237  0.37646799476985654  0.641267316190423  1.0000
  C   C269      1.0  0.015293737554495257  0.39733484686497994  0.6231891692546089  1.0000
  C   C270      1.0  0.04439666020765669  0.4129993709409442  0.6386888594630472  1.0000
  H   H177      1.0  0.023707318783521315  0.3842469819301541  0.7168727502930213  1.0000
  H   H178      1.0  0.9723000807369958  0.3565313923945277  0.6896060999068835  1.0000
  H   H179      1.0  0.013163898784241512  0.4013206862633953  0.5972314676292368  1.0000
  H   H180      1.0  0.06454438697722882  0.42878521460773306  0.6244244921684486  1.0000
  C   C271      1.0  0.016769393574919366  0.36239110954145837  0.8777612434397493  1.0000
  C   C272      1.0  0.9879513971035768  0.339509295828927  0.8896482262064814  1.0000
  C   C273      1.0  0.9835177989799763  0.3324365864830637  0.9235789784874059  1.0000
  C   C274      1.0  0.008093483082520114  0.3478844883142989  0.945621826320832  1.0000
  C   C275      1.0  0.03690669805315627  0.370925699050366  0.9338077118602177  1.0000
  C   C276      1.0  0.041092244003857865  0.37860605996860686  0.8999690450340789  1.0000
  H   H181      1.0  0.9690558872631752  0.32695029132779657  0.8725127876803643  1.0000
  H   H182      1.0  0.9612663819949305  0.31455627889917226  0.9326106592050212  1.0000
  H   H183      1.0  0.055861986626175364  0.38309444261746256  0.9509676579493883  1.0000
  H   H184      1.0  0.0631422248925644  0.39687272674342644  0.8911228695485925  1.0000
  C   C277      1.0  0.12627357989840632  0.5460432458253938  0.8034174994815982  1.0000
  C   C278      1.0  0.12129503135208089  0.5417123787701376  0.7692637220038843  1.0000
  C   C279      1.0  0.1190874053644474  0.5640877504378535  0.7499106901775104  1.0000
  C   C280      1.0  0.12123100708888372  0.5905691778389125  0.7646496295594337  1.0000
  C   C281      1.0  0.12573937580709743  0.5947066618961161  0.798890108986532  1.0000
  C   C282      1.0  0.1285601754499736  0.5726174324731814  0.8181630829694444  1.0000
  H   H185      1.0  0.11954333721109034  0.5213148191850968  0.7576994228600398  1.0000
  H   H186      1.0  0.11563019152393966  0.5607922179895012  0.7234252329327948  1.0000
  H   H187      1.0  0.12730986136711478  0.6149915482707078  0.8104933550015925  1.0000
  H   H188      1.0  0.13231961125276043  0.5759944465492803  0.8446055646140535  1.0000
  C   C283      1.0  0.22973932106152137  0.4112920310846817  0.8978133761968062  1.0000
  C   C284      1.0  0.20490509619827774  0.41656563763428195  0.9020738290542274  1.0000
  C   C285      1.0  0.18703227470363384  0.4162829274745766  0.8748273453327858  1.0000
  C   C286      1.0  0.19337518413000204  0.4100116913372754  0.8429761684364597  1.0000
  C   C287      1.0  0.21817292707381508  0.40464734088601895  0.8387346319877518  1.0000
  C   C288      1.0  0.23645789708281043  0.4055801914739668  0.8658783331097442  1.0000
  H   H189      1.0  0.1995002341011403  0.42104531404546  0.9266576861447196  1.0000
  H   H190      1.0  0.1681614752900925  0.4205809497914188  0.8785673138288848  1.0000
  H   H191      1.0  0.22323880653875797  0.3997279553481737  0.8141965132505933  1.0000
  H   H192      1.0  0.25541734507917374  0.40146132701170967  0.8620918114620589  1.0000
  N   N1        1.0  0.4812823693382829  0.4976047578818495  0.39484041559196736  1.0000
  C   C289      1.0  0.4963740139108116  0.5311857569522869  0.38720324188551297  1.0000
  C   C290      1.0  0.47207475624440776  0.4796985470412215  0.3636365868410071  1.0000
  C   C291      1.0  0.4536721547335573  0.4883853106191244  0.4154379032351772  1.0000
  C   C292      1.0  0.5029986559193397  0.4911064870742518  0.41317284217278283  1.0000
  H   H193      1.0  0.5168442652680697  0.5389042513611341  0.37096433342316515  1.0000
  H   H194      1.0  0.5043917058245098  0.5453932695142878  0.4101775492132799  1.0000
  H   H195      1.0  0.4803131775128299  0.537146037941759  0.3743789150490908  1.0000
  H   H196      1.0  0.4609839628722213  0.4542467675821176  0.3685224224496156  1.0000
  H   H197      1.0  0.4549818458516938  0.4833653614003381  0.3496116525751766  1.0000
  H   H198      1.0  0.49217394930183644  0.48632658178976856  0.3471176693661582  1.0000
  H   H199      1.0  0.4419544682483454  0.4632438875161208  0.422002579788595  1.0000
  H   H200      1.0  0.4363804889006415  0.49221768656401527  0.4020839978856518  1.0000
  H   H201      1.0  0.4595700088829256  0.501841631745277  0.4389265628817258  1.0000
  H   H202      1.0  0.4922779508152623  0.46591545376159477  0.41929882731424456  1.0000
  H   H203      1.0  0.510298776595984  0.5041829350905063  0.4369322933389588  1.0000
  H   H204      1.0  0.524131030510454  0.4978042545591209  0.3983685061945484  1.0000
  N   N2        1.0  0.2557867810988059  0.31381524528268534  0.884399697423661  1.0000
  C   C293      1.0  0.2718153668695899  0.34794025993296024  0.8804800608939977  1.0000
  C   C294      1.0  0.22264919916142273  0.3007273888690753  0.8772348392476564  1.0000
  C   C295      1.0  0.25975951141367903  0.30598246923871275  0.9188066881446442  1.0000
  C   C296      1.0  0.2690359576159596  0.30078096441431273  0.8611293221605106  1.0000
  H   H205      1.0  0.29676703446389496  0.35837114492135647  0.8858993179282604  1.0000
  H   H206      1.0  0.26248813049894754  0.35867367242655446  0.8976753533424888  1.0000
  H   H207      1.0  0.26976248105589834  0.35487712529048693  0.8547402704719579  1.0000
  H   H208      1.0  0.20971458696775952  0.2749928765452466  0.8801761839333738  1.0000
  H   H209      1.0  0.2121472384063697  0.31040864792418627  0.8942455926307353  1.0000
  H   H210      1.0  0.21897379038299336  0.306224375069059  0.8514010115160541  1.0000
  H   H211      1.0  0.28460938751360965  0.3155855933614542  0.924938007139906  1.0000
  H   H212      1.0  0.24802716622173634  0.2804110019467798  0.9227818518658099  1.0000
  H   H213      1.0  0.250373930415864  0.3157572904192408  0.9371117421734455  1.0000
  H   H214      1.0  0.29377377882573796  0.3093892238605547  0.866707533686073  1.0000
  H   H215      1.0  0.2678647649305078  0.3074373275492345  0.8349877611115459  1.0000
  H   H216      1.0  0.25693107997205866  0.27497843067894  0.8626312871624633  1.0000
  N   N3        1.0  0.5016917659757394  0.676880954483912  0.025985739238067795  1.0000
  C   C297      1.0  0.5283276604532087  0.6775047985678486  0.04246037162827698  1.0000
  C   C298      1.0  0.5028612651321226  0.7068031530524914  0.03151928856758013  1.0000
  C   C299      1.0  0.47287132103911605  0.6510779874549577  0.039850156134940695  1.0000
  C   C300      1.0  0.5028678002390556  0.6720786078266118  0.990025507205482  1.0000
  H   H217      1.0  0.5278118379243091  0.655019342185858  0.03937331996216531  1.0000
  H   H218      1.0  0.5287746098271465  0.6819418066723626  0.06950571270262929  1.0000
  H   H219      1.0  0.5504524351502151  0.6961302255260806  0.03190939813243432  1.0000
  H   H220      1.0  0.4829816884079947  0.7071559215262744  0.019690128180866573  1.0000
  H   H221      1.0  0.5027323906935641  0.7116155723791806  0.058418480993474464  1.0000
  H   H222      1.0  0.5242679633390669  0.7265360496023985  0.020824868341677627  1.0000
  H   H223      1.0  0.47153848305784424  0.6282524375216734  0.03579293971377062  1.0000
  H   H224      1.0  0.45222931879934114  0.6498170449449208  0.027971683475858322  1.0000
  H   H225      1.0  0.47131556522425716  0.6537955618563055  0.06701937833144633  1.0000
  H   H226      1.0  0.5243361127371382  0.6912202176285122  0.9787370258515723  1.0000
  H   H227      1.0  0.4830594610001722  0.6713084609229377  0.9767119664165413  1.0000
  H   H228      1.0  0.5023281007117866  0.6498094442715919  0.9849687103005008  1.0000
  N   N4        1.0  0.7003370668199141  0.6705389256895269  0.9116930399851462  1.0000
  C   C301      1.0  0.7267799743473233  0.667396631356739  0.9010129369298085  1.0000
  C   C302      1.0  0.6883082671741999  0.6798792865470624  0.8830512569522087  1.0000
  C   C303      1.0  0.7103445012708008  0.6943882648465023  0.9378427121924924  1.0000
  C   C304      1.0  0.6758716219197878  0.6404120568032461  0.9249010857640025  1.0000
  H   H229      1.0  0.7362736066242679  0.6602072905566494  0.9220537916100182  1.0000
  H   H230      1.0  0.7457194049848338  0.6896960982911406  0.8909146762226924  1.0000
  H   H231      1.0  0.7198963463579601  0.6495374580441121  0.8812250437693224  1.0000
  H   H232      1.0  0.6676011738636407  0.6813958747861414  0.8899374667647445  1.0000
  H   H233      1.0  0.705778626498015  0.7029625432823157  0.8730398345140897  1.0000
  H   H234      1.0  0.6814117136486109  0.6628670463152843  0.8624433987104458  1.0000
  H   H235      1.0  0.6908319517162963  0.6971991562687375  0.9464248240866987  1.0000
  H   H236      1.0  0.7288841510721121  0.7174566341826374  0.9289648185729046  1.0000
  H   H237      1.0  0.7190504126332685  0.6878318640202817  0.9601220343295147  1.0000
  H   H238      1.0  0.6836455438435664  0.6333587560120962  0.9475384248820763  1.0000
  H   H239      1.0  0.6686805800065263  0.6215377365749496  0.906419983128325  1.0000
  H   H240      1.0  0.6550464016682356  0.6415726898589736  0.9320007749541152  1.0000
  N   N5        1.0  0.9102175803148986  0.40403975180822366  0.1294660376459559  1.0000
  C   C305      1.0  0.9107516015992145  0.42505318918071044  0.15553182292795834  1.0000
  C   C306      1.0  0.8953856184402438  0.4076459423733268  0.099327104163353  1.0000
  C   C307      1.0  0.8926488434766702  0.37151091241050094  0.14131960115865544  1.0000
  C   C308      1.0  0.9421532537878091  0.41198447410097255  0.12181580280496107  1.0000
  H   H241      1.0  0.8870389870375285  0.41971302839938474  0.16198778576675774  1.0000
  H   H242      1.0  0.9238394528155743  0.4498082513025742  0.14722366991469815  1.0000
  H   H243      1.0  0.9219519467846914  0.42303567835908823  0.17854667389752113  1.0000
  H   H244      1.0  0.8706537684910715  0.39980712876162716  0.10358279651146352  1.0000
  H   H245      1.0  0.9066813032784767  0.43232178235198754  0.09105691015781886  1.0000
  H   H246      1.0  0.8966146989655666  0.3939804217286159  0.07821329817209431  1.0000
  H   H247      1.0  0.8684628438765812  0.3645536056903039  0.14759156931718606  1.0000
  H   H248      1.0  0.9035371996615902  0.36781257477573426  0.1636732820306455  1.0000
  H   H249      1.0  0.8918733428975253  0.35510772885283226  0.12220716787208476  1.0000
  H   H250      1.0  0.9428235676877637  0.3976046047690647  0.10113874643194622  1.0000
  H   H251      1.0  0.9534721184649096  0.4079242392613245  0.14353458646606326  1.0000
  H   H252      1.0  0.9566361122577118  0.4367363370312512  0.11457706299419336  1.0000
  N   N6        1.0  0.49244188692565266  0.6784379841657537  0.4671000424803735  1.0000
  C   C309      1.0  0.5091166284846226  0.6955047053777935  0.4972269750969894  1.0000
  C   C310      1.0  0.4769326907002404  0.6446052695016982  0.4735173712948187  1.0000
  C   C311      1.0  0.5145420844207367  0.686511215111731  0.4395310125592979  1.0000
  C   C312      1.0  0.46922473210610677  0.6871582730126317  0.4580250100330367  1.0000
  H   H253      1.0  0.5270978076584429  0.6897647633891286  0.504606875448109  1.0000
  H   H254      1.0  0.4932906050282594  0.6899792773388554  0.5186649385932727  1.0000
  H   H255      1.0  0.5212901988825229  0.7211366539653413  0.49316404093686567  1.0000
  H   H256      1.0  0.4938128805718414  0.637347084634991  0.48067985756387943  1.0000
  H   H257      1.0  0.45980137513658903  0.6374413571317893  0.49392702871422334  1.0000
  H   H258      1.0  0.46468617263561407  0.6309781231650574  0.4510662043124654  1.0000
  H   H259      1.0  0.5029733085664145  0.6737987934388576  0.41642510916771114  1.0000
  H   H260      1.0  0.5324014293117099  0.6803845310388494  0.44570728715411245  1.0000
  H   H261      1.0  0.5269745905934162  0.7119202524163423  0.43408765748498324  1.0000
  H   H262      1.0  0.4521763051448368  0.6814233147870382  0.4783061152660445  1.0000
  H   H263      1.0  0.4562580362031464  0.6746837912078396  0.4353689844802115  1.0000
  H   H264      1.0  0.4802561304449492  0.7125660226733201  0.4529632417295328  1.0000
  N   N7        1.0  0.6480776718389932  0.6531112629791349  0.24644781405124447  1.0000
  C   C313      1.0  0.6775718060681885  0.6534440775797564  0.24972161405988866  1.0000
  C   C314      1.0  0.6356589980651929  0.6524759399560244  0.2798120038012781  1.0000
  C   C315      1.0  0.6257947486593775  0.6251667243727285  0.22790925520298042  1.0000
  C   C316      1.0  0.6533695354133063  0.6813031639639876  0.22837935732173537  1.0000
  H   H265      1.0  0.67406107871253  0.6311882889999237  0.26018871428506507  1.0000
  H   H266      1.0  0.6941241033131537  0.6727405954762818  0.26584595279350504  1.0000
  H   H267      1.0  0.6890253417438558  0.6566112385623987  0.22541644951658418  1.0000
  H   H268      1.0  0.6315456814416052  0.6314580696636719  0.2939739632800884  1.0000
  H   H269      1.0  0.6519425586915133  0.6730835313309329  0.294714123403972  1.0000
  H   H270      1.0  0.6134128152802385  0.6522571040747307  0.2784426587020282  1.0000
  H   H271      1.0  0.6033406269044214  0.6242500943899112  0.2246972767944932  1.0000
  H   H272      1.0  0.6213139806300504  0.6034566827757124  0.24088324260613855  1.0000
  H   H273      1.0  0.6345777455998692  0.6247114321176863  0.2027261927448656  1.0000
  H   H274      1.0  0.6316809170665243  0.6820251431922819  0.22557884817536314  1.0000
  H   H275      1.0  0.6625427454676663  0.6821922055549182  0.2029797218664744  1.0000
  H   H276      1.0  0.670439656246915  0.7027931680605687  0.24147696603914962  1.0000
  N   N8        1.0  0.6710731953838095  0.6153396129738024  0.4699835690276856  1.0000
  C   C317      1.0  0.6939166916482128  0.6187705372031129  0.4447754716838365  1.0000
  C   C318      1.0  0.6793755571751426  0.6078754501166357  0.5025896996096179  1.0000
  C   C319      1.0  0.6401953805056131  0.5900184223668052  0.4601685944524489  1.0000
  C   C320      1.0  0.6706618377600895  0.6447371614432654  0.47238352770609515  1.0000
  H   H277      1.0  0.6947163333947124  0.5969421114174063  0.44200522458319935  1.0000
  H   H278      1.0  0.7175063988842768  0.6376643780932958  0.4513994127278081  1.0000
  H   H279      1.0  0.6882861095841007  0.6246570879438018  0.4199624280523945  1.0000
  H   H280      1.0  0.6622062288044894  0.6047381567476969  0.5219373117362837  1.0000
  H   H281      1.0  0.6802229822583485  0.585967603243107  0.5017333621513502  1.0000
  H   H282      1.0  0.7022440511404209  0.6267609741809516  0.5112093685967777  1.0000
  H   H283      1.0  0.6223411820497285  0.587012808097222  0.47853340601906225  1.0000
  H   H284      1.0  0.6395767827332443  0.567411695871884  0.45835868796486595  1.0000
  H   H285      1.0  0.6332200019297878  0.5948811930721128  0.4356675539275807  1.0000
  H   H286      1.0  0.6537373086643231  0.6429867878087087  0.49122402206222743  1.0000
  H   H287      1.0  0.664233673443336  0.6509847453995276  0.4483211708964898  1.0000
  H   H288      1.0  0.6935662955538391  0.6644676581497782  0.4796322560359871  1.0000
  N   N9        1.0  0.08202694329299619  0.3293480332158668  0.8619164172541421  1.0000
  C   C321      1.0  0.10344306518328579  0.3215521885064936  0.8788512265726423  1.0000
  C   C322      1.0  0.0941360655982429  0.363071805694851  0.8643991906255036  1.0000
  C   C323      1.0  0.051300798383384326  0.31245544577802375  0.8777257765715856  1.0000
  C   C324      1.0  0.0793514144744893  0.32071634050599407  0.8265428379248982  1.0000
  H   H289      1.0  0.09523108933346885  0.2962621742150338  0.8773068817546361  1.0000
  H   H290      1.0  0.1058935163971489  0.32789695001591335  0.9055816377563841  1.0000
  H   H291      1.0  0.12690353287665404  0.3344267174354225  0.8676053115043316  1.0000
  H   H292      1.0  0.11722290026109648  0.3766381153187726  0.8525775628680026  1.0000
  H   H293      1.0  0.07851776835741817  0.36957475228094894  0.851663877264915  1.0000
  H   H294      1.0  0.09642725279386304  0.3707110428309267  0.8906509393244354  1.0000
  H   H295      1.0  0.04161630666157347  0.2868708724888208  0.8770725174407804  1.0000
  H   H296      1.0  0.034536565989699064  0.31746501051842896  0.8648980694697564  1.0000
  H   H297      1.0  0.05219148229496331  0.3193834838198518  0.9041206276677103  1.0000
  H   H298      1.0  0.10202234540403342  0.33386440215741764  0.8136412075636698  1.0000
  H   H299      1.0  0.06303233141973  0.32610666682288714  0.813279468341956  1.0000
  H   H300      1.0  0.07072466850391712  0.29546627024670646  0.8234866663178327  1.0000
  N   N10       1.0  0.0290477365300307  0.42942311958501483  0.40717424552317455  1.0000
  C   C325      1.0  0.054398860888233  0.42474668487710326  0.39591824005950305  1.0000
  C   C326      1.0  0.0035767073158385794  0.39978499855231764  0.42017904869650363  1.0000
  C   C327      1.0  0.01786129927486348  0.44011730744935174  0.37893061421935287  1.0000
  C   C328      1.0  0.04042681180520091  0.45311232446514627  0.4335835687564854  1.0000
  H   H301      1.0  0.06315003304422372  0.41614735673658243  0.41636208066614006  1.0000
  H   H302      1.0  0.07420140539019701  0.4468121327386254  0.38640974045681076  1.0000
  H   H303      1.0  0.04677701499065086  0.40748108805563943  0.375469931083753  1.0000
  H   H304      1.0  0.9840544541514548  0.40248817046704666  0.4290025223857965  1.0000
  H   H305      1.0  0.9944816524497145  0.3813991052788123  0.40086294433293734  1.0000
  H   H306      1.0  0.011240838385355511  0.3909977372113941  0.44149544717981354  1.0000
  H   H307      1.0  0.9984677070495871  0.44356148563873893  0.3864249564689217  1.0000
  H   H308      1.0  0.009729530419906323  0.4230798344347411  0.35824294426709963  1.0000
  H   H309      1.0  0.036517017693666554  0.46263800924116977  0.3687829581204581  1.0000
  H   H310      1.0  0.059811895169773754  0.475723301233536  0.42455825128637426  1.0000
  H   H311      1.0  0.04884395232140091  0.44567628170466544  0.4553734531323285  1.0000
  H   H312      1.0  0.021880199775344757  0.45734411641616723  0.4425199501922208  1.0000
  N   N11       1.0  0.5223760593412573  0.05213118154939063  0.8324827647630706  1.0000
  C   C329      1.0  0.5538830757157648  0.0622170638680138  0.8445280757705756  1.0000
  C   C330      1.0  0.49963478543077455  0.028800603583857363  0.8556380237137978  1.0000
  C   C331      1.0  0.5180710794255119  0.03836924077218533  0.7991426814266603  1.0000
  C   C332      1.0  0.5178107870339493  0.07920701349295294  0.8306795578093406  1.0000
  H   H313      1.0  0.5717784984748078  0.08050750621501684  0.8282381078511102  1.0000
  H   H314      1.0  0.5584596691841863  0.04254670460269972  0.8456599390683162  1.0000
  H   H315      1.0  0.5575168371914137  0.07213583004748711  0.8698839510206087  1.0000
  H   H316      1.0  0.4755995712027819  0.020767057737182817  0.8473456736624939  1.0000
  H   H317      1.0  0.5023762271992265  0.00802555965542284  0.8576997936561721  1.0000
  H   H318      1.0  0.5021029141919743  0.038626045194261466  0.8809660365610406  1.0000
  H   H319      1.0  0.4943640491024376  0.030409704610962433  0.7895518832267346  1.0000
  H   H320      1.0  0.5214664749309218  0.01793262015924537  0.7994377399232238  1.0000
  H   H321      1.0  0.5346870091671891  0.05555475839860389  0.7810493019013925  1.0000
  H   H322      1.0  0.49533538743739525  0.07303605050960096  0.8191331007063042  1.0000
  H   H323      1.0  0.5360877929628077  0.0984444248484746  0.8156960166080393  1.0000
  H   H324      1.0  0.517896630923255  0.08835394575308533  0.8557732854355904  1.0000
  N   N12       1.0  0.28475141566515977  0.3779031022648429  0.3284314108394737  1.0000
  C   C333      1.0  0.2578678268352075  0.3804344183735915  0.31771703187853606  1.0000
  C   C334      1.0  0.3068759449574999  0.4064239460101179  0.34620274553976466  1.0000
  C   C335      1.0  0.30001131956837424  0.3739335914039378  0.29910113256328835  1.0000
  C   C336      1.0  0.2742610556318232  0.3508458341764916  0.3508685535809986  1.0000
  H   H325      1.0  0.24146364253377825  0.36006819423536573  0.3026912053639779  1.0000
  H   H326      1.0  0.26491545399734034  0.40176711540262067  0.30260126587353414  1.0000
  H   H327      1.0  0.24474951844554935  0.3815015385328682  0.33935801784674907  1.0000
  H   H328      1.0  0.3276903636349609  0.4055059981568275  0.35413765818737875  1.0000
  H   H329      1.0  0.3147998325164713  0.42751764261621844  0.33045722337371713  1.0000
  H   H330      1.0  0.29630424461809163  0.40971119251292815  0.3688620448790937  1.0000
  H   H331      1.0  0.28424911423983024  0.35231676679368207  0.28536543887866206  1.0000
  H   H332      1.0  0.320722863763436  0.37249450659677796  0.30625807036517777  1.0000
  H   H333      1.0  0.3078318018186008  0.39383671943086274  0.28154438275848553  1.0000
  H   H334      1.0  0.26315539217252143  0.3535397204150743  0.37357167852876005  1.0000
  H   H335      1.0  0.2938471769034915  0.34797945928066837  0.3591916362620252  1.0000
  H   H336      1.0  0.2571199515294325  0.3289148424856171  0.3385624896762207  1.0000
  N   N13       1.0  0.03990518005483205  0.5965722945624051  0.17164049318350819  1.0000
  C   C337      1.0  0.02829004236937811  0.5960419512169316  0.20541865592956535  1.0000
  C   C338      1.0  0.06817381193219324  0.6268204899870943  0.16586445281747142  1.0000
  C   C339      1.0  0.016229767620206774  0.5921997559145586  0.14688237679992547  1.0000
  C   C340      1.0  0.04708902555217208  0.5712982871176272  0.1684953817632581  1.0000
  H   H337      1.0  0.006794034584397096  0.5737355268079922  0.21066883383031132  1.0000
  H   H338      1.0  0.02308183268954148  0.6151021870103848  0.20893178718873684  1.0000
  H   H339      1.0  0.04559244273346224  0.5990446904056841  0.22463432671231878  1.0000
  H   H340      1.0  0.07743699486294979  0.6282960210351145  0.14047926376819236  1.0000
  H   H341      1.0  0.06364709854616529  0.6464295851391566  0.16852338639429146  1.0000
  H   H342      1.0  0.08658446404395169  0.6306601748521328  0.18396255842307868  1.0000
  H   H343      1.0  0.9944805878568889  0.5696201797930069  0.15039679714780377  1.0000
  H   H344      1.0  0.024194403358119895  0.5924259827428809  0.12107761628360034  1.0000
  H   H345      1.0  0.01041586921393135  0.6109703700716075  0.14843256772551983  1.0000
  H   H346      1.0  0.05610015433985761  0.571116259348314  0.1433691212154635  1.0000
  H   H347      1.0  0.026249062727155104  0.5481291833655226  0.17265515253057273  1.0000
  H   H348      1.0  0.06482949873181192  0.5738530517877303  0.18693979227670898  1.0000
  N   N14       1.0  0.79205618402749  0.6625364026287219  0.6418341868707937  1.0000
  C   C341      1.0  0.76388435127635  0.6335472019118392  0.6324169605806347  1.0000
  C   C342      1.0  0.8012251091678104  0.6851668340137614  0.6142956095819777  1.0000
  C   C343      1.0  0.8170571392017215  0.6557708010685277  0.648849100608177  1.0000
  C   C344      1.0  0.7857855404999456  0.6754233847736664  0.6717914069800323  1.0000
  H   H349      1.0  0.7561988074578393  0.6161740636248046  0.6528805073545055  1.0000
  H   H350      1.0  0.7676838648123713  0.622897108465445  0.6100858570117862  1.0000
  H   H351      1.0  0.7445008682135787  0.6376236116189877  0.6267408933712173  1.0000
  H   H352      1.0  0.8223831610812441  0.7074420114724733  0.6205251557629471  1.0000
  H   H353      1.0  0.806048531101669  0.6759878149023987  0.5913588332445858  1.0000
  H   H354      1.0  0.78261098692721  0.6904706272508002  0.6084340052828345  1.0000
  H   H355      1.0  0.8389711531112876  0.677175975589415  0.6552910114250855  1.0000
  H   H356      1.0  0.8215954649139714  0.6448286992353768  0.6271828724605442  1.0000
  H   H357      1.0  0.8109771775397712  0.6392353056535541  0.6700482873399428  1.0000
  H   H358      1.0  0.8061710898632722  0.6978825184296985  0.6791287017962078  1.0000
  H   H359      1.0  0.7797163729476889  0.6591606114752884  0.693219597774996  1.0000
  H   H360      1.0  0.7660218342720541  0.6794174715549632  0.6677974317239191  1.0000
  N   N15       1.0  0.4583628610352463  0.47591846817321515  0.04584145893456026  1.0000
  C   C345      1.0  0.4413773542347842  0.4632450893151621  0.014500919425810787  1.0000
  C   C346      1.0  0.48828241971420616  0.504130661256208  0.03870725307515234  1.0000
  C   C347      1.0  0.4636815768858236  0.4523166551626656  0.06213941456695425  1.0000
  C   C348      1.0  0.4399814518691153  0.48388776090161717  0.06800956222057129  1.0000
  H   H361      1.0  0.4542501360980336  0.45652385004133494  0.9972284214006403  1.0000
  H   H362      1.0  0.43704710880215686  0.4804341242859891  0.0014122002867029693  1.0000
  H   H363      1.0  0.41853496300130894  0.442179527896548  0.019064016495910444  1.0000
  H   H364      1.0  0.5017554323858746  0.5143830155781031  0.06179194575390034  1.0000
  H   H365      1.0  0.5026680681572964  0.49895072346341135  0.02191781100481547  1.0000
  H   H366      1.0  0.4851420288224463  0.5224523771849066  0.026378610384961608  1.0000
  H   H367      1.0  0.4763607264474164  0.46095246719293  0.08596462701082778  1.0000
  H   H368      1.0  0.47719754077089793  0.4454135744220884  0.04606825502176397  1.0000
  H   H369      1.0  0.44153301854629134  0.4307916605864106  0.0679102086598389  1.0000
  H   H370      1.0  0.4521455992639777  0.49378394248464424  0.09182468867078719  1.0000
  H   H371      1.0  0.4173863984581224  0.4630281375183389  0.07410508688974678  1.0000
  H   H372      1.0  0.43486609922738984  0.5010631676057035  0.05625799235398744  1.0000
  N   N16       1.0  0.040514471320238714  0.6768151194072067  0.5669073012156841  1.0000
  C   C349      1.0  0.02306211049114666  0.6426502614602994  0.5637729665175271  1.0000
  C   C350      1.0  0.058698325482361084  0.6905996070539882  0.5363930800728935  1.0000
  C   C351      1.0  0.06133321948831753  0.6855150310124204  0.5958821732826342  1.0000
  C   C352      1.0  0.018717568593804884  0.688280444793228  0.5714704484447147  1.0000
  H   H373      1.0  0.00876627595771217  0.6314244525004343  0.5861454259896887  1.0000
  H   H374      1.0  0.03860955770908607  0.632961676170236  0.5605221742193504  1.0000
  H   H375      1.0  0.007271333219605055  0.6354523415802487  0.5421005220580756  1.0000
  H   H376      1.0  0.07240093838737374  0.7163994191857135  0.5378686855143519  1.0000
  H   H377      1.0  0.07499497231252901  0.6820106375324929  0.5317617622028578  1.0000
  H   H378      1.0  0.043457850355938785  0.684581246324644  0.5141750528051664  1.0000
  H   H379      1.0  0.07814819797480028  0.6772952180414729  0.5931928937596483  1.0000
  H   H380      1.0  0.048231561397876606  0.6750367277653652  0.6191950130159403  1.0000
  H   H381      1.0  0.07462850379615901  0.7111491103306068  0.5993896661581104  1.0000
  H   H382      1.0  0.004556418160334591  0.6782576607784085  0.5942347689089326  1.0000
  H   H383      1.0  0.002509082725141497  0.6818336129267164  0.5500730668331261  1.0000
  H   H384      1.0  0.031014656842604033  0.7140255700524304  0.573785395424311  1.0000
  N   N17       1.0  0.21589964859050445  0.6827849937012823  0.7451138812491807  1.0000
  C   C353      1.0  0.19351125837793262  0.6852103386149817  0.7233058890640269  1.0000
  C   C354      1.0  0.19966245846088174  0.6541186524886351  0.7653546488072839  1.0000
  C   C355      1.0  0.23060335341001864  0.7101792724877499  0.7670963194593879  1.0000
  C   C356      1.0  0.23962498019979694  0.68163914570916  0.7245981522630186  1.0000
  H   H385      1.0  0.20455494372905791  0.7069333626702936  0.7081792295432755  1.0000
  H   H386      1.0  0.17515414209351116  0.6854538928659105  0.7382065162644832  1.0000
  H   H387      1.0  0.18181178864817274  0.6649812199291726  0.706264179545195  1.0000
  H   H388      1.0  0.18151359768691736  0.6542396341970371  0.7810590199448576  1.0000
  H   H389      1.0  0.18774228311767086  0.6330082436539441  0.7495113189247193  1.0000
  H   H390      1.0  0.21567534903224475  0.6512116589430956  0.7821195108488224  1.0000
  H   H391      1.0  0.24776695223744744  0.7093522029079272  0.783925154573936  1.0000
  H   H392      1.0  0.21324082380225015  0.7117098268264688  0.7828692097161437  1.0000
  H   H393      1.0  0.2425122420749774  0.7322801175440588  0.7526060958325707  1.0000
  H   H394      1.0  0.25695560511776283  0.6798230128462294  0.7402561617750528  1.0000
  H   H395      1.0  0.25209677162917316  0.7028846801435765  0.7088881764335191  1.0000
  H   H396      1.0  0.22910793455740758  0.6611917282470545  0.7077494965586951  1.0000
  N   N18       1.0  0.7466315722461017  0.10401617607084021  0.49475808274263083  1.0000
  C   C357      1.0  0.7245535765687255  0.11177006113156303  0.4794080519631871  1.0000
  C   C358      1.0  0.7322028599992257  0.08387497882144468  0.5240432991980483  1.0000
  C   C359      1.0  0.7746118941712042  0.13295417235113938  0.5050298275851622  1.0000
  C   C360      1.0  0.755177055245137  0.08757633016925886  0.4703649328887714  1.0000
  H   H397      1.0  0.7349423041498344  0.12721769795525759  0.4575155341992539  1.0000
  H   H398      1.0  0.7172366382791352  0.1238980897932105  0.4970920853677034  1.0000
  H   H399      1.0  0.7033087633031921  0.09052784593444373  0.47084262003601934  1.0000
  H   H400      1.0  0.7105000641647004  0.062281254918337935  0.5172958844944131  1.0000
  H   H401      1.0  0.7477844938746997  0.07669659407058203  0.5357583605978709  1.0000
  H   H402      1.0  0.7261030898392337  0.09587640496306027  0.5432135992681608  1.0000
  H   H403      1.0  0.7865100957156644  0.1481974126362927  0.4832869908999549  1.0000
  H   H404      1.0  0.7915010715814921  0.12798391728973132  0.5174838618989834  1.0000
  H   H405      1.0  0.769016404142882  0.14665748905942463  0.5224910021187392  1.0000
  H   H406      1.0  0.7721535499607252  0.0816998055047842  0.48086332018892664  1.0000
  H   H407      1.0  0.7656763837824367  0.10205373920913963  0.4477192322447526  1.0000
  H   H408      1.0  0.7347143576279368  0.06552590784253791  0.46220265338252403  1.0000
  N   N19       1.0  0.7179205688217083  0.10119524310593034  0.009857502242971607  1.0000
  C   C361      1.0  0.7013660393524359  0.07293027331765953  0.03064195873259911  1.0000
  C   C362      1.0  0.7491511101092908  0.12144344385311534  0.023487416201495036  1.0000
  C   C363      1.0  0.7005960603750407  0.11800095428372835  0.0096178629433608  1.0000
  C   C364      1.0  0.7204558947458735  0.09237152186142863  0.9755901279759988  1.0000
  H   H409      1.0  0.6772589444926443  0.05782793014853844  0.021901710049123696  1.0000
  H   H410      1.0  0.7000611842935216  0.07874452740194096  0.056961211541462005  1.0000
  H   H411      1.0  0.7127884534519541  0.058681294381213445  0.03019759760697921  1.0000
  H   H412      1.0  0.7624048951903499  0.1428958646944044  0.008251778254974857  1.0000
  H   H413      1.0  0.7482289796029071  0.12886556166243615  0.04923227718937539  1.0000
  H   H414      1.0  0.762708615813467  0.10931683404185258  0.024041692641972087  1.0000
  H   H415      1.0  0.7124066038010733  0.13951037547539674  0.9942989218808214  1.0000
  H   H416      1.0  0.6979628266877027  0.12482578036902843  0.03508766379762235  1.0000
  H   H417      1.0  0.6770055117489965  0.10331136647679656  0.9990847598020102  1.0000
  H   H418      1.0  0.7339426801380556  0.11319318850687678  0.9595545381041065  1.0000
  H   H419      1.0  0.6973252391571784  0.0782759972748707  0.964049130361666  1.0000
  H   H420      1.0  0.7321390184887601  0.07839544546131272  0.9747607292819499  1.0000
  N   N20       1.0  0.7344303318175741  0.22954992442992053  0.3864691765276674  1.0000
  C   C365      1.0  0.7432622720792964  0.20897306594735107  0.3694077701461366  1.0000
  C   C366      1.0  0.721892694041913  0.24254063960863306  0.3619814742141419  1.0000
  C   C367      1.0  0.761843142851748  0.2551334355642386  0.4027301794819453  1.0000
  C   C368      1.0  0.7106307531701224  0.21148097656467885  0.4116640208161525  1.0000
  H   H421      1.0  0.7521365583241869  0.19805798067725597  0.38711565673569304  1.0000
  H   H422      1.0  0.7615982296001745  0.22183876236010996  0.35062971341975324  1.0000
  H   H423      1.0  0.723232917346085  0.18990653530247706  0.35621862055484604  1.0000
  H   H424      1.0  0.7390497264536281  0.2560084940696737  0.3423282675988282  1.0000
  H   H425      1.0  0.7010551649545927  0.22376027207329394  0.3494123509533448  1.0000
  H   H426      1.0  0.7149496185801554  0.2581832279952456  0.373943309293295  1.0000
  H   H427      1.0  0.7560240178326044  0.270977999073117  0.4161825886967933  1.0000
  H   H428      1.0  0.7802200097760252  0.26930181274533094  0.3844113797261271  1.0000
  H   H429      1.0  0.772060001536344  0.2461090183016255  0.42108769422749764  1.0000
  H   H430      1.0  0.7032100488338786  0.22618018465994214  0.42489538975221564  1.0000
  H   H431      1.0  0.7192104976615225  0.20127159634762615  0.43055516679214956  1.0000
  H   H432      1.0  0.6896539557650875  0.19194578273350743  0.40014717942355627  1.0000
  N   N21       1.0  0.6630455887049356  0.8879953319396389  0.02019008497660959  1.0000
  C   C369      1.0  0.6639149479179326  0.8602471048608045  0.00883278894079974  1.0000
  C   C370      1.0  0.6920170826825932  0.9163781958606089  0.010819005383528384  1.0000
  C   C371      1.0  0.6595416725242494  0.8866986153319006  0.05662358069353998  1.0000
  C   C372      1.0  0.6367096337791496  0.8887068421655322  0.0045468317726271475  1.0000
  H   H433      1.0  0.6837669519381175  0.8592179047061874  0.019792821100953425  1.0000
  H   H434      1.0  0.6658062306714121  0.859986651372784  0.9813685387749034  1.0000
  H   H435      1.0  0.642687817347433  0.8384367003279436  0.016219143800331102  1.0000
  H   H436      1.0  0.6919214501850411  0.9377105354918633  0.018912430348443417  1.0000
  H   H437      1.0  0.7123632616513783  0.9168708011331828  0.02253353040391051  1.0000
  H   H438      1.0  0.6954689113310673  0.9181139450809921  0.9834871890029041  1.0000
  H   H439      1.0  0.6596081506838323  0.9076421005039614  0.06616323042352448  1.0000
  H   H440      1.0  0.6784839552080761  0.8852708545055399  0.06936803443783507  1.0000
  H   H441      1.0  0.6374695628514179  0.8661494266454145  0.06454997341929952  1.0000
  H   H442      1.0  0.6352957018697482  0.9092949384860255  0.012766457469511725  1.0000
  H   H443      1.0  0.614445978492346  0.8676774943540463  0.011082303971724777  1.0000
  H   H444      1.0  0.6386369663195081  0.8898910147711824  0.9770491226480698  1.0000
  N   N22       1.0  0.7239473535421099  0.5070843880266601  0.12417406254683705  1.0000
  C   C373      1.0  0.6988630872760468  0.474328331311347  0.12247303867744809  1.0000
  C   C374      1.0  0.752842603779971  0.5098538709230005  0.1114873289816904  1.0000
  C   C375      1.0  0.7283972039086729  0.5176088386388135  0.15897226957344976  1.0000
  C   C376      1.0  0.715586555443045  0.5265761179937273  0.10385940160056902  1.0000
  H   H445      1.0  0.6767250085082395  0.47164055200225086  0.13173685849744698  1.0000
  H   H446      1.0  0.7041769647707307  0.4589861113564483  0.1378664295552977  1.0000
  H   H447      1.0  0.694874914506842  0.46557045207110626  0.09656595610517482  1.0000
  H   H448      1.0  0.7723362034506562  0.5341944042767671  0.11311435620288673  1.0000
  H   H449      1.0  0.7596507713212612  0.49516762842920126  0.1259974934649191  1.0000
  H   H450      1.0  0.750649819522342  0.5028097698048333  0.08502812724293031  1.0000
  H   H451      1.0  0.7464097457845399  0.5425150884190286  0.16107088855845172  1.0000
  H   H452      1.0  0.735612591220677  0.5041386967491241  0.1750137440449475  1.0000
  H   H453      1.0  0.7068279561937388  0.5150852150835791  0.16959053592746207  1.0000
  H   H454      1.0  0.7339223679649617  0.5515008071308855  0.10470929130197872  1.0000
  H   H455      1.0  0.6938286527515622  0.5249584778378367  0.11286340404974983  1.0000
  H   H456      1.0  0.712038459379995  0.519365123735966  0.07741482642067476  1.0000
  N   N23       1.0  0.36889166620585645  0.1296374702693843  0.9405986251676716  1.0000
  C   C377      1.0  0.4013807747017786  0.14355284756042352  0.9511475418793406  1.0000
  C   C378      1.0  0.34854552314206994  0.11318175268304115  0.9690235579067755  1.0000
  C   C379      1.0  0.362530594843145  0.1072933082897921  0.9135619867134173  1.0000
  C   C380      1.0  0.3632585789055359  0.15446734536834963  0.928567196962646  1.0000
  H   H457      1.0  0.417414742317366  0.15611414882400568  0.9302452092784598  1.0000
  H   H458      1.0  0.40646614744543247  0.12542080366346714  0.9603199289719894  1.0000
  H   H459      1.0  0.40704983128729966  0.16054139692952926  0.9715317101269811  1.0000
  H   H460      1.0  0.3238068887494278  0.10224925263931445  0.9620185122205575  1.0000
  H   H461      1.0  0.35250182592857787  0.09428890619235888  0.9783620698320702  1.0000
  H   H462      1.0  0.3528119777823114  0.1292446199633156  0.9900430092700891  1.0000
  H   H463      1.0  0.3382253905178822  0.09627372002885945  0.9049585431949038  1.0000
  H   H464      1.0  0.36672806794131585  0.08832577713593777  0.9216569385981493  1.0000
  H   H465      1.0  0.3775404187535673  0.11885893446974939  0.8917271858241503  1.0000
  H   H466      1.0  0.33899066530020705  0.14485836300612676  0.9202609585827207  1.0000
  H   H467      1.0  0.37842788481158984  0.16707692583308215  0.9070076341329105  1.0000
  H   H468      1.0  0.36801717390094485  0.17192913199165838  0.9482146969977218  1.0000
  N   N24       1.0  0.27174843777826885  0.9101999047307296  0.7191842551302462  1.0000
  C   C381      1.0  0.29939802934939164  0.9127903625906785  0.735434962190013  1.0000
  C   C382      1.0  0.27432621519495726  0.9082969222961081  0.6828982101371271  1.0000
  C   C383      1.0  0.26940674233423406  0.9378963054886138  0.7271707577346469  1.0000
  C   C384      1.0  0.24394160355414599  0.8818723384139889  0.7311371132751492  1.0000
  H   H469      1.0  0.2984140060077859  0.9145062885791028  0.7628319222710077  1.0000
  H   H470      1.0  0.3208033832307978  0.9338731528503965  0.7267768353120659  1.0000
  H   H471      1.0  0.3019478567467296  0.8923152203694188  0.7299316285317641  1.0000
  H   H472      1.0  0.29452849872685927  0.9296512991750838  0.6728870675872437  1.0000
  H   H473      1.0  0.27723598857122367  0.888325927413617  0.6760074234158713  1.0000
  H   H474      1.0  0.25353337325739794  0.9053809155387488  0.6697331980136702  1.0000
  H   H475      1.0  0.29024775344810994  0.959648568191523  0.718652831585179  1.0000
  H   H476      1.0  0.2673336084245854  0.940051888807643  0.7543455720864951  1.0000
  H   H477      1.0  0.24911193297004441  0.9370333755210924  0.7148805493939082  1.0000
  H   H478      1.0  0.22261622652534846  0.8794199306326884  0.7197142761632805  1.0000
  H   H479      1.0  0.24156736446824778  0.8820419581239868  0.7585378155279692  1.0000
  H   H480      1.0  0.24470986225229865  0.8605438295581936  0.7247425922423069  1.0000
  N   N25       1.0  0.3881837559643395  0.44734038035852014  0.5807354514986562  1.0000
  C   C385      1.0  0.4039573050441923  0.4429881991435861  0.5521805139991233  1.0000
  C   C386      1.0  0.40678529764576804  0.4795395871760117  0.59295059155496  1.0000
  C   C387      1.0  0.38444145645213357  0.4251801477689525  0.6073839343318685  1.0000
  C   C388      1.0  0.3575172015001817  0.44162548747538494  0.5702283019205099  1.0000
  H   H481      1.0  0.389571290038365  0.41967548334238575  0.5409723342336916  1.0000
  H   H482      1.0  0.42633837313157863  0.44512254389434913  0.5595011338566357  1.0000
  H   H483      1.0  0.40866752163025766  0.46045773391703904  0.5323604879965064  1.0000
  H   H484      1.0  0.40979389275396366  0.4967023314591269  0.5732662776961663  1.0000
  H   H485      1.0  0.39561736993693486  0.4837122414838861  0.6145353034574785  1.0000
  H   H486      1.0  0.43017732156394595  0.48469255548624207  0.6007855497623242  1.0000
  H   H487      1.0  0.36997590551438986  0.4007411083501558  0.5989488626535732  1.0000
  H   H488      1.0  0.3730171133919376  0.42804956239506  0.6295740016689884  1.0000
  H   H489      1.0  0.40701569617925815  0.4281155336320668  0.6153808409810401  1.0000
  H   H490      1.0  0.35948176231612045  0.4579014785442195  0.5500503208306996  1.0000
  H   H491      1.0  0.3448407109495435  0.4446256891493255  0.5910964982179844  1.0000
  H   H492      1.0  0.34291741568933104  0.417518859792882  0.5606819116005068  1.0000
  N   N26       1.0  0.014572809286624855  0.30821271127360284  0.23654103076863478  1.0000
  C   C389      1.0  0.9881437300574958  0.27925035000510706  0.223769101779978  1.0000
  C   C390      1.0  0.003289104036546364  0.32783787575572515  0.2510780702568977  1.0000
  C   C391      1.0  0.03600607187605909  0.3252162123288725  0.20904695701270853  1.0000
  C   C392      1.0  0.03080972398894133  0.3006074561825617  0.2622955978238868  1.0000
  H   H493      1.0  0.9714081937649136  0.26600419392278185  0.2438760485565223  1.0000
  H   H494      1.0  0.9957989760281335  0.2638184322747078  0.21269752122924512  1.0000
  H   H495      1.0  0.97552045373536  0.2842829811451604  0.2041575112151273  1.0000
  H   H496      1.0  0.022778207882981016  0.35054741612802726  0.25948455777080653  1.0000
  H   H497      1.0  0.9895893391014297  0.33275212409198196  0.232878734283586  1.0000
  H   H498      1.0  0.9884430976646061  0.3165279863177982  0.2731210188376387  1.0000
  H   H499      1.0  0.045347432980958  0.3113704460176308  0.19764246778034392  1.0000
  H   H500      1.0  0.05604223247752449  0.34746280796649565  0.2177096376647718  1.0000
  H   H501      1.0  0.02446450765414432  0.3311899989920069  0.1890655915797999  1.0000
  H   H502      1.0  0.05073825537092436  0.32202636140449686  0.2725464568198419  1.0000
  H   H503      1.0  0.03976093740171627  0.28587401170818166  0.25234657809140787  1.0000
  H   H504      1.0  0.015436163038932138  0.28814761256415666  0.2836782985228923  1.0000
  N   N27       1.0  0.03890261929351402  0.336672903056275  0.5834385129132763  1.0000
  C   C393      1.0  0.04940873872835483  0.34095435167546134  0.6183141447283623  1.0000
  C   C394      1.0  0.0468643694303672  0.3153075647087789  0.5666582386034609  1.0000
  C   C395      1.0  0.05417680912419831  0.3670290807351699  0.5661039986995936  1.0000
  C   C396      1.0  0.005120694444660234  0.3233491280669283  0.5825250090749153  1.0000
  H   H505      1.0  0.0429607906848839  0.3562812883794039  0.631871989125687  1.0000
  H   H506      1.0  0.07491447581004218  0.3518724004296849  0.6200744210166508  1.0000
  H   H507      1.0  0.0388714211992105  0.31844541380461133  0.6319752016543018  1.0000
  H   H508      1.0  0.039335497973169264  0.31185641384867663  0.5401903535926063  1.0000
  H   H509      1.0  0.07217868395693516  0.3245236499310485  0.5669188920851029  1.0000
  H   H510      1.0  0.03547592225699914  0.2920121129517162  0.5787495289504118  1.0000
  H   H511      1.0  0.046555868812288015  0.3646867306808338  0.5397988465734463  1.0000
  H   H512      1.0  0.07968567342510546  0.3776365820129137  0.5661334210567447  1.0000
  H   H513      1.0  0.04883643600499821  0.38381359200146736  0.57802705370188  1.0000
  H   H514      1.0  0.9963533621022176  0.3192631869999961  0.5566282724786183  1.0000
  H   H515      1.0  0.99818411331774  0.3390728241599916  0.5941946270279511  1.0000
  H   H516      1.0  0.9928260273408864  0.3007175553191337  0.5959033038756546  1.0000
  N   N28       1.0  0.6780605918026293  0.8887754547365554  0.5194058786690658  1.0000
  C   C397      1.0  0.7090434034222696  0.8922523573460457  0.517687700397864  1.0000
  C   C398      1.0  0.6552450221061697  0.858899985061282  0.5043631698009697  1.0000
  C   C399      1.0  0.677964443638533  0.9146109700148515  0.5012238535221517  1.0000
  C   C400      1.0  0.6699048516067129  0.889325715122397  0.5544537408936475  1.0000
  H   H517      1.0  0.7266771836136896  0.9144005684115258  0.529310483367063  1.0000
  H   H518      1.0  0.7161219792839378  0.8922922883990155  0.4915634734701722  1.0000
  H   H519      1.0  0.7096584377810511  0.87286528670274  0.5309450457036736  1.0000
  H   H520      1.0  0.6611727110610995  0.8570524098669712  0.4782523610744793  1.0000
  H   H521      1.0  0.6536124437263608  0.8387550054264833  0.5183883522704467  1.0000
  H   H522      1.0  0.6318521273123751  0.8562237630945265  0.5042128836280635  1.0000
  H   H523      1.0  0.6551703057335052  0.9132985256272845  0.5031672144107454  1.0000
  H   H524      1.0  0.6830633357219519  0.9144757611928945  0.47444256246580974  1.0000
  H   H525      1.0  0.6953783145013948  0.9375855469297989  0.5114734603625595  1.0000
  H   H526      1.0  0.6461555761096462  0.8853604027152806  0.5567146445165412  1.0000
  H   H527      1.0  0.6856554361238473  0.9121015588362095  0.5662900608617852  1.0000
  H   H528      1.0  0.670573952672331  0.8707415832414758  0.5693406316061808  1.0000
  N   N29       1.0  0.3102835224760217  0.5053592973444092  0.8891532212500008  1.0000
  C   C401      1.0  0.31336193566295534  0.48103613652942206  0.8717397247500573  1.0000
  C   C402      1.0  0.27908659827630095  0.5006089362067461  0.883360678010217  1.0000
  C   C403      1.0  0.3337814845265313  0.5362231503271017  0.876502973658199  1.0000
  C   C404      1.0  0.315015473825023  0.5034358722719429  0.9250769191076802  1.0000
  H   H529      1.0  0.33692815827307393  0.4844149704153898  0.874961206016197  1.0000
  H   H530      1.0  0.30911558430829167  0.4811340168443446  0.8446599118683578  1.0000
  H   H531      1.0  0.29659226467560484  0.4575302127767338  0.8814313790431865  1.0000
  H   H532      1.0  0.27596650242384196  0.5187073653719113  0.8958750440468124  1.0000
  H   H533      1.0  0.2743812792705182  0.5012299674263387  0.8564511527580373  1.0000
  H   H534      1.0  0.2609718684757901  0.4776311732997805  0.8931125846827788  1.0000
  H   H535      1.0  0.3322573319510257  0.5552212173005568  0.8891389914446401  1.0000
  H   H536      1.0  0.3310276381849711  0.5384081615330314  0.8493971929968628  1.0000
  H   H537      1.0  0.3575464830934094  0.5402922611633104  0.8806500781392711  1.0000
  H   H538      1.0  0.3128054116614039  0.5213752882092537  0.9391334921952522  1.0000
  H   H539      1.0  0.3383723021697648  0.5068958535215413  0.9302733660422473  1.0000
  H   H540      1.0  0.29773980541462775  0.4803206562794348  0.9354175004579618  1.0000
  N   N30       1.0  0.3645703167392885  0.23136143042935486  0.27852732548145326  1.0000
  C   C405      1.0  0.3434391701299301  0.2380049682584512  0.259186422522158  1.0000
  C   C406      1.0  0.3815871100221651  0.22211589437068882  0.2557936073549372  1.0000
  C   C407      1.0  0.34667906775399904  0.2058443191841776  0.3023056799373555  1.0000
  C   C408      1.0  0.3866001257998951  0.25952832357098715  0.2968917260769334  1.0000
  H   H541      1.0  0.3306365225713698  0.24564047680637646  0.275492867985016  1.0000
  H   H542      1.0  0.32630039523030735  0.2173147175884214  0.2450879475902308  1.0000
  H   H543      1.0  0.3562947662359912  0.2571734062959814  0.2410347419224696  1.0000
  H   H544      1.0  0.39652558757146206  0.2413437847519077  0.2384342239263753  1.0000
  H   H545      1.0  0.3967613892913771  0.21561425785867183  0.2696615099984228  1.0000
  H   H546      1.0  0.36568015563485845  0.2017199337553981  0.2405098019357753  1.0000
  H   H547      1.0  0.36207014011019006  0.20033223106693343  0.31728454312307075  1.0000
  H   H548      1.0  0.3298342604331498  0.18417472919073738  0.28932652083235216  1.0000
  H   H549      1.0  0.3336368451793222  0.21209875218430777  0.3198989643489833  1.0000
  H   H550      1.0  0.40229365988170224  0.2551890510491849  0.31264979023998374  1.0000
  H   H551      1.0  0.37450974571834594  0.26791049911088394  0.3133066289472659  1.0000
  H   H552      1.0  0.4010511240053669  0.2789863391559874  0.2796547548838714  1.0000
  N   N31       1.0  0.9937187033427872  0.4318362978283066  0.929866757778423  1.0000
  C   C409      1.0  0.9843015278237686  0.402685851792626  0.9483001549195683  1.0000
  C   C410      1.0  0.9667039840954348  0.4295137689000436  0.9123692135810829  1.0000
  C   C411      1.0  0.017792869554641006  0.4369485414396031  0.9054835544307954  1.0000
  C   C412      1.0  0.005908050429390476  0.458050410174219  0.9534105543437515  1.0000
  H   H553      1.0  0.004130178111244844  0.40320728255158356  0.9613963158978298  1.0000
  H   H554      1.0  0.9741429292543555  0.38229381311389804  0.9314772728029451  1.0000
  H   H555      1.0  0.9666446563748465  0.39843848860354053  0.9673251394386683  1.0000
  H   H556      1.0  0.9729040579476984  0.45118493827795014  0.8982944452549526  1.0000
  H   H557      1.0  0.9568282866633108  0.4098758090236201  0.8944886897823102  1.0000
  H   H558      1.0  0.9480446983467519  0.42548891640802594  0.9301040329097672  1.0000
  H   H559      1.0  0.009188342981561381  0.4175913904825787  0.8872483523743949  1.0000
  H   H560      1.0  0.03836873154074139  0.43840820139564085  0.9178072689985043  1.0000
  H   H561      1.0  0.025689983889391296  0.4588845632212964  0.891193400148144  1.0000
  H   H562      1.0  0.013341357820602513  0.4805161003988712  0.9404010422901575  1.0000
  H   H563      1.0  0.026100375625347273  0.4602657300689303  0.9673402229046847  1.0000
  H   H564      1.0  0.9880883215316706  0.45482734122488033  0.9719743141792933  1.0000
  N   N32       1.0  0.5052383029218952  0.8842367939655308  0.22521683433465756  1.0000
  C   C413      1.0  0.5252999842198721  0.8712770438731898  0.23338777004416747  1.0000
  C   C414      1.0  0.4853035092226382  0.8802433570740574  0.2538920844582619  1.0000
  C   C415      1.0  0.48584315504755554  0.8678075032425362  0.1962073121004339  1.0000
  C   C416      1.0  0.5245367379142356  0.9177036822435858  0.21744395851756101  1.0000
  H   H565      1.0  0.5116873021473849  0.8461396471301107  0.23973453203177553  1.0000
  H   H566      1.0  0.5408693501556431  0.8836871938561343  0.25462208927213975  1.0000
  H   H567      1.0  0.54053368547425  0.8738330674801654  0.21221653823004116  1.0000
  H   H568      1.0  0.4697565746588307  0.8896795658637122  0.24842625341413338  1.0000
  H   H569      1.0  0.4705055468650731  0.8552749513806084  0.26058252091693396  1.0000
  H   H570      1.0  0.4992898181827703  0.8926089918705985  0.27608302131744017  1.0000
  H   H571      1.0  0.47163457176605234  0.8423647202442006  0.2007765888113092  1.0000
  H   H572      1.0  0.5001269688252433  0.8711872389250264  0.1737674589139424  1.0000
  H   H573      1.0  0.4698081731838635  0.876425305675879  0.18991697596641227  1.0000
  H   H574      1.0  0.5384153715569481  0.9215414404014138  0.19457369323383744  1.0000
  H   H575      1.0  0.5411944625734681  0.9304891392386972  0.23775109883175455  1.0000
  H   H576      1.0  0.5103251838630072  0.9287906041465394  0.21358084307583908  1.0000
  N   N33       1.0  0.9259964166800666  0.6818611442920499  0.1267068703447889  1.0000
  C   C417      1.0  0.9344232060529231  0.706636372881167  0.101659084915928  1.0000
  C   C418      1.0  0.9248224758474473  0.6546914246186232  0.1107314122154678  1.0000
  C   C419      1.0  0.8954128673440517  0.6726874677364033  0.1408327190686905  1.0000
  C   C420      1.0  0.9494092416564948  0.6932896625551859  0.15337397515639642  1.0000
  H   H577      1.0  0.9357878786039515  0.7277095958336633  0.11275374635681279  1.0000
  H   H578      1.0  0.9172190508487096  0.6986750803395847  0.08115138550333618  1.0000
  H   H579      1.0  0.9572713990581517  0.7136779741062929  0.09032524593904195  1.0000
  H   H580      1.0  0.9476559098620682  0.6606248903343378  0.10033741150946608  1.0000
  H   H581      1.0  0.9179103098199597  0.6352206560623203  0.12860881443508812  1.0000
  H   H582      1.0  0.9079455570298982  0.6458691682555624  0.089939890585949  1.0000
  H   H583      1.0  0.8886846504780958  0.6543993945865733  0.16025566637763064  1.0000
  H   H584      1.0  0.8770585323483591  0.6629757564553417  0.12147694470749816  1.0000
  H   H585      1.0  0.8950997177768001  0.6927439701508096  0.15245617715611828  1.0000
  H   H586      1.0  0.9440408525645442  0.6749925571736082  0.1724584563651147  1.0000
  H   H587      1.0  0.9508876753676538  0.7137282060038098  0.16619247212402288  1.0000
  H   H588      1.0  0.9727705770180234  0.7004390957624538  0.14341206114164473  1.0000
  N   N34       1.0  0.25263407187311293  0.8539426282105795  0.060746006851731954  1.0000
  C   C421      1.0  0.27687151135715315  0.8469610643536993  0.07072311084386443  1.0000
  C   C422      1.0  0.23341001158711625  0.8321645510591466  0.03446917562786795  1.0000
  C   C423      1.0  0.26717838749850675  0.8862175520953698  0.04806189362320316  1.0000
  C   C424      1.0  0.23315841716242838  0.8503600875277298  0.08977536039906205  1.0000
  H   H589      1.0  0.26686843224570445  0.8227807483908941  0.08040456332593707  1.0000
  H   H590      1.0  0.2912419999181609  0.862589868627607  0.09094024389113539  1.0000
  H   H591      1.0  0.2925830471473396  0.8501058717448957  0.04978127156178488  1.0000
  H   H592      1.0  0.21485089148110745  0.8367640011931501  0.026302662662829754  1.0000
  H   H593      1.0  0.2474507594624323  0.8341811928822035  0.012277372887245236  1.0000
  H   H594      1.0  0.222136388659796  0.8076124143275372  0.04329612776726145  1.0000
  H   H595      1.0  0.24966957667321404  0.8924250205737719  0.04023069727436449  1.0000
  H   H596      1.0  0.2824200865364349  0.889863183790255  0.026439184678641  1.0000
  H   H597      1.0  0.2819769438492919  0.9032792244011177  0.06720751485036748  1.0000
  H   H598      1.0  0.21442257545171753  0.8552214961854303  0.08330918483727275  1.0000
  H   H599      1.0  0.2469304107561235  0.8664069497372694  0.11015600576899862  1.0000
  H   H600      1.0  0.22236890209939325  0.8264226501455676  0.10038406757879953  1.0000
  N   N35       1.0  0.9483350646336033  0.43794985253799096  0.6051670691092537  1.0000
  C   C425      1.0  0.9685180685917838  0.43434187297355215  0.5812218724100119  1.0000
  C   C426      1.0  0.916756440431678  0.4109736264096867  0.6026740652712255  1.0000
  C   C427      1.0  0.9477830891293552  0.46678626268391027  0.5975777296140087  1.0000
  C   C428      1.0  0.9602649144793485  0.4395488569985666  0.6391130886322499  1.0000
  H   H601      1.0  0.9925303760334144  0.4543160699817085  0.5821920899765196  1.0000
  H   H602      1.0  0.9600477263830418  0.43266882689684294  0.5553955077288106  1.0000
  H   H603      1.0  0.9694594714417506  0.4128547286471534  0.5863574144315384  1.0000
  H   H604      1.0  0.907085690531017  0.40902789840916787  0.577308740167527  1.0000
  H   H605      1.0  0.916358738799152  0.38878714028746986  0.6082129940033433  1.0000
  H   H606      1.0  0.9008495067113939  0.41285017220710263  0.6204192958709618  1.0000
  H   H607      1.0  0.9327712059947458  0.470313900324257  0.6151766207301822  1.0000
  H   H608      1.0  0.938773950660786  0.4661879958059573  0.5721402882385416  1.0000
  H   H609      1.0  0.9712403758243487  0.4876645065003945  0.5990700194475644  1.0000
  H   H610      1.0  0.9457118532175461  0.44240941437235626  0.6579149858343747  1.0000
  H   H611      1.0  0.9842121233124633  0.4594285826254536  0.6418190852914106  1.0000
  H   H612      1.0  0.9607495961553878  0.41796930136764776  0.6455876307956846  1.0000
  N   N36       1.0  0.5144128373721378  0.30316501612756247  0.7742169787369182  1.0000
  C   C429      1.0  0.5144721767613946  0.30764096543357095  0.73795645314177  1.0000
  C   C430      1.0  0.5109394293656097  0.27237550888131534  0.7813405953929833  1.0000
  C   C431      1.0  0.4884088318057157  0.30477730905471767  0.7890950091641763  1.0000
  C   C432      1.0  0.5436736342160859  0.327923140638221  0.7883921612768143  1.0000
  H   H613      1.0  0.5169014528882503  0.3306288132757325  0.7317544575306182  1.0000
  H   H614      1.0  0.4926241313972807  0.2893639560891657  0.7264765766537375  1.0000
  H   H615      1.0  0.5338493998129771  0.3066991315757716  0.7258234092352714  1.0000
  H   H616      1.0  0.5302359705722054  0.2703067444288498  0.7706595477120044  1.0000
  H   H617      1.0  0.5102527930002453  0.2679069362283723  0.8084925648465568  1.0000
  H   H618      1.0  0.4891107452308533  0.25332564389292334  0.7706719235741191  1.0000
  H   H619      1.0  0.48642351241745246  0.29974157398580964  0.8161632901943111  1.0000
  H   H620      1.0  0.46619604839283035  0.2877566635556095  0.7774027473612469  1.0000
  H   H621      1.0  0.4910961429615537  0.3282292124733405  0.7857312131159553  1.0000
  H   H622      1.0  0.5442750439492536  0.32547055621945187  0.8157826208004314  1.0000
  H   H623      1.0  0.5468210467496848  0.3514071023826126  0.7831392636977172  1.0000
  H   H624      1.0  0.563871495302207  0.32746812690293364  0.7777555867951506  1.0000
  N   N37       1.0  0.5524084814171766  0.3526366119623131  0.23361385155450112  1.0000
  C   C433      1.0  0.5817081455530446  0.38207107323474243  0.23872888164822245  1.0000
  C   C434      1.0  0.5552373685136313  0.3261396036051166  0.2459592408167359  1.0000
  C   C435      1.0  0.5448708476348442  0.34852539088667445  0.19786872058026467  1.0000
  C   C436      1.0  0.5275655562539397  0.35375860189551234  0.2519012142439613  1.0000
  H   H625      1.0  0.5799086000460976  0.4024509132326681  0.23008746545626485  1.0000
  H   H626      1.0  0.600981740411518  0.382353676568812  0.2249007644438311  1.0000
  H   H627      1.0  0.5881783838395647  0.3858590548088686  0.2654258531906653  1.0000
  H   H628      1.0  0.5603646033263202  0.32815013319482605  0.2729981436204476  1.0000
  H   H629      1.0  0.533368927491247  0.3036435480734609  0.24210937847575917  1.0000
  H   H630      1.0  0.573873143959732  0.3245401922402338  0.23290461280964828  1.0000
  H   H631      1.0  0.5224780832818705  0.3268778226219557  0.19319005859392194  1.0000
  H   H632      1.0  0.5628066012969155  0.3469540701225563  0.1833115956258356  1.0000
  H   H633      1.0  0.5429317590710414  0.36829616503066814  0.18764036672454001  1.0000
  H   H634      1.0  0.5053745426335359  0.3315418881866121  0.2494435510829152  1.0000
  H   H635      1.0  0.5239548540632508  0.3727316428954747  0.24244264181487873  1.0000
  H   H636      1.0  0.5328201792666001  0.35787954549064627  0.27882937364225924  1.0000
  N   N38       1.0  0.9395245029368104  0.548740322713141  0.42289458693582727  1.0000
  C   C437      1.0  0.9433274027841537  0.5598318141246825  0.45736296916659974  1.0000
  C   C438      1.0  0.9372631609519246  0.5179470547743914  0.42259956397609266  1.0000
  C   C439      1.0  0.9663695540939047  0.5711051010782578  0.40298583718727027  1.0000
  C   C440      1.0  0.911032109388185  0.5461166450532977  0.40896182026359823  1.0000
  H   H637      1.0  0.944399497002391  0.582680713723325  0.45868592527926993  1.0000
  H   H638      1.0  0.9648485171729901  0.56265955306181  0.468588157494432  1.0000
  H   H639      1.0  0.9237086608195745  0.543250366861342  0.4731777660534553  1.0000
  H   H640      1.0  0.9582954366576144  0.5191003862712051  0.43333825252881464  1.0000
  H   H641      1.0  0.9172639229662908  0.5006394998286556  0.4376174692588531  1.0000
  H   H642      1.0  0.9343696213347112  0.5087284464291973  0.3969840451141289  1.0000
  H   H643      1.0  0.9642110102245233  0.5638057296312199  0.37663948097135336  1.0000
  H   H644      1.0  0.9882687554949457  0.5735331907541057  0.4127383020833452  1.0000
  H   H645      1.0  0.969051803595473  0.5947421263621959  0.40329756470204065  1.0000
  H   H646      1.0  0.8904345685093794  0.5296489813584845  0.42376852445257573  1.0000
  H   H647      1.0  0.9072051432730099  0.537681638000529  0.3829418167522786  1.0000
  H   H648      1.0  0.9120414055028429  0.5690131801781153  0.40903094977922283  1.0000
  N   N39       1.0  0.4745544371797137  0.9865763852054893  0.5585929486363916  1.0000
  C   C441      1.0  0.4508819378464106  0.9534514152582446  0.5547731920004302  1.0000
  C   C442      1.0  0.5007531675166358  0.9941150876670045  0.5363133052133391  1.0000
  C   C443      1.0  0.4854446890417396  0.9924367429897782  0.5933104823298181  1.0000
  C   C444      1.0  0.4611692026877016  0.006243261608466666  0.5499574218852658  1.0000
  H   H649      1.0  0.431164975130346  0.9466317288165585  0.5719684124258739  1.0000
  H   H650      1.0  0.46046872243763487  0.9379954665833405  0.5600241647875767  1.0000
  H   H651      1.0  0.4411784845482898  0.9483647321138391  0.5292114034449424  1.0000
  H   H652      1.0  0.5191288457344803  0.018925947685061617  0.5385608331790003  1.0000
  H   H653      1.0  0.5113431102115628  0.9795867765155772  0.5421182050161244  1.0000
  H   H654      1.0  0.49325055017862085  0.9898837191613844  0.5099184996931334  1.0000
  H   H655      1.0  0.4659987478759744  0.9855166440078764  0.6109726146404048  1.0000
  H   H656      1.0  0.5023904903669616  0.017422192047951368  0.5975372886086828  1.0000
  H   H657      1.0  0.4968129209738537  0.9789316929843166  0.6001087081122842  1.0000
  H   H658      1.0  0.4409860835384544  0.0007791814139639364  0.5658944635504741  1.0000
  H   H659      1.0  0.45279868437700493  0.0024682997409268825  0.5238840921842816  1.0000
  H   H660      1.0  0.47821699367228454  0.031399906454075976  0.5528150105290989  1.0000
  N   N40       1.0  0.5658156713635889  0.5214547310206957  0.7674284162458931  1.0000
  C   C445      1.0  0.5579127664067013  0.5118365873270979  0.7324868765120113  1.0000
  C   C446      1.0  0.5384083060787171  0.5029986812182654  0.7884718060644628  1.0000
  C   C447      1.0  0.5760024091244221  0.5548380504736914  0.7705574010741941  1.0000
  C   C448      1.0  0.5909349345394732  0.5160835135716281  0.7782717414140103  1.0000
  H   H661      1.0  0.5488649386027459  0.4864751069848743  0.7295618398489413  1.0000
  H   H662      1.0  0.5784000112852136  0.5241508450354377  0.7159832938079324  1.0000
  H   H663      1.0  0.5399527871048203  0.5167190864126939  0.7229445574060117  1.0000
  H   H664      1.0  0.5190305945169877  0.5065984899553824  0.781082782661666  1.0000
  H   H665      1.0  0.5300597023380373  0.4776375874610803  0.7865231206725899  1.0000
  H   H666      1.0  0.5436339937746629  0.5094990052870493  0.815056433718449  1.0000
  H   H667      1.0  0.5973996942606284  0.5694943570943766  0.7560641004838059  1.0000
  H   H668      1.0  0.58117645211756  0.5625959977891292  0.7968038587828364  1.0000
  H   H669      1.0  0.5581210055162388  0.5600853984615812  0.7615659272231162  1.0000
  H   H670      1.0  0.5985833248409964  0.5245050669836251  0.8039955852672064  1.0000
  H   H671      1.0  0.6115646053326912  0.5285734440149682  0.7620294471991005  1.0000
  H   H672      1.0  0.5836801367161124  0.4909974238558006  0.7776594604505964  1.0000
  N   N41       1.0  0.9982175428235238  0.6696263063390483  0.8051998753537755  1.0000
  C   C449      1.0  0.9971086904473825  0.6420831717805415  0.7900802063018575  1.0000
  C   C450      1.0  0.03046693055826673  0.6927820696894939  0.8135537457419441  1.0000
  C   C451      1.0  0.9793377736416298  0.6602365417874438  0.8356976170801238  1.0000
  C   C452      1.0  0.9859688153027086  0.6834333933184719  0.781388097689221  1.0000
  H   H673      1.0  0.006277585404208093  0.6310796532783569  0.8072785480820892  1.0000
  H   H674      1.0  0.011087205201776766  0.6484075560818778  0.7669288030233218  1.0000
  H   H675      1.0  0.9731484744631187  0.6240985976664852  0.7834148969553402  1.0000
  H   H676      1.0  0.03222558037253983  0.7136380737026166  0.8256446856946353  1.0000
  H   H677      1.0  0.04074983893231454  0.6829985566291422  0.8308895582949085  1.0000
  H   H678      1.0  0.04524176871921625  0.7008288183050174  0.79104641315131  1.0000
  H   H679      1.0  0.9794651158997361  0.6803960062859544  0.8476463831222361  1.0000
  H   H680      1.0  0.988250661821961  0.650184630802835  0.8543716955619196  1.0000
  H   H681      1.0  0.9549554514305888  0.6423453665375263  0.8305360240299334  1.0000
  H   H682      1.0  0.9868087256801059  0.7045128392128738  0.7917443343363085  1.0000
  H   H683      1.0  0.961656349644949  0.6666107449155129  0.7745785103275785  1.0000
  H   H684      1.0  0.9996048820263191  0.6905293765107313  0.7579926297720656  1.0000
  N   N42       1.0  0.20400514990339624  0.6798500315739819  0.25516090682584874  1.0000
  C   C453      1.0  0.18863367846679324  0.648856622850849  0.2712343996906383  1.0000
  C   C454      1.0  0.22974755036728808  0.6832415448932659  0.23443864894092858  1.0000
  C   C455      1.0  0.21603645236634475  0.7043780634627741  0.28074315474724104  1.0000
  C   C456      1.0  0.18161700884979048  0.6830127901238624  0.23404394962890407  1.0000
  H   H685      1.0  0.16885974186838773  0.6452900072770383  0.28680520323447856  1.0000
  H   H686      1.0  0.20471876180984339  0.6455909804166788  0.2875347537452582  1.0000
  H   H687      1.0  0.17906356504652138  0.6297973003064968  0.2526133094212461  1.0000
  H   H688      1.0  0.2418681978725591  0.7064406460087136  0.22205390940822892  1.0000
  H   H689      1.0  0.24705347198097705  0.6808514336256656  0.24954623722312447  1.0000
  H   H690      1.0  0.22137702545808016  0.6652303600250672  0.21471275019672173  1.0000
  H   H691      1.0  0.2332793322801638  0.7030748780100617  0.2970234329993137  1.0000
  H   H692      1.0  0.19726615784305399  0.7024999015257808  0.2969624042093355  1.0000
  H   H693      1.0  0.22710021691367738  0.728053935759043  0.2694066627625726  1.0000
  H   H694      1.0  0.1625863032416792  0.6817397685761412  0.24912480361716202  1.0000
  H   H695      1.0  0.1709965194899309  0.6641676693892364  0.2152760846939457  1.0000
  H   H696      1.0  0.19257426369058112  0.7057978726356705  0.22086974982756688  1.0000
  N   N43       1.0  0.35773911418248044  0.9929642215020876  0.35613135231838267  1.0000
  C   C457      1.0  0.34686275538336725  0.960173557558934  0.36487847920037864  1.0000
  C   C458      1.0  0.34864637624492995  0.007337788526045497  0.3824317223253041  1.0000
  C   C459      1.0  0.3438500023491322  0.9944146039442211  0.32427148616522095  1.0000
  C   C460      1.0  0.3916717625355671  0.009964511769829267  0.3529859802737607  1.0000
  H   H697      1.0  0.35317894972259645  0.9485786573952231  0.3454167485963198  1.0000
  H   H698      1.0  0.32134379124374757  0.9467022676757847  0.36771966734503503  1.0000
  H   H699      1.0  0.35709941463248474  0.9583278538260873  0.38875184646037986  1.0000
  H   H700      1.0  0.32316991997191935  0.9958983304147722  0.3848340140835436  1.0000
  H   H701      1.0  0.35785222236860864  0.005671762829480454  0.4070397459148215  1.0000
  H   H702      1.0  0.357681146836555  0.03252448561879305  0.3774990682789288  1.0000
  H   H703      1.0  0.3509360033352758  0.9845446706736858  0.3036277873400805  1.0000
  H   H704      1.0  0.3510668338109058  0.018838171788817665  0.31738203906096335  1.0000
  H   H705      1.0  0.31822693445716194  0.9812207131747155  0.3253662993886824  1.0000
  H   H706      1.0  0.4005779757170519  0.03461124505120735  0.34572084698422584  1.0000
  H   H707      1.0  0.39949019372006506  0.9996099688904937  0.333609439349145  1.0000
  H   H708      1.0  0.40299730695034935  0.01005609455705714  0.3767848671960162  1.0000
  N   N44       1.0  0.5387924397866056  0.07000132161865763  0.32699752477197  1.0000
  C   C461      1.0  0.5363048795541455  0.09834158446261394  0.32718926086132716  1.0000
  C   C462      1.0  0.5371556549051523  0.05955525173180818  0.29244640328428156  1.0000
  C   C463      1.0  0.5131559269661866  0.04533647480267432  0.34643372622589874  1.0000
  C   C464      1.0  0.5684940049983556  0.07687484635530067  0.3419759424790608  1.0000
  H   H709      1.0  0.5348104720201088  0.10540199141805295  0.352895756210321  1.0000
  H   H710      1.0  0.5153385025946147  0.09477967933261723  0.31399335310630916  1.0000
  H   H711      1.0  0.5563820196449251  0.11815513502125974  0.31479011802336404  1.0000
  H   H712      1.0  0.514891383410526  0.054139070736987115  0.2805601693488017  1.0000
  H   H713      1.0  0.5560830665837869  0.07783770385810446  0.27713821366017916  1.0000
  H   H714      1.0  0.5390874699405132  0.03826677935403126  0.2912498274714975  1.0000
  H   H715      1.0  0.5136102095504667  0.05272804743419145  0.37256046981426677  1.0000
  H   H716      1.0  0.5143178937828871  0.02360116191917407  0.346962506561817  1.0000
  H   H717      1.0  0.49041539569571935  0.03965346460132543  0.3358098920467465  1.0000
  H   H718      1.0  0.5714551848292525  0.056161737373696105  0.34192373380236457  1.0000
  H   H719      1.0  0.5701999020244157  0.08448024581073221  0.36817205946509163  1.0000
  H   H720      1.0  0.5884499613173768  0.09583801806180249  0.32836662793580634  1.0000
  N   N45       1.0  0.5092297941395983  0.8813908347458616  0.7115060701531501  1.0000
  C   C465      1.0  0.5291231264850098  0.8684731956588299  0.7206618878294634  1.0000
  C   C466      1.0  0.48740736975343807  0.8757878978917616  0.7387579068850255  1.0000
  C   C467      1.0  0.49184106505984454  0.866170492735366  0.6809995746369628  1.0000
  C   C468      1.0  0.5285609083591235  0.9152107305435351  0.7056740252664688  1.0000
  H   H721      1.0  0.5458026564000142  0.872292849720525  0.7005975880485104  1.0000
  H   H722      1.0  0.515464048515944  0.8430417707073942  0.7255023536925188  1.0000
  H   H723      1.0  0.5431809464056803  0.8799640339233561  0.7431213953708099  1.0000
  H   H724      1.0  0.4719368809336995  0.8851410280684624  0.7324918639664637  1.0000
  H   H725      1.0  0.4725452194029371  0.8505095324511787  0.7439826621945084  1.0000
  H   H726      1.0  0.4998559262209509  0.8872464570383347  0.7620227523354076  1.0000
  H   H727      1.0  0.47612591254387676  0.8749313196465006  0.6737366612624263  1.0000
  H   H728      1.0  0.4775457603941116  0.8405478664286125  0.6841722346733123  1.0000
  H   H729      1.0  0.5075894923563833  0.870595164384734  0.659642242192682  1.0000
  H   H730      1.0  0.5143000156116142  0.9261876549839517  0.7013671994885743  1.0000
  H   H731      1.0  0.543757251854162  0.9202857070698662  0.6836780279186008  1.0000
  H   H732      1.0  0.5439688580660967  0.9271664404125446  0.7271488642606705  1.0000
  N   N46       1.0  0.40169986159841936  0.24735410425662466  0.6080829515268852  1.0000
  C   C469      1.0  0.38071720913337065  0.2599763670734455  0.6043733004093292  1.0000
  C   C470      1.0  0.43400896662267324  0.273013666025526  0.6060039747983037  1.0000
  C   C471      1.0  0.3956584533032193  0.22483543879470505  0.5813087758127129  1.0000
  C   C472      1.0  0.3964735801896654  0.23165137745650127  0.6406300053034971  1.0000
  H   H733      1.0  0.3561006546709472  0.2413027975045885  0.6052711058342942  1.0000
  H   H734      1.0  0.3846807914644758  0.2728868999620416  0.5805424474167001  1.0000
  H   H735      1.0  0.3843596323481029  0.27673323367883723  0.6244240848215413  1.0000
  H   H736      1.0  0.45055442505508336  0.2643865999122399  0.6079908874112746  1.0000
  H   H737      1.0  0.43857295899926807  0.28620569859828  0.5822905165883029  1.0000
  H   H738      1.0  0.4394930718527455  0.29006158477978355  0.6262664308593255  1.0000
  H   H739      1.0  0.4110889396584684  0.21483212857958844  0.5833566634545659  1.0000
  H   H740      1.0  0.3994856324505616  0.23603795905911235  0.5564418891888288  1.0000
  H   H741      1.0  0.37145977351657183  0.2051473354951696  0.582104296144878  1.0000
  H   H742      1.0  0.37233089036696343  0.2121828079838181  0.6432882314408842  1.0000
  H   H743      1.0  0.40091002052239977  0.24803077173864152  0.6613706382639174  1.0000
  H   H744      1.0  0.41205713556658835  0.22202745383675634  0.6445331536940175  1.0000
  N   N47       1.0  0.4499548142252378  0.9731825846361465  0.06378871206225095  1.0000
  C   C473      1.0  0.47365630621207655  0.9803974561320606  0.03817969332271774  1.0000
  C   C474      1.0  0.43679911198358323  0.9937006007309155  0.059244787810797075  1.0000
  C   C475      1.0  0.46414956636516125  0.978180427705563  0.09701563787324392  1.0000
  C   C476      1.0  0.42524109146623956  0.9403774328907032  0.06066877482040665  1.0000
  H   H745      1.0  0.49264162032594583  0.005016501943336361  0.039744987538396094  1.0000
  H   H746      1.0  0.46366595815981976  0.976710817008311  0.012784382288363635  1.0000
  H   H747      1.0  0.48412472979474164  0.9653484097250218  0.040938081997938566  1.0000
  H   H748      1.0  0.417875186805444  0.9880002690938502  0.07721314782484996  1.0000
  H   H749      1.0  0.4545054063035754  0.01860549692657191  0.06258527739198273  1.0000
  H   H750      1.0  0.42688704630421875  0.9912866551177691  0.03397664322387729  1.0000
  H   H751      1.0  0.4467315210934344  0.9718226063320803  0.11706887916028372  1.0000
  H   H752      1.0  0.48226513719642  0.0028711780237411495  0.10075025411994343  1.0000
  H   H753      1.0  0.4751437191960128  0.9637590553034394  0.10069376291406623  1.0000
  H   H754      1.0  0.40735166700020586  0.9339143268296155  0.08016051668747515  1.0000
  H   H755      1.0  0.434452184444007  0.924252568349704  0.06315318478022032  1.0000
  H   H756      1.0  0.4132915887105184  0.9359491441191843  0.03628967340436913  1.0000
  N   N48       1.0  0.7552405889311954  0.22067655659786392  0.8628005474075514  1.0000
  C   C477      1.0  0.7602615313821258  0.20469884549295791  0.83479447741074  1.0000
  C   C478      1.0  0.7845426411741524  0.23922410528345894  0.8809749982960566  1.0000
  C   C479      1.0  0.7318445549203292  0.1973380432880918  0.8853796073188371  1.0000
  C   C480      1.0  0.7441797026349604  0.2412552945489659  0.8500464624734613  1.0000
  H   H757      1.0  0.7386353845833307  0.19059713531768485  0.8203928514571196  1.0000
  H   H758      1.0  0.7682409152988776  0.18862351471681185  0.8436693225565115  1.0000
  H   H759      1.0  0.7780161935567906  0.22152079833392097  0.8173582500247696  1.0000
  H   H760      1.0  0.7814776021573373  0.2505801856992615  0.903183033191248  1.0000
  H   H761      1.0  0.7939504702569751  0.22439068104995583  0.8898006472670158  1.0000
  H   H762      1.0  0.8024916547791512  0.2577163105109593  0.8649941888548613  1.0000
  H   H763      1.0  0.727536962235437  0.2084210206582785  0.9069856918034455  1.0000
  H   H764      1.0  0.7392890028702382  0.18124281606815976  0.8951563984255979  1.0000
  H   H765      1.0  0.7094155797170413  0.18296188153649498  0.8724647414625374  1.0000
  H   H766      1.0  0.7403713781472787  0.2538197004278517  0.8705608791876496  1.0000
  H   H767      1.0  0.7218284555091379  0.22769297089056548  0.8366274395168655  1.0000
  H   H768      1.0  0.7610055270597429  0.25893787388823925  0.8324985477523655  1.0000
