data_image0
_chemical_formula_structural       FeS2FeS2FeSFeS3FeS2FeS2FeSFeS3FeS2FeS2FeSFeS3FeS2FeS2FeSFeS3FeS2FeS2FeSFeS3FeS2FeS2FeSFeS3FeS2FeS2FeSFeS3FeS2FeS2FeSFeS3FeS2FeS2FeSFeS3FeS2FeS2FeSFeS3FeS2FeS2FeSFeS3FeS2FeS2FeSFeS3FeS2FeS2FeSFeS3FeS2FeS2FeSFeS3FeS2FeS2FeSFeS3FeS2FeS2FeSFeS3FeS2FeS2FeSFeS3FeS2FeS2FeSFeS3FeS2FeS2FeSFeS3FeS2FeS2FeSFeS3C6H4C6H4C6H4C6H4C6H4C6H4C6H4C6H4C6H4C6H4C6H4C6H4C6H4C6H4C6H4C6H4C6H4C6H4C6H4C6H4C6H4C6H4C6H4C6H4C6H4C6H4C6H4C6H4C6H4C6H4C6H4C6H4C6H4C6H4C6H4C6H4C6H4C6H4C6H4C6H4NC4H12NC4H12NC4H12NC4H12NC4H12NC4H12NC4H12NC4H12NC4H12NC4H12NC4H12NC4H12NC4H12NC4H12NC4H12NC4H12NC4H12NC4H12NC4H12NC4H12NC4H12NC4H12NC4H12NC4H12NC4H12NC4H12NC4H12NC4H12NC4H12NC4H12NC4H12NC4H12NC4H12NC4H12NC4H12NC4H12NC4H12NC4H12NC4H12NC4H12
_chemical_formula_sum              "Fe80 S160 C400 H640 N40"
_cell_length_a       29.560918162438547
_cell_length_b       32.860771753906015
_cell_length_c       28.065732054642705
_cell_angle_alpha    90.35495594750878
_cell_angle_beta     89.26574903565749
_cell_angle_gamma    89.76861056486484

_space_group_name_H-M_alt    "P 1"
_space_group_IT_number       1

loop_
  _space_group_symop_operation_xyz
  'x, y, z'

loop_
  _atom_site_type_symbol
  _atom_site_label
  _atom_site_symmetry_multiplicity
  _atom_site_fract_x
  _atom_site_fract_y
  _atom_site_fract_z
  _atom_site_occupancy
  Fe  Fe1       1.0  0.014411771706103638  0.5805617223599114  0.9213575665378675  1.0000
  S   S1        1.0  0.07237811423048446  0.5434729413289497  0.9478943410777174  1.0000
  S   S2        1.0  0.015159910038834878  0.5982844934977594  0.8445187784325423  1.0000
  Fe  Fe2       1.0  0.9660459502794069  0.5807681100544672  0.016666458438691745  1.0000
  S   S3        1.0  0.019116594923088703  0.5433210568360828  0.05186186945764626  1.0000
  S   S4        1.0  0.9056178742687002  0.6023887072411389  0.05844649543463909  1.0000
  Fe  Fe3       1.0  0.06753104792006126  0.5833360975623809  0.01248912037521932  1.0000
  S   S5        1.0  0.12932038140239954  0.6101313725631974  0.04449782311995154  1.0000
  Fe  Fe4       1.0  0.018497132163491248  0.5066968072897802  0.9841460377698054  1.0000
  S   S6        1.0  0.01590375521507803  0.4385824034050526  0.9863923717192465  1.0000
  S   S7        1.0  0.014673426406424772  0.6243767923309169  0.9828320701370395  1.0000
  S   S8        1.0  0.9606534260984653  0.5406471942514515  0.9521223081593388  1.0000
  Fe  Fe5       1.0  0.1367961996638538  0.7811556382371593  0.20941250686167004  1.0000
  S   S9        1.0  0.16109305317264577  0.8446048544393125  0.22277469875064998  1.0000
  S   S10       1.0  0.07836590289990708  0.768305134567019  0.16139240053660012  1.0000
  Fe  Fe6       1.0  0.2039282993528957  0.7439220378671336  0.2785476619586573  1.0000
  S   S11       1.0  0.23436597993869945  0.8044108602519275  0.29673578061281647  1.0000
  S   S12       1.0  0.22832756701443604  0.6850190919309108  0.30990292129091696  1.0000
  Fe  Fe7       1.0  0.16233553225373654  0.8258862384120115  0.29954927451509755  1.0000
  S   S13       1.0  0.13197541189089246  0.864439634862861  0.35820005408430344  1.0000
  Fe  Fe8       1.0  0.2302404006740515  0.8163807640816406  0.21866258450706175  1.0000
  S   S14       1.0  0.2902878848959851  0.8388653475301001  0.17748618610192823  1.0000
  S   S15       1.0  0.13203926538226263  0.7644768698610588  0.28631377556669896  1.0000
  S   S16       1.0  0.20577838268510917  0.7540502226654677  0.19971480916164783  1.0000
  Fe  Fe9       1.0  0.5009792098606777  0.8787518706176273  0.20382114811148022  1.0000
  S   S17       1.0  0.4490535547656315  0.8301352361644532  0.2145671221241662  1.0000
  S   S18       1.0  0.48892439160023576  0.9358023460672921  0.16287033196871029  1.0000
  Fe  Fe10      1.0  0.5727054085872194  0.8340177817769033  0.25948346795320165  1.0000
  S   S19       1.0  0.5271880402184849  0.7811479241564283  0.2751988244099746  1.0000
  S   S20       1.0  0.644670726145366  0.8315715507135696  0.2843951632818027  1.0000
  Fe  Fe11      1.0  0.5067069257216092  0.7873197107009521  0.19903999072848558  1.0000
  S   S21       1.0  0.49641798419131056  0.7324303174983298  0.15291554981706784  1.0000
  Fe  Fe12      1.0  0.4744348983293723  0.8287676810027158  0.28909886815611413  1.0000
  S   S22       1.0  0.42761655039184454  0.828656699033438  0.35200981850984264  1.0000
  S   S23       1.0  0.5568034659092908  0.8360935406759791  0.18160695333483023  1.0000
  S   S24       1.0  0.5212589276604377  0.8814833988348636  0.27998320724243686  1.0000
  Fe  Fe13      1.0  0.4954593800825847  0.9231922144656065  0.9050135625388535  1.0000
  S   S25       1.0  0.4860910168852124  0.9225900671604579  0.8262034609141381  1.0000
  S   S26       1.0  0.47089919652022016  0.8728572310866045  0.951654643494709  1.0000
  Fe  Fe14      1.0  0.5309845463465761  0.010051601958312784  0.9071509975574286  1.0000
  S   S27       1.0  0.5243833841482286  0.01746781070762804  0.8279112690290829  1.0000
  S   S28       1.0  0.5506445979070548  0.05614301755540918  0.9627437413008408  1.0000
  Fe  Fe15      1.0  0.4578192217958878  0.9853798862120174  0.8373000618787738  1.0000
  S   S29       1.0  0.387744523599468  0.002640564001164414  0.8149742247128923  1.0000
  Fe  Fe16      1.0  0.5536146175117959  0.9539386848429859  0.8245317667030472  1.0000
  S   S30       1.0  0.6114342335811309  0.9334563041317253  0.7769517798983315  1.0000
  S   S31       1.0  0.4622882825269183  0.983360526657796  0.9164037992196182  1.0000
  S   S32       1.0  0.5652700975656497  0.9492350243516084  0.9031798407592265  1.0000
  Fe  Fe17      1.0  0.74848425401498  0.24005720625661844  0.32963741945508007  1.0000
  S   S33       1.0  0.8151946440510395  0.2689890630891368  0.34423248840201814  1.0000
  S   S34       1.0  0.737246670793061  0.21699930288290753  0.255490820567898  1.0000
  Fe  Fe18      1.0  0.7136730564855691  0.2553042431505051  0.42996013514294074  1.0000
  S   S35       1.0  0.7775202998577196  0.2858384439316266  0.4534878711611618  1.0000
  S   S36       1.0  0.6558038140271479  0.24630743417778173  0.4812226248887679  1.0000
  Fe  Fe19      1.0  0.774047730176714  0.3167487866660087  0.3823684272314361  1.0000
  S   S37       1.0  0.7898324632082604  0.38246506433384236  0.36784572476911104  1.0000
  Fe  Fe20      1.0  0.8122730849692644  0.23507956656356077  0.4132110201035288  1.0000
  S   S38       1.0  0.8710516797616752  0.19717387160535457  0.4374839772177224  1.0000
  S   S39       1.0  0.7071597349572408  0.2903365225399722  0.3622289933407505  1.0000
  S   S40       1.0  0.7487852092093826  0.20198959424244947  0.3954734091450266  1.0000
  Fe  Fe21      1.0  0.88219609878456  0.04651350362146922  0.0939443550113419  1.0000
  S   S41       1.0  0.8112479336158468  0.02912688557193044  0.11356006966127974  1.0000
  S   S42       1.0  0.8968530911896745  0.09845387815964923  0.04491155929117485  1.0000
  Fe  Fe22      1.0  0.9240028866652505  0.9781675342686724  0.1501027214402635  1.0000
  S   S43       1.0  0.85684201363971  0.9537926401551463  0.17409042891397242  1.0000
  S   S44       1.0  0.9882262294525354  0.9510327102285974  0.17787907831911243  1.0000
  Fe  Fe23      1.0  0.8352584097017554  0.9656240726411175  0.09936938806226614  1.0000
  S   S45       1.0  0.7870807972043012  0.9249397052174428  0.061111683244060355  1.0000
  Fe  Fe24      1.0  0.8387399242817722  0.019101611667836634  0.1865523123547994  1.0000
  S   S46       1.0  0.7997589849171493  0.03344331048760707  0.2534977189455767  1.0000
  S   S47       1.0  0.904514228513651  0.9836845278531323  0.07351419918955648  1.0000
  S   S48       1.0  0.9077332692491356  0.0430604484872561  0.16886135178809347  1.0000
  Fe  Fe25      1.0  0.23578144503948623  0.4201110480820415  0.22382346358671087  1.0000
  S   S49       1.0  0.246301257628947  0.3959272673369994  0.2972638506040176  1.0000
  S   S50       1.0  0.28941671135364666  0.43794382585388003  0.1713158293077031  1.0000
  Fe  Fe26      1.0  0.1340229278977232  0.4171757718191207  0.2322785759695757  1.0000
  S   S51       1.0  0.1345502161060912  0.3922378849629191  0.3063406642277459  1.0000
  S   S52       1.0  0.07295746689920124  0.4347882825853648  0.1911452122758479  1.0000
  Fe  Fe27      1.0  0.1894123595325823  0.4381545004755095  0.3182052062084197  1.0000
  S   S53       1.0  0.18390955803302098  0.4821218441047486  0.3796008945771434  1.0000
  Fe  Fe28      1.0  0.19088523652547296  0.352116500779506  0.2783335198341052  1.0000
  S   S54       1.0  0.19791785782732937  0.28569287134491433  0.29665054065101876  1.0000
  S   S55       1.0  0.1840243863537241  0.4662920441092889  0.2461143018574727  1.0000
  S   S56       1.0  0.1852217556018347  0.37307594692259627  0.20286390279102742  1.0000
  Fe  Fe29      1.0  0.32157978846448604  0.6355448023716268  0.06811406385692664  1.0000
  S   S57       1.0  0.3559568259492927  0.5906525612874225  0.019280300669896944  1.0000
  S   S58       1.0  0.31647965901408104  0.6258343283637278  0.1472384669680964  1.0000
  Fe  Fe30      1.0  0.29052487877224903  0.6884264934112937  0.9866821838324507  1.0000
  S   S59       1.0  0.3217709211870213  0.6482107799566502  0.930057282101122  1.0000
  S   S60       1.0  0.2440035571324964  0.7418002450822824  0.9762445793492552  1.0000
  Fe  Fe31      1.0  0.2944838140886341  0.5966456639047705  0.9739610943041593  1.0000
  S   S61       1.0  0.257543530662373  0.5405477937878621  0.9500002510046864  1.0000
  Fe  Fe32      1.0  0.38076542608496716  0.6453659283821607  0.980018540968265  1.0000
  S   S62       1.0  0.4542141509403676  0.6467742218813756  0.9575388716244313  1.0000
  S   S63       1.0  0.2581648498548244  0.6370300416179105  0.026132350622193767  1.0000
  S   S64       1.0  0.351802578907203  0.6903652822811167  0.03306173304388271  1.0000
  Fe  Fe33      1.0  0.19710055687091063  0.11433825648903584  0.10977875310122513  1.0000
  S   S65       1.0  0.19563247048302335  0.09222471209948915  0.03383946466497734  1.0000
  S   S66       1.0  0.14737360992714407  0.16410790141375636  0.12941988634548207  1.0000
  Fe  Fe34      1.0  0.26915767754768843  0.05319475128904738  0.13643702027300064  1.0000
  S   S67       1.0  0.27311564086459494  0.025419616265457856  0.06341778560512679  1.0000
  S   S68       1.0  0.31815523770231147  0.02847216209996284  0.18912474244149216  1.0000
  Fe  Fe35      1.0  0.27125634292887507  0.08994456479038293  0.03844257317700128  1.0000
  S   S69       1.0  0.3238052243812272  0.11393954874928514  0.987299377909288  1.0000
  Fe  Fe36      1.0  0.19749912064135833  0.029871907307611467  0.06598896758673334  1.0000
  S   S70       1.0  0.15270350279626577  0.9805399278896915  0.036948971143369036  1.0000
  S   S71       1.0  0.2727849848645005  0.11767448100375022  0.11168697188900574  1.0000
  S   S72       1.0  0.1933440637233932  0.051929320009592495  0.14169640797805869  1.0000
  Fe  Fe37      1.0  0.7028476660954622  0.48366770358586136  0.10393047750063289  1.0000
  S   S73       1.0  0.7046038967069703  0.5199030169318395  0.17157623618984075  1.0000
  S   S74       1.0  0.7679328078806481  0.45683466256615934  0.07701359308237055  1.0000
  Fe  Fe38      1.0  0.6027756875110382  0.4986476300844174  0.08967238385779376  1.0000
  S   S75       1.0  0.5958345211196541  0.5357101589183857  0.15665498979653938  1.0000
  S   S76       1.0  0.5428206516938641  0.48791361759757645  0.04293050354582961  1.0000
  Fe  Fe39      1.0  0.6610567067373743  0.5638878738625288  0.1321984293732238  1.0000
  S   S77       1.0  0.6769624455855947  0.6304743979291538  0.1329278535834939  1.0000
  Fe  Fe40      1.0  0.6400546726299862  0.4877811844327627  0.18907599521531632  1.0000
  S   S78       1.0  0.6242843951223331  0.45914267704047823  0.2598381985516923  1.0000
  S   S79       1.0  0.6646895147439894  0.5303102682501278  0.06272885224275004  1.0000
  S   S80       1.0  0.6413425906977349  0.44780981409088394  0.12399540476168935  1.0000
  Fe  Fe41      1.0  0.10540676039350472  0.403228353382746  0.7470206320148126  1.0000
  S   S81       1.0  0.09561034355129672  0.4710111616794394  0.7539398978232601  1.0000
  S   S82       1.0  0.08878964593915395  0.3539715091720663  0.7990484735525039  1.0000
  Fe  Fe42      1.0  0.1395052953164353  0.4072723161653609  0.6456304829960067  1.0000
  S   S83       1.0  0.1336733502622669  0.474821837183534  0.6422276253895188  1.0000
  S   S84       1.0  0.16706672538456213  0.36915091598821803  0.5854862853748183  1.0000
  Fe  Fe43      1.0  0.1626146481649009  0.4740813023551638  0.7156330979499963  1.0000
  S   S85       1.0  0.2172599280434108  0.5190300813990599  0.730953355818542  1.0000
  Fe  Fe44      1.0  0.06725679762087622  0.4666324228702719  0.680575757916903  1.0000
  S   S86       1.0  0.004557717371349357  0.5003060826775052  0.6588983190415504  1.0000
  S   S87       1.0  0.17506385740352526  0.40683992095497745  0.7154722447163434  1.0000
  S   S88       1.0  0.07040538277130515  0.39855687609687895  0.6771513012342384  1.0000
  Fe  Fe45      1.0  0.9900286332962033  0.6212924550143459  0.33231715709450416  1.0000
  S   S89       1.0  0.03401487276419313  0.6629920474347725  0.3746774787195989  1.0000
  S   S90       1.0  0.0011406172860426445  0.6081128895267109  0.25442465734189523  1.0000
  Fe  Fe46      1.0  0.920514962093684  0.6122893116145932  0.41114536137676966  1.0000
  S   S91       1.0  0.9572959865284949  0.6538823816136963  0.46112207616723244  1.0000
  S   S92       1.0  0.8536894786418868  0.5819547968000763  0.42597732912359754  1.0000
  Fe  Fe47      1.0  0.969304576432219  0.6934352851166578  0.3977271226099886  1.0000
  S   S93       1.0  0.9599539652236723  0.7612566749162533  0.4061239643531067  1.0000
  Fe  Fe48      1.0  0.019084140200638533  0.6206439694652495  0.43512928577340904  1.0000
  S   S94       1.0  0.07312196923166758  0.6076766372755601  0.48821140657787054  1.0000
  S   S95       1.0  0.9261160647615928  0.6553723665161496  0.3499076061412658  1.0000
  S   S96       1.0  0.9816367223784084  0.5752065299423109  0.3904093355051015  1.0000
  Fe  Fe49      1.0  0.758795048485027  0.7545539235913836  0.8526372426901676  1.0000
  S   S97       1.0  0.8007148544013319  0.743550464268017  0.9172163852660622  1.0000
  S   S98       1.0  0.6845175999855941  0.7678723776676246  0.8620377691371942  1.0000
  Fe  Fe50      1.0  0.8356437983402345  0.7343733431986741  0.785153799863776  1.0000
  S   S99       1.0  0.8846889892313947  0.7206630724936774  0.8430793631644571  1.0000
  S   S100      1.0  0.856866999140135  0.734673282630744  0.7081694596078264  1.0000
  Fe  Fe51      1.0  0.8264391723242241  0.6887543445351284  0.8777944657408191  1.0000
  S   S101      1.0  0.8355363360253861  0.6351523371487358  0.9252612924330846  1.0000
  Fe  Fe52      1.0  0.8554704777643823  0.7762310406673022  0.8779471842343539  1.0000
  S   S102      1.0  0.9013936224667155  0.8188032608803646  0.9156343343878002  1.0000
  S   S103      1.0  0.7797030860574985  0.696374905542612  0.816126954187086  1.0000
  S   S104      1.0  0.8114886648808014  0.7934250948692902  0.8172815803166165  1.0000
  Fe  Fe53      1.0  0.7593015277281643  0.9590259575929058  0.4745995572560474  1.0000
  S   S105      1.0  0.7438158292825711  0.9742094828537283  0.5506059662986001  1.0000
  S   S106      1.0  0.7050522944553714  0.9727306300905046  0.42235666557638585  1.0000
  Fe  Fe54      1.0  0.8548539936621105  0.9359761730820796  0.4958812626141323  1.0000
  S   S107      1.0  0.8487537527104205  0.9488044156395953  0.5746121889176355  1.0000
  S   S108      1.0  0.9169490158050569  0.9150527204757275  0.45634867850061916  1.0000
  Fe  Fe55      1.0  0.7817484683465841  0.9175524596229565  0.5678980455366519  1.0000
  S   S109      1.0  0.7472728872992657  0.8822737880633935  0.6257640530606567  1.0000
  Fe  Fe56      1.0  0.8111049887234889  0.004415338679988112  0.5511990646669099  1.0000
  S   S110      1.0  0.8111484992962923  0.06518640577144352  0.5874732723558227  1.0000
  S   S111      1.0  0.7912180410978328  0.8990322547883703  0.4914337663027551  1.0000
  S   S112      1.0  0.8234399279366903  0.9948341788770961  0.473172410343613  1.0000
  Fe  Fe57      1.0  0.08398465815712905  0.8011803837427769  0.7782478804313426  1.0000
  S   S113      1.0  0.11615295941866387  0.8610050326272822  0.7606802912973999  1.0000
  S   S114      1.0  0.03543224505389019  0.7884003199631958  0.8377257476438985  1.0000
  Fe  Fe58      1.0  0.13064731993092835  0.7557290345903493  0.6980371442980392  1.0000
  S   S115      1.0  0.1674141758549993  0.8107268657810693  0.6717519912803319  1.0000
  S   S116      1.0  0.1352990148240938  0.693593371806869  0.665418552222124  1.0000
  Fe  Fe59      1.0  0.17935617778314153  0.8234197135899857  0.7494072799883661  1.0000
  S   S117      1.0  0.24799617067485183  0.8344055845708531  0.7802845716955981  1.0000
  Fe  Fe60      1.0  0.10132464986968537  0.8435042827399641  0.6847367414281558  1.0000
  S   S118      1.0  0.06788885426929236  0.879649337853598  0.6269422675433279  1.0000
  S   S119      1.0  0.14807903295613548  0.7653687281790282  0.7742693288228905  1.0000
  S   S120      1.0  0.06352713499462648  0.7869719543139314  0.7036868718256131  1.0000
  Fe  Fe61      1.0  0.44482824220939066  0.6252259472071113  0.5721955870778903  1.0000
  S   S121      1.0  0.40970839536992315  0.5702905343768386  0.6018317351374652  1.0000
  S   S122      1.0  0.5195946040963694  0.6374009293285214  0.575013718800465  1.0000
  Fe  Fe62      1.0  0.3577385209670067  0.6619527405695748  0.5362875299017166  1.0000
  S   S123      1.0  0.31455702627065046  0.6108290569620676  0.5625346836477145  1.0000
  S   S124      1.0  0.3285673205677306  0.7176812739352207  0.5031573382340622  1.0000
  Fe  Fe63      1.0  0.3573545148129855  0.6148761428248198  0.6276249375196278  1.0000
  S   S125      1.0  0.32660939964000596  0.6144013973237213  0.700650537164771  1.0000
  Fe  Fe64      1.0  0.3706335081197976  0.5710625219892363  0.5338373363129352  1.0000
  S   S126      1.0  0.3629593570392512  0.5119086967814263  0.49458952851836546  1.0000
  S   S127      1.0  0.39566615427757684  0.6698412942717844  0.604068515340005  1.0000
  S   S128      1.0  0.41035088311160384  0.6220638508586331  0.5015864315757528  1.0000
  Fe  Fe65      1.0  0.7938505907008091  0.21424917494742282  0.7815615701790867  1.0000
  S   S129      1.0  0.8029707031727685  0.1548923675880074  0.7432956798565469  1.0000
  S   S130      1.0  0.842524939069546  0.2654434605070324  0.7721676721480767  1.0000
  Fe  Fe66      1.0  0.7069199955563338  0.18848811778872496  0.8302440728990811  1.0000
  S   S131      1.0  0.7083086630639223  0.12675632064116693  0.795788119458992  1.0000
  S   S132      1.0  0.6551941162805248  0.2094315314949838  0.883989677132335  1.0000
  Fe  Fe67      1.0  0.7820405187054662  0.127220029412457  0.8129843978064196  1.0000
  S   S133      1.0  0.8109142075866944  0.06922410465756122  0.8421185358483743  1.0000
  Fe  Fe68      1.0  0.7286692704101222  0.16068253911396038  0.7300519286972279  1.0000
  S   S134      1.0  0.7037971064515308  0.15016924166714302  0.656070125929345  1.0000
  S   S135      1.0  0.7791791157105381  0.18651135907439842  0.85275059226803  1.0000
  S   S136      1.0  0.7210929689016253  0.22257984088477423  0.7629283473328261  1.0000
  Fe  Fe69      1.0  0.4164645677381033  0.03644761778950545  0.49969276714655136  1.0000
  S   S137      1.0  0.449287151152466  0.006892022505335937  0.5622080089385021  1.0000
  S   S138      1.0  0.34355550016990466  0.025911537535027396  0.48233037444370513  1.0000
  Fe  Fe70      1.0  0.5043134962047024  0.07063257421424773  0.4616790922798888  1.0000
  S   S139      1.0  0.5457078235432257  0.043635253387325205  0.5200205607925105  1.0000
  S   S140      1.0  0.536177614904159  0.10477070836437898  0.401201287697602  1.0000
  Fe  Fe71      1.0  0.5030435540077869  0.988441170058389  0.509764350495332  1.0000
  S   S141      1.0  0.5337091586237519  0.9263412401982004  0.5083252999178342  1.0000
  Fe  Fe72      1.0  0.488769067264419  0.06493961876157739  0.5676252541506553  1.0000
  S   S142      1.0  0.501492745330511  0.09135173325385507  0.6403156052524112  1.0000
  S   S143      1.0  0.46727322530471005  0.012911274493414115  0.4464499307150178  1.0000
  S   S144      1.0  0.45044648745885824  0.09676673378717536  0.5100339453713417  1.0000
  Fe  Fe73      1.0  0.04354450928772535  0.09464020178383281  0.6067923924128755  1.0000
  S   S145      1.0  0.10068625484889182  0.06555803591856346  0.5656307627675847  1.0000
  S   S146      1.0  0.010579547541041734  0.061800453180966164  0.6676637727569211  1.0000
  Fe  Fe74      1.0  0.048856945028649124  0.1730177597977185  0.5509198412952543  1.0000
  S   S147      1.0  0.10570699446839349  0.15069410342834713  0.5041842496385255  1.0000
  S   S148      1.0  0.01935412710917417  0.23559806413538123  0.5469223120979294  1.0000
  Fe  Fe75      1.0  0.06642713441263726  0.09243963081354867  0.5021086180235994  1.0000
  S   S149      1.0  0.05753237417450219  0.057542986267764995  0.43382411079248284  1.0000
  Fe  Fe76      1.0  0.13400797462206926  0.12655840625604609  0.5721455499790725  1.0000
  S   S150      1.0  0.20526890823837105  0.1392765368526374  0.593995801955047  1.0000
  S   S151      1.0  0.006591922447629628  0.11710976852295363  0.5428302687844563  1.0000
  S   S152      1.0  0.07980097035617105  0.1532848362229362  0.6191314017282876  1.0000
  Fe  Fe77      1.0  0.7720620495172141  0.5349623810029581  0.671511605465508  1.0000
  S   S153      1.0  0.8118439034823749  0.47986820286466847  0.691321278683641  1.0000
  S   S154      1.0  0.8107502409969242  0.5891675486806037  0.6463339961007468  1.0000
  Fe  Fe78      1.0  0.6829717783047801  0.5000704326461549  0.7035266763343733  1.0000
  S   S155      1.0  0.7141330465072219  0.4413078071460987  0.7271592090979944  1.0000
  S   S156      1.0  0.6094351941040872  0.513548500704332  0.7170627118336969  1.0000
  Fe  Fe79      1.0  0.7687562783751014  0.4801605038297414  0.757189936575524  1.0000
  S   S157      1.0  0.7997028160734048  0.4658616148936327  0.8275203497161896  1.0000
  Fe  Fe80      1.0  0.7546206535604782  0.44494745370949723  0.6594096931910646  1.0000
  S   S158      1.0  0.7657311754837228  0.38629453185358964  0.6193345715926797  1.0000
  S   S159      1.0  0.7337137388267928  0.53884845490674  0.7405749858996381  1.0000
  S   S160      1.0  0.7186174356677909  0.5004104607638021  0.6322930482546132  1.0000
  C   C1        1.0  0.3059296729342727  0.05936949579605444  0.5115605901221677  1.0000
  C   C2        1.0  0.2596044755418752  0.056282494638550284  0.5027535338272682  1.0000
  C   C3        1.0  0.22854408855118574  0.08120099311025353  0.527497358268991  1.0000
  C   C4        1.0  0.2438922071293794  0.1094641232884308  0.5609806124297066  1.0000
  C   C5        1.0  0.29035566124238393  0.11346830449817458  0.568768794698043  1.0000
  C   C6        1.0  0.3214076034811614  0.08833585043768122  0.5441690246682677  1.0000
  H   H1        1.0  0.24795147588165883  0.034691594770121174  0.47655238288558627  1.0000
  H   H2        1.0  0.19280512064051342  0.07861970002920904  0.5206090062649651  1.0000
  H   H3        1.0  0.30221024445992617  0.13606258047699749  0.5937539029709  1.0000
  H   H4        1.0  0.3571959922909902  0.09131416444922302  0.5504388689822691  1.0000
  C   C7        1.0  0.8243430029771868  0.29785213637106894  0.7269842876132928  1.0000
  C   C8        1.0  0.8351880110695808  0.3391040318377632  0.7293629108695466  1.0000
  C   C9        1.0  0.8176642662022563  0.3661210626327102  0.6959023314838214  1.0000
  C   C10       1.0  0.7909607952966645  0.35181623585866495  0.6586366336056181  1.0000
  C   C11       1.0  0.7824051580020567  0.3100932102096814  0.6545928290195653  1.0000
  C   C12       1.0  0.7978438543970175  0.283250323797082  0.6896129916873427  1.0000
  H   H5        1.0  0.8558923205059054  0.35045280350539554  0.7580214730448555  1.0000
  H   H6        1.0  0.8252611626407216  0.39796644690421196  0.6989129831189217  1.0000
  H   H7        1.0  0.7628672100505349  0.2987519012991523  0.6251410000949408  1.0000
  H   H8        1.0  0.7893722855467011  0.2513312266856431  0.6875217163246862  1.0000
  C   C13       1.0  0.6469799106769539  0.1355609486899727  0.6528261885346893  1.0000
  C   C14       1.0  0.6276977626483794  0.13050647372264376  0.6080423504660355  1.0000
  C   C15       1.0  0.5826710511521336  0.11799712849147266  0.6040973451256856  1.0000
  C   C16       1.0  0.5568866644498884  0.10990902413242354  0.6450396858759526  1.0000
  C   C17       1.0  0.5757810016788814  0.11612600700010348  0.6900270995714394  1.0000
  C   C18       1.0  0.6208055863901679  0.12909354969805045  0.6939392372250514  1.0000
  H   H9        1.0  0.6476001730689392  0.13657953514609095  0.5764432280871251  1.0000
  H   H10       1.0  0.5677645460018987  0.11514550702936434  0.5693781944946285  1.0000
  H   H11       1.0  0.5557741842147262  0.11040207743786427  0.7218471308235995  1.0000
  H   H12       1.0  0.6350984080097527  0.13378132264126572  0.7287220573162956  1.0000
  C   C19       1.0  0.5452991103414401  0.6047711135222344  0.6159898068843915  1.0000
  C   C20       1.0  0.591279220366686  0.59499182408228  0.610961649519597  1.0000
  C   C21       1.0  0.6114725008276234  0.5674175784419194  0.6423297416471171  1.0000
  C   C22       1.0  0.5856797094815658  0.5495825966334528  0.6787283157622684  1.0000
  C   C23       1.0  0.5400624886852812  0.5603344116024433  0.6845708727464083  1.0000
  C   C24       1.0  0.5199390826760085  0.5879727235946622  0.653340592025096  1.0000
  H   H13       1.0  0.6108149378067602  0.6076482501909783  0.5818242123529154  1.0000
  H   H14       1.0  0.6466180722546209  0.5592985071074263  0.6376733774547305  1.0000
  H   H15       1.0  0.5201536938686585  0.5468440830412291  0.7129041198830451  1.0000
  H   H16       1.0  0.4848119708643967  0.5962960581611176  0.6581889933648647  1.0000
  C   C25       1.0  0.02185539152452409  0.009807776540383895  0.6587005591043216  1.0000
  C   C26       1.0  0.037217349136693834  0.9854557431331747  0.6960573264111055  1.0000
  C   C27       1.0  0.05092867101387144  0.9450456233686417  0.6870525667445003  1.0000
  C   C28       1.0  0.04825810891440807  0.9288708429653382  0.6409206994192841  1.0000
  C   C29       1.0  0.030183023762288878  0.9525099367430728  0.6044291275208746  1.0000
  C   C30       1.0  0.017890679496004754  0.993080451783474  0.6130883500682915  1.0000
  H   H17       1.0  0.04050346196806731  0.9984189262209018  0.7313765016864613  1.0000
  H   H18       1.0  0.0645405121764775  0.9269341297525943  0.7154925283985326  1.0000
  H   H19       1.0  0.026572954154345792  0.9398194132926089  0.5690708285708552  1.0000
  H   H20       1.0  0.005418976328966485  0.011622522053810647  0.5844541210792832  1.0000
  C   C31       1.0  0.18737187900408747  0.6707021753484425  0.6785081565835956  1.0000
  C   C32       1.0  0.22010564448128944  0.6918817432959558  0.7042760318156004  1.0000
  C   C33       1.0  0.2622810580853828  0.6738265608721555  0.712956869191801  1.0000
  C   C34       1.0  0.2721458794005918  0.6349885178021827  0.6948460592455727  1.0000
  C   C35       1.0  0.23945314581147312  0.6139019854689689  0.6690479426070787  1.0000
  C   C36       1.0  0.19689530691696455  0.6314810439374544  0.6614418452289733  1.0000
  H   H21       1.0  0.21354108905229519  0.7225579455463905  0.716537039666606  1.0000
  H   H22       1.0  0.2877859016108764  0.6905999491228845  0.732087533830596  1.0000
  H   H23       1.0  0.24685871872461748  0.5838355072230601  0.6552816222506518  1.0000
  H   H24       1.0  0.1716267484681865  0.6148499762764499  0.6418158081470718  1.0000
  C   C37       1.0  0.9548382599170415  0.9553572345550239  0.44976085859629106  1.0000
  C   C38       1.0  0.9820798136574549  0.9577255676779216  0.40877740995371264  1.0000
  C   C39       1.0  0.012946663930740732  0.9896991071420359  0.40349020712790307  1.0000
  C   C40       1.0  0.017234788012957525  0.018844891172833167  0.4396743187935185  1.0000
  C   C41       1.0  0.9897384937607829  0.016527399964067158  0.48046016797708574  1.0000
  C   C42       1.0  0.9581508223857421  0.9851024305533651  0.48531108904820425  1.0000
  H   H25       1.0  0.9787728051314616  0.9351651778808844  0.3808353336342389  1.0000
  H   H26       1.0  0.0338583889142936  0.9915527550487585  0.3716343500928371  1.0000
  H   H27       1.0  0.9926971737521098  0.03892545404390568  0.5083398413962165  1.0000
  H   H28       1.0  0.9370573851757884  0.9834688402722553  0.5170404098507735  1.0000
  C   C43       1.0  0.8298494640195964  0.5878791904936795  0.8972976427962858  1.0000
  C   C44       1.0  0.8266735719686205  0.5527970598498427  0.9251368795290302  1.0000
  C   C45       1.0  0.8182666166034775  0.5150413795453076  0.9036413701476639  1.0000
  C   C46       1.0  0.8134352486874403  0.5123939210388391  0.8542470662990923  1.0000
  C   C47       1.0  0.8187427594103073  0.5472229607229588  0.8262364056416857  1.0000
  C   C48       1.0  0.8264913315780913  0.585083213333225  0.8477848001037055  1.0000
  H   H29       1.0  0.8296570930600041  0.5549252036788176  0.963485293819104  1.0000
  H   H30       1.0  0.8146237542910072  0.48817790871475  0.9254770285873426  1.0000
  H   H31       1.0  0.8168941098213235  0.5450445314260975  0.7879287285800461  1.0000
  H   H32       1.0  0.8295593013684518  0.6120791193398989  0.8261919462491374  1.0000
  C   C49       1.0  0.8249206285250255  0.7730517536855506  0.6814377799584026  1.0000
  C   C50       1.0  0.7831150097948328  0.784130506543452  0.7014432834457558  1.0000
  C   C51       1.0  0.7591457415616186  0.8172672451341919  0.6834084245305215  1.0000
  C   C52       1.0  0.7768667421745452  0.8394362639105135  0.6452039583835761  1.0000
  C   C53       1.0  0.8179750171118657  0.8276120205426867  0.6238925770079181  1.0000
  C   C54       1.0  0.8419330886956785  0.7941567021049228  0.6419474847845047  1.0000
  H   H33       1.0  0.7693270291112245  0.767395527216456  0.7312491812385216  1.0000
  H   H34       1.0  0.7272636683871745  0.8262235573624613  0.6997738815864876  1.0000
  H   H35       1.0  0.8312409119422279  0.8444000664707713  0.5938055204884627  1.0000
  H   H36       1.0  0.8739221207729609  0.7851351341435527  0.6261307720255757  1.0000
  C   C55       1.0  0.8413343603931205  0.5829481615929777  0.4871544807795489  1.0000
  C   C56       1.0  0.7966490166108477  0.578955938781348  0.5036589105349013  1.0000
  C   C57       1.0  0.7869995065793318  0.5802586953397051  0.5527924019448536  1.0000
  C   C58       1.0  0.8221007248658249  0.5856645930389933  0.5851701259687662  1.0000
  C   C59       1.0  0.8666543356362252  0.5890667033820787  0.5686099431431242  1.0000
  C   C60       1.0  0.876241275305866  0.5874965555503117  0.5197304328198763  1.0000
  H   H37       1.0  0.7695101918461591  0.5755899039963017  0.4784404653669664  1.0000
  H   H38       1.0  0.7524216670576327  0.5777425719850916  0.5654889123506831  1.0000
  H   H39       1.0  0.893931103623469  0.5922619900037398  0.5934575631279227  1.0000
  H   H40       1.0  0.9107459076453863  0.5894386297298503  0.5072409208395079  1.0000
  C   C61       1.0  0.06087916666658533  0.273027346042711  0.5536210384976478  1.0000
  C   C62       1.0  0.10692604376288828  0.26291181603140246  0.5512513426013933  1.0000
  C   C63       1.0  0.13972799183115425  0.29298187796438946  0.5586463750223023  1.0000
  C   C64       1.0  0.12646638192671444  0.3328560542136255  0.5699084494371076  1.0000
  C   C65       1.0  0.08051773506763649  0.34302322313980205  0.5714884658518853  1.0000
  C   C66       1.0  0.04776997616191658  0.31325857199541357  0.5628922470699356  1.0000
  H   H41       1.0  0.1173973281098275  0.2318790798824353  0.5444100567113974  1.0000
  H   H42       1.0  0.17529893740731417  0.2849885345769416  0.5573900826897134  1.0000
  H   H43       1.0  0.07012987390107916  0.3738385556568944  0.5795725180153313  1.0000
  H   H44       1.0  0.012202262717523338  0.32118990738441233  0.5647181336002567  1.0000
  C   C67       1.0  0.02056916878965187  0.5348809456746321  0.6145682804719445  1.0000
  C   C68       1.0  0.992242700141999  0.5422316922767999  0.5759417766787109  1.0000
  C   C69       1.0  0.007742921117341872  0.5658636527427583  0.5375902509357394  1.0000
  C   C70       1.0  0.0511843523469675  0.5825822487058988  0.5382797879832345  1.0000
  C   C71       1.0  0.07860239683172865  0.5766766393894357  0.5778780933055209  1.0000
  C   C72       1.0  0.06317238701690964  0.5530965070840895  0.6160816326829742  1.0000
  H   H45       1.0  0.9591701341154898  0.5282720488700483  0.5746724010305788  1.0000
  H   H46       1.0  0.9868429158057969  0.5698551942452743  0.5066690852298567  1.0000
  H   H47       1.0  0.11223153941316522  0.5894940415781332  0.5786733025612466  1.0000
  H   H48       1.0  0.08444058991015257  0.5489612317512464  0.6467515022982041  1.0000
  C   C73       1.0  0.2453530275432982  0.5357779719415372  0.8892101838929715  1.0000
  C   C74       1.0  0.21698556331638497  0.5043748830445967  0.8739549088345665  1.0000
  C   C75       1.0  0.20759708335945706  0.4994666191204725  0.8253822947125494  1.0000
  C   C76       1.0  0.22690618887911496  0.5257910535478868  0.7919537226918175  1.0000
  C   C77       1.0  0.2548450690381673  0.5574808717596088  0.8072391587733011  1.0000
  C   C78       1.0  0.2638248558676682  0.5626209792111206  0.8558752908255776  1.0000
  H   H49       1.0  0.20244096664964895  0.4836228685273781  0.8996708430692654  1.0000
  H   H50       1.0  0.18602762344162416  0.4749095009926217  0.8137998246081674  1.0000
  H   H51       1.0  0.26941328842508416  0.5780217463412544  0.7813130189489899  1.0000
  H   H52       1.0  0.28553373486448363  0.5869127018719632  0.8674630388006322  1.0000
  C   C79       1.0  0.24640317388148927  0.7665136655160688  0.9212788014345228  1.0000
  C   C80       1.0  0.28426766134711506  0.7632076027851395  0.8910070665735814  1.0000
  C   C81       1.0  0.2852724296322185  0.784553287327283  0.8477153099819336  1.0000
  C   C82       1.0  0.2480591269657041  0.8083466241202866  0.8345085521419237  1.0000
  C   C83       1.0  0.21011878814535423  0.8109859215679898  0.8645724847290902  1.0000
  C   C84       1.0  0.20944611693598267  0.790353819244709  0.9079838031072304  1.0000
  H   H53       1.0  0.31283447346523074  0.7446509543812767  0.9011605030797116  1.0000
  H   H54       1.0  0.3143907101432545  0.7820661471376587  0.8240973493434091  1.0000
  H   H55       1.0  0.18116536387977933  0.8290482987868959  0.8542987485814361  1.0000
  H   H56       1.0  0.1797631917745738  0.7922142263751245  0.9308208626935343  1.0000
  C   C85       1.0  0.4808776583468024  0.6025231316561944  0.9787408519659253  1.0000
  C   C86       1.0  0.522825033246362  0.604829316670228  0.0013813610902417839  1.0000
  C   C87       1.0  0.5425099814754609  0.5696093140811149  0.020675216991645984  1.0000
  C   C88       1.0  0.5206068746067809  0.5320524905204859  0.01675510994960616  1.0000
  C   C89       1.0  0.47952021981242193  0.5296674081675058  0.9927647206231048  1.0000
  C   C90       1.0  0.45963532301194804  0.5647888677105545  0.9740619555974885  1.0000
  H   H57       1.0  0.5393612557078545  0.6339071052978139  0.005420723042486308  1.0000
  H   H58       1.0  0.5743820779150305  0.571437459779275  0.038864207117129235  1.0000
  H   H59       1.0  0.46268272805544763  0.5006406613573393  0.9892105131985339  1.0000
  H   H60       1.0  0.427705524686862  0.5625312163934366  0.9561204611148651  1.0000
  C   C91       1.0  0.31386459628433716  0.5054603299314894  0.46101830343865957  1.0000
  C   C92       1.0  0.30996539783398214  0.4706941744493236  0.43233365410835006  1.0000
  C   C93       1.0  0.2703566474908294  0.4636525930610951  0.4067222539892537  1.0000
  C   C94       1.0  0.23431771644558463  0.4911589919927556  0.410096950327923  1.0000
  C   C95       1.0  0.23791809383867  0.5257568222932043  0.43925604084242476  1.0000
  C   C96       1.0  0.27783663010564563  0.5330991815006515  0.464412840475579  1.0000
  H   H61       1.0  0.33766116676625985  0.44909675835066853  0.4298932513988037  1.0000
  H   H62       1.0  0.2675907690752711  0.4366098196920327  0.38497262952024963  1.0000
  H   H63       1.0  0.2100790983428641  0.5471687476702063  0.44188656431241485  1.0000
  H   H64       1.0  0.2805885469906535  0.5600039761873398  0.48638134435525116  1.0000
  C   C97       1.0  0.05163132512693158  0.4818902699384986  0.2107440007786971  1.0000
  C   C98       1.0  0.027758238896717025  0.5060437999535227  0.17886272702042086  1.0000
  C   C99       1.0  0.012523445350083984  0.5447553311879624  0.19270553198863388  1.0000
  C   C100      1.0  0.019385729642859673  0.558835573944316  0.23919352834826943  1.0000
  C   C101      1.0  0.0424118591861975  0.534375133612042  0.2716569542652418  1.0000
  C   C102      1.0  0.05934019966699888  0.49614478293221387  0.2571120205765564  1.0000
  H   H65       1.0  0.021905981505470296  0.49506741297165857  0.1430408304762252  1.0000
  H   H66       1.0  0.9955458497284675  0.5638082184768413  0.1671252182489741  1.0000
  H   H67       1.0  0.04828785842222749  0.5453105203856792  0.3074676912884235  1.0000
  H   H68       1.0  0.07800141933455684  0.47755070605451755  0.28182375737476506  1.0000
  C   C103      1.0  0.18529423441878645  0.2525117775743143  0.24908243197371174  1.0000
  C   C104      1.0  0.20591278827393833  0.21402794471820413  0.2462436514302088  1.0000
  C   C105      1.0  0.19538485936694347  0.18699878332276207  0.20893779217271083  1.0000
  C   C106      1.0  0.1631452005728762  0.19794399438353236  0.17519766320726848  1.0000
  C   C107      1.0  0.14183866631746087  0.23606270549863642  0.17872103388111651  1.0000
  C   C108      1.0  0.15324145577833478  0.2634618289293971  0.21520631334115947  1.0000
  H   H69       1.0  0.230617080051118  0.20534368676114753  0.27245500315752447  1.0000
  H   H70       1.0  0.2118043037000201  0.15755745231824533  0.20661491650011576  1.0000
  H   H71       1.0  0.11678871758401899  0.24463248268112361  0.152823471684187  1.0000
  H   H72       1.0  0.13666291853383597  0.29280834091423225  0.21747850302979718  1.0000
  C   C109      1.0  0.29026579709922734  0.49081718569890664  0.16635765026162122  1.0000
  C   C110      1.0  0.29524814955344897  0.5156353765851083  0.20667559260212726  1.0000
  C   C111      1.0  0.3021440931934921  0.5576366425340017  0.20121608343272762  1.0000
  C   C112      1.0  0.3022176965091855  0.5747047769637572  0.15562752122361  1.0000
  C   C113      1.0  0.29311389351412115  0.550199620847815  0.11607381299173614  1.0000
  C   C114      1.0  0.2885921526915102  0.5081848196991017  0.12120166442755803  1.0000
  H   H73       1.0  0.29616946988295495  0.502147588335249  0.24176394709719692  1.0000
  H   H74       1.0  0.30840164069550136  0.5765797566294216  0.23208907846776905  1.0000
  H   H75       1.0  0.29050438043080845  0.5633353769290523  0.08117962371165688  1.0000
  H   H76       1.0  0.28448017971065837  0.48910224451596374  0.09001048235131948  1.0000
  C   C115      1.0  0.8742690350560751  0.08982886334906892  0.9880335799147858  1.0000
  C   C116      1.0  0.8574323615953012  0.05154051520795799  0.9753726420088088  1.0000
  C   C117      1.0  0.8396427254961925  0.04499490192499512  0.9298335325347549  1.0000
  C   C118      1.0  0.8372040612985379  0.07702686837824113  0.897310695403649  1.0000
  C   C119      1.0  0.8543764840117188  0.11518398790590191  0.9097808432753696  1.0000
  C   C120      1.0  0.8731304674190636  0.1215029795248752  0.954938490031208  1.0000
  H   H77       1.0  0.8582511380465943  0.026844223445739335  0.00048031770870782253  1.0000
  H   H78       1.0  0.8272494056018309  0.015221612638751878  0.920053397943513  1.0000
  H   H79       1.0  0.854045600527513  0.13970307676814003  0.8843869059914302  1.0000
  H   H80       1.0  0.8864090697201469  0.15107997297855263  0.9643512957012651  1.0000
  C   C121      1.0  0.8182713271073573  0.8938194479630146  0.0218285630733015  1.0000
  C   C122      1.0  0.7968557198789622  0.8743487251575335  0.9838744272544687  1.0000
  C   C123      1.0  0.8223872021792997  0.8512474910995731  0.950984244764111  1.0000
  C   C124      1.0  0.8693065777777387  0.8479573551776257  0.9559591116640339  1.0000
  C   C125      1.0  0.8905601267913456  0.8667886122944097  0.9943434204189281  1.0000
  C   C126      1.0  0.8649376730349897  0.8892586376123403  0.027593987489717975  1.0000
  H   H81       1.0  0.7607026036502332  0.8775613342099922  0.9795099274895009  1.0000
  H   H82       1.0  0.8057818584249437  0.8366166448484558  0.9214024234648599  1.0000
  H   H83       1.0  0.9267467547733214  0.863744513750962  0.99861289590451  1.0000
  H   H84       1.0  0.8813215285842304  0.9027404659835567  0.05790103596866669  1.0000
  C   C127      1.0  0.034266333264909576  0.9565419526395998  0.13840589286064597  1.0000
  C   C128      1.0  0.07771416915036222  0.9622223677395108  0.15650391814324305  1.0000
  C   C129      1.0  0.11442133520173514  0.9690009416383958  0.12543175071584511  1.0000
  C   C130      1.0  0.10792095611163677  0.9691495348641147  0.0761588866359395  1.0000
  C   C131      1.0  0.06493097463928876  0.9613564828330683  0.05800104509752857  1.0000
  C   C132      1.0  0.02800638306321579  0.9556232102180396  0.08910206413428434  1.0000
  H   H85       1.0  0.08282925930858043  0.962584756433813  0.19462485180182187  1.0000
  H   H86       1.0  0.14774507111773638  0.9740084266633814  0.13970044327365194  1.0000
  H   H87       1.0  0.05989034981068553  0.9609103254116931  0.019866977072587  1.0000
  H   H88       1.0  0.9948324397747073  0.9500758386912636  0.07484114327304225  1.0000
  C   C133      1.0  0.854491872823523  0.16142038931416428  0.48029730396162307  1.0000
  C   C134      1.0  0.8142176361289889  0.16639210009836178  0.5065005498403773  1.0000
  C   C135      1.0  0.8017198737112597  0.13739077206080516  0.5407312198017599  1.0000
  C   C136      1.0  0.828111156900942  0.10237036928905116  0.5467136757315864  1.0000
  C   C137      1.0  0.86819190429504  0.09730893052732645  0.5203635611032695  1.0000
  C   C138      1.0  0.8819619562211065  0.12741883651697794  0.48823280270985675  1.0000
  H   H89       1.0  0.7932444169996221  0.19300069027399624  0.5011026767054743  1.0000
  H   H90       1.0  0.7712242884970678  0.1417196696892133  0.5619976584278223  1.0000
  H   H91       1.0  0.8892038413767419  0.0706901935939177  0.5256875912476988  1.0000
  H   H92       1.0  0.9139276643412874  0.12440479526124548  0.46950848633295317  1.0000
  C   C139      1.0  0.6166683046156441  0.21225698703849316  0.4570609614530747  1.0000
  C   C140      1.0  0.6196106356481248  0.2013143162551369  0.40885964872289793  1.0000
  C   C141      1.0  0.5930365118175355  0.16950499623475868  0.3912108151132201  1.0000
  C   C142      1.0  0.5637898775449954  0.14840860144370244  0.4217963809850772  1.0000
  C   C143      1.0  0.5596536323939504  0.160295851539986  0.46959418685064963  1.0000
  C   C144      1.0  0.5857391371271871  0.19248701435038756  0.4871417819848027  1.0000
  H   H93       1.0  0.6432675593695091  0.216552378764473  0.3853806976821606  1.0000
  H   H94       1.0  0.5962340862704301  0.16037706489188475  0.35419222448202303  1.0000
  H   H95       1.0  0.5370717092720166  0.1440965305862629  0.49329172161811174  1.0000
  H   H96       1.0  0.5836199418545734  0.20035060189039275  0.5245273231762415  1.0000
  C   C145      1.0  0.7437926933359841  0.4072004532206301  0.34154744436103485  1.0000
  C   C146      1.0  0.6994515780992012  0.39674183315678313  0.35409551393626715  1.0000
  C   C147      1.0  0.6629115821787006  0.41402491766081656  0.3299393801378607  1.0000
  C   C148      1.0  0.670547917782687  0.4415545068373354  0.29284681676911933  1.0000
  C   C149      1.0  0.7148950809068825  0.45328098674758055  0.2816703105400297  1.0000
  C   C150      1.0  0.7514669520123611  0.4363435326668907  0.30622413787460984  1.0000
  H   H97       1.0  0.6931618651231308  0.375279393630392  0.3824038620825717  1.0000
  H   H98       1.0  0.6286667687079328  0.4052556440629529  0.33922927355389154  1.0000
  H   H99       1.0  0.721098062043301  0.47505624600296603  0.253875362140525  1.0000
  H   H100      1.0  0.7857292378912822  0.44483769739002366  0.2967828224344528  1.0000
  C   C151      1.0  0.7519185806287141  0.1652938674576488  0.2533305086140881  1.0000
  C   C152      1.0  0.7777620697925506  0.15006829435864236  0.21503732363503225  1.0000
  C   C153      1.0  0.792260891939042  0.10938064083715313  0.21478521178326937  1.0000
  C   C154      1.0  0.7801971615145527  0.08375910328262237  0.2524326952589613  1.0000
  C   C155      1.0  0.7532970392130638  0.09861673369496943  0.2900651532170874  1.0000
  C   C156      1.0  0.739332971494631  0.1394335099641837  0.29062017448654504  1.0000
  H   H101      1.0  0.7875819821960326  0.17001363785176749  0.18619736830050937  1.0000
  H   H102      1.0  0.8132248608689191  0.09813798695252537  0.18570786917540505  1.0000
  H   H103      1.0  0.7432378889332772  0.0785866946189071  0.3187112830835242  1.0000
  H   H104      1.0  0.718052105975209  0.15074285478810645  0.3193767008094303  1.0000
  C   C157      1.0  0.632002820090677  0.8870887283937896  0.7994170675430208  1.0000
  C   C158      1.0  0.6054199457836844  0.8645190249193988  0.8311750559039257  1.0000
  C   C159      1.0  0.6217826458880065  0.8279031882047433  0.8498222109410465  1.0000
  C   C160      1.0  0.6649913682217327  0.8136679339400669  0.8371442441140202  1.0000
  C   C161      1.0  0.6914439941403615  0.8358840096333304  0.8047953682648659  1.0000
  C   C162      1.0  0.6749207044248227  0.8724994879488327  0.7858127738361821  1.0000
  H   H105      1.0  0.5720254510626027  0.8750943868624905  0.8413400514775979  1.0000
  H   H106      1.0  0.6010278096151058  0.8107972534653788  0.8745147410098678  1.0000
  H   H107      1.0  0.7244913912013108  0.8248573095726679  0.794241264421146  1.0000
  H   H108      1.0  0.6956617692520879  0.8896697657307596  0.7611578875297422  1.0000
  C   C163      1.0  0.5767317889105605  0.0997208342780218  0.9394180066121858  1.0000
  C   C164      1.0  0.5907922087854225  0.10103550745983018  0.8917092673257182  1.0000
  C   C165      1.0  0.6137362845124651  0.13523123792473582  0.8742683071279644  1.0000
  C   C166      1.0  0.6232624118397266  0.16797972044478401  0.9045852566110566  1.0000
  C   C167      1.0  0.6084510068125162  0.16697181546713993  0.9521091664543422  1.0000
  C   C168      1.0  0.5853568049792419  0.13282802074329222  0.9695458736383656  1.0000
  H   H109      1.0  0.584291389758918  0.07570883798793893  0.8682075302013164  1.0000
  H   H110      1.0  0.623085872217823  0.13660959061751318  0.8370658520162761  1.0000
  H   H111      1.0  0.6154928703375195  0.19231520064469226  0.9756355308541079  1.0000
  H   H112      1.0  0.5745063535515009  0.13200181951106943  0.0064870429016932185  1.0000
  C   C169      1.0  0.36754145478546063  0.03605742210849727  0.8595491045678307  1.0000
  C   C170      1.0  0.39718055073923125  0.06403926819563188  0.8798503749537624  1.0000
  C   C171      1.0  0.38284288172814024  0.08845681026153795  0.918229477603712  1.0000
  C   C172      1.0  0.3393824883632786  0.08391980212627836  0.937812174297114  1.0000
  C   C173      1.0  0.30954096354349764  0.0558879067638447  0.9176417043438349  1.0000
  C   C174      1.0  0.3233105678221067  0.032613264869957304  0.8777330601619875  1.0000
  H   H113      1.0  0.4313488412501827  0.0669357785921354  0.8659899491264066  1.0000
  H   H114      1.0  0.4058717004527349  0.11041936454305179  0.9333114740299355  1.0000
  H   H115      1.0  0.2757226590778463  0.052712157930323356  0.9323469943399483  1.0000
  H   H116      1.0  0.30009070791160686  0.011313388439637695  0.8619069500986505  1.0000
  C   C175      1.0  0.45667672296628253  0.8546831376076027  0.396714087250976  1.0000
  C   C176      1.0  0.43292603788335937  0.8775480967657914  0.4310293192339549  1.0000
  C   C177      1.0  0.45662423591446516  0.8998671273230882  0.4653226364315172  1.0000
  C   C178      1.0  0.5039253801550715  0.8978764649370229  0.4664139249480173  1.0000
  C   C179      1.0  0.5275364995801962  0.8739604738123682  0.4330418030721137  1.0000
  C   C180      1.0  0.5039615378806274  0.8529533732038608  0.3977059100613026  1.0000
  H   H117      1.0  0.39634771702611415  0.8787601514270168  0.43048690342383955  1.0000
  H   H118      1.0  0.4383177859975964  0.9184683216373192  0.49110657249679657  1.0000
  H   H119      1.0  0.5641619415726365  0.8729030069198482  0.43337412232619543  1.0000
  H   H120      1.0  0.5226038839881045  0.8353213446608466  0.3713200066502245  1.0000
  C   C181      1.0  0.6593848118718897  0.8691678452379064  0.3259955419867309  1.0000
  C   C182      1.0  0.6998028462161566  0.8653846616213419  0.35113941398233856  1.0000
  C   C183      1.0  0.7138143179476378  0.8967514083532306  0.38167794298448027  1.0000
  C   C184      1.0  0.6874600510687047  0.9319682694329031  0.3868632329494954  1.0000
  C   C185      1.0  0.6471102279293615  0.935700376854244  0.3618147861777616  1.0000
  C   C186      1.0  0.6330356199233408  0.9042987252856467  0.3316331369634199  1.0000
  H   H121      1.0  0.7205804064268119  0.8384223619776121  0.34649512467272237  1.0000
  H   H122      1.0  0.7454245916703363  0.894008025934439  0.4002334343978502  1.0000
  H   H123      1.0  0.6267116343532587  0.9629877493900214  0.3656675549140261  1.0000
  H   H124      1.0  0.602513058661248  0.9080159156775872  0.3117674350573871  1.0000
  C   C187      1.0  0.6268990536834683  0.658972730914495  0.13793850801443808  1.0000
  C   C188      1.0  0.6277724305624959  0.6981159035552712  0.15773278953206665  1.0000
  C   C189      1.0  0.5875659535976839  0.720565559375716  0.16305639463956048  1.0000
  C   C190      1.0  0.5466522618690959  0.7042545883483557  0.14750084846223183  1.0000
  C   C191      1.0  0.5459702873620986  0.6655409457216691  0.12646597781842245  1.0000
  C   C192      1.0  0.5860314559023624  0.6427910957742403  0.12209454650651733  1.0000
  H   H125      1.0  0.6593226408015548  0.7106918180813679  0.1701397351989567  1.0000
  H   H126      1.0  0.5883564582648781  0.7503911247671082  0.17942138408360406  1.0000
  H   H127      1.0  0.5144198290248714  0.6529371995773564  0.11407598311139149  1.0000
  H   H128      1.0  0.5852809115021209  0.6127823790372885  0.10641673636305786  1.0000
  C   C193      1.0  0.4809502595691128  0.9198687039140415  0.10403745466040083  1.0000
  C   C194      1.0  0.45841093053308296  0.8833956730083261  0.09454093955471034  1.0000
  C   C195      1.0  0.45437696207997386  0.8693180885993459  0.04759510085472907  1.0000
  C   C196      1.0  0.4737095864721683  0.8913514181233133  0.01016853539290552  1.0000
  C   C197      1.0  0.49607688800572386  0.9279222058120263  0.019670547680451733  1.0000
  C   C198      1.0  0.4994524682179035  0.9423078628317474  0.06652074721539925  1.0000
  H   H129      1.0  0.4438159584695897  0.8660549950279027  0.12332594936384139  1.0000
  H   H130      1.0  0.43669983290670955  0.8412171099987508  0.040573113730427934  1.0000
  H   H131      1.0  0.5119876154718834  0.9447257838666073  0.9912401500442308  1.0000
  H   H132      1.0  0.5180341227999951  0.9698767777754872  0.07376562686824695  1.0000
  C   C199      1.0  0.0863156051530456  0.837146490585926  0.38194619860732054  1.0000
  C   C200      1.0  0.04428550599722847  0.8561721350110009  0.3879771561879393  1.0000
  C   C201      1.0  0.0056861559152923125  0.8328027502188464  0.3977301043678186  1.0000
  C   C202      1.0  0.009311877246866551  0.7904794505948707  0.4019964890281015  1.0000
  C   C203      1.0  0.052043853731873924  0.7721223901561018  0.4005098704873264  1.0000
  C   C204      1.0  0.09053033408832278  0.7954359493509179  0.3903271198173606  1.0000
  H   H133      1.0  0.041112376924942406  0.8884934287751045  0.38204931939145315  1.0000
  H   H134      1.0  0.9727379901677092  0.8473077057815972  0.3999279695957069  1.0000
  H   H135      1.0  0.0554390721370821  0.739868310326157  0.4058748785287666  1.0000
  H   H136      1.0  0.12334185175326229  0.7808701594124426  0.3874187512195402  1.0000
  C   C205      1.0  0.25452086894496984  0.692902334899665  0.36489176106670906  1.0000
  C   C206      1.0  0.27920140073066224  0.6615024624236817  0.386112119638947  1.0000
  C   C207      1.0  0.30208347680392517  0.6686745696118028  0.42892227685780887  1.0000
  C   C208      1.0  0.30073635454196207  0.7074271312380194  0.4499065169297116  1.0000
  C   C209      1.0  0.27595212899821947  0.7385534395275406  0.42878988017557007  1.0000
  C   C210      1.0  0.25196941173984627  0.7309862975580086  0.3870900413125736  1.0000
  H   H137      1.0  0.28075007072175695  0.6317056051889064  0.3694553275373432  1.0000
  H   H138      1.0  0.3208181345171496  0.6443006001531891  0.44544784597284237  1.0000
  H   H139      1.0  0.27456691597559024  0.7684373240193357  0.44522500582245994  1.0000
  H   H140      1.0  0.23101449789505774  0.7545762543308886  0.3726462309619131  1.0000
  C   C211      1.0  0.29885442300244947  0.8913065315833612  0.18395598782787242  1.0000
  C   C212      1.0  0.3398666506127843  0.9083323628038446  0.16884333104725882  1.0000
  C   C213      1.0  0.3464145318007421  0.9504846226305337  0.17184762795964162  1.0000
  C   C214      1.0  0.31143408475941636  0.9756797154035745  0.18879339948945184  1.0000
  C   C215      1.0  0.2704900876095815  0.9586979837134059  0.20404374632890182  1.0000
  C   C216      1.0  0.2645123253969828  0.9164341382525333  0.202470392828159  1.0000
  H   H141      1.0  0.36658063317617073  0.8889597312499056  0.1547109829293693  1.0000
  H   H142      1.0  0.37818664812983444  0.9634923528576324  0.16001854464066037  1.0000
  H   H143      1.0  0.24344347789232335  0.9782275709764515  0.21716324872611054  1.0000
  H   H144      1.0  0.23297511995686748  0.9035368962878344  0.21467928174617396  1.0000
  C   C217      1.0  0.01682643171107534  0.6512120292340384  0.8406298315262373  1.0000
  C   C218      1.0  0.04139193504016392  0.6691186342308261  0.8036205128847345  1.0000
  C   C219      1.0  0.045341988150926715  0.7114051250201983  0.8015966525082044  1.0000
  C   C220      1.0  0.025612630667663838  0.7359174898380728  0.8371489495788991  1.0000
  C   C221      1.0  0.9995745584893739  0.7180872455251379  0.8731839178359116  1.0000
  C   C222      1.0  0.9949720594326543  0.6756610874653406  0.8748439471685904  1.0000
  H   H145      1.0  0.0587916384818592  0.6503338733392181  0.7773708098317819  1.0000
  H   H146      1.0  0.0648648010662487  0.7246521961233958  0.7731327858282562  1.0000
  H   H147      1.0  0.9831138400245066  0.7371283983307787  0.8996540624852248  1.0000
  H   H148      1.0  0.9741852102768739  0.6619307411494925  0.9022237425247931  1.0000
  C   C223      1.0  0.04058074863445493  0.4139257281043829  0.936974500439438  1.0000
  C   C224      1.0  0.06974772469476465  0.4347059795472299  0.9061192358066763  1.0000
  C   C225      1.0  0.08664384714578643  0.4154980375058765  0.8649115710474251  1.0000
  C   C226      1.0  0.07413053421290838  0.37553401068384384  0.8542661672347438  1.0000
  C   C227      1.0  0.04657715127555573  0.3540352188987962  0.8861339527951416  1.0000
  C   C228      1.0  0.02982656347205115  0.3732580910256231  0.9275249071139285  1.0000
  H   H149      1.0  0.07943786451198731  0.46551076353616805  0.913798671421684  1.0000
  H   H150      1.0  0.1094171971293112  0.4316545730452106  0.841470847343969  1.0000
  H   H151      1.0  0.0369527268768044  0.32303263620638556  0.8781117105018585  1.0000
  H   H152      1.0  0.007629953869808581  0.35693059116360876  0.9516221919695033  1.0000
  C   C229      1.0  0.8675946767440204  0.5618290486663855  0.06253565390435667  1.0000
  C   C230      1.0  0.8815785797630566  0.5220195217475918  0.051743521772417145  1.0000
  C   C231      1.0  0.8508963461170235  0.4896837790507074  0.05569651229096384  1.0000
  C   C232      1.0  0.8062439220503457  0.4971575359281215  0.07044733568988604  1.0000
  C   C233      1.0  0.7924553784729016  0.5370147166258314  0.08120438617378967  1.0000
  C   C234      1.0  0.8231109425932647  0.5692328489357139  0.07759421037834491  1.0000
  H   H153      1.0  0.916181278614024  0.5158997150341605  0.04103745651770252  1.0000
  H   H154      1.0  0.8618768901572156  0.45893051673370233  0.04755702078593793  1.0000
  H   H155      1.0  0.7581325437772605  0.5432117209063669  0.09230871644504512  1.0000
  H   H156      1.0  0.812291330602382  0.5999099704577439  0.08626366878614156  1.0000
  C   C235      1.0  0.11405181135531461  0.6552463720732804  0.07409503781184901  1.0000
  C   C236      1.0  0.0699349611227964  0.6606990592131425  0.09182388691177801  1.0000
  C   C237      1.0  0.05854094804794285  0.6960991179595122  0.11756233151299603  1.0000
  C   C238      1.0  0.09126075992691751  0.725941356207342  0.12554094175917585  1.0000
  C   C239      1.0  0.13488968392306822  0.720936051538213  0.10666434396287422  1.0000
  C   C240      1.0  0.14635485854836983  0.6855593249319788  0.08113911560435373  1.0000
  H   H157      1.0  0.044995912554091966  0.637058369638544  0.0870772749000095  1.0000
  H   H158      1.0  0.024987905362055862  0.6995412064642573  0.13288246200085324  1.0000
  H   H159      1.0  0.1599689617589728  0.7441927665096899  0.11184394139873469  1.0000
  H   H160      1.0  0.18032498145086073  0.6816959973445965  0.06706026788089514  1.0000
  N   N1        1.0  0.4322378637657205  0.0598472035894384  0.06789590453093175  1.0000
  C   C241      1.0  0.43018430417929426  0.029709370329904727  0.02870955418886867  1.0000
  C   C242      1.0  0.44371455248287106  0.10016555529879612  0.04811482975212189  1.0000
  C   C243      1.0  0.4671759409526899  0.04732626684539043  0.10209834176576305  1.0000
  C   C244      1.0  0.3878257919369535  0.0620772611939675  0.09252325314610221  1.0000
  H   H161      1.0  0.46322821376536233  0.027454171319841958  0.00935388226278433  1.0000
  H   H162      1.0  0.4040705184003426  0.03828348711350382  0.002279904430179114  1.0000
  H   H163      1.0  0.4217855541433593  0.998839549008522  0.042260924878669615  1.0000
  H   H164      1.0  0.4458946272465704  0.1236923043493805  0.07665706055764265  1.0000
  H   H165      1.0  0.4766900423865564  0.09934160283745608  0.02838327609441249  1.0000
  H   H166      1.0  0.41756021148207806  0.11065928676316017  0.02266860928802683  1.0000
  H   H167      1.0  0.46965180854987  0.06941887697027949  0.13215133838916437  1.0000
  H   H168      1.0  0.5011008166976813  0.04512683605111323  0.08452647361878807  1.0000
  H   H169      1.0  0.45932290609115517  0.017030373230982443  0.11780227279611966  1.0000
  H   H170      1.0  0.3881443960256779  0.08375403239904489  0.12316097004695625  1.0000
  H   H171      1.0  0.3775294663367744  0.03187214628281021  0.1066363283641465  1.0000
  H   H172      1.0  0.36091781371588094  0.07248105328727683  0.06806318930613542  1.0000
  N   N2        1.0  0.35948103630235534  0.7178599268531458  0.24271454121350455  1.0000
  C   C245      1.0  0.31554184171920185  0.7276223785459642  0.22115010119557255  1.0000
  C   C246      1.0  0.37163614502962  0.7505649249835454  0.2766134995824219  1.0000
  C   C247      1.0  0.39439840830311  0.7145673163710418  0.20477559141067392  1.0000
  C   C248      1.0  0.3560411797049692  0.6786978612259853  0.2681040467554885  1.0000
  H   H173      1.0  0.31715838510150224  0.7564887564195241  0.2006670382736393  1.0000
  H   H174      1.0  0.2887654774157484  0.7310884695590514  0.248982117474831  1.0000
  H   H175      1.0  0.30461412850769654  0.7032284043182653  0.19616117599706206  1.0000
  H   H176      1.0  0.4056099298100649  0.7453638850214843  0.2921039318117735  1.0000
  H   H177      1.0  0.37239717060170413  0.7808071811821592  0.2588847994052994  1.0000
  H   H178      1.0  0.3466628659613448  0.7529195747388437  0.3065926240891341  1.0000
  H   H179      1.0  0.42800710945178  0.7065797484079437  0.21955577099788148  1.0000
  H   H180      1.0  0.39832397808503217  0.7437263281237736  0.18513994769372544  1.0000
  H   H181      1.0  0.38577409724351036  0.6906713812900502  0.17806832248681648  1.0000
  H   H182      1.0  0.34660131544497885  0.6535620567174418  0.2433530045396306  1.0000
  H   H183      1.0  0.3295998891310205  0.6799920901352645  0.2966483186254949  1.0000
  H   H184      1.0  0.38863076917455047  0.6702686713249844  0.2848169194217085  1.0000
  N   N3        1.0  0.9958697740776034  0.8404772416037694  0.24781625846390049  1.0000
  C   C249      1.0  0.0011654730482306697  0.8002564291611213  0.270511273350478  1.0000
  C   C250      1.0  0.9745514901923872  0.8352581447575248  0.20082565872392846  1.0000
  C   C251      1.0  0.040840682613106916  0.8593251126152156  0.2415480741228043  1.0000
  C   C252      1.0  0.9670529919838451  0.8671257915351915  0.27819068628757143  1.0000
  H   H185      1.0  0.019869224405132835  0.8026817639932544  0.3044375347596214  1.0000
  H   H186      1.0  0.020681335482046537  0.7787670865926157  0.2472125920853057  1.0000
  H   H187      1.0  0.9678875435695707  0.7860394113471499  0.27882520172044817  1.0000
  H   H188      1.0  0.9703724240082235  0.8649959909437213  0.18255092391464736  1.0000
  H   H189      1.0  0.9955250846696291  0.8154720134852943  0.17688240337398245  1.0000
  H   H190      1.0  0.9405416425002157  0.8211624680047845  0.20435169577298629  1.0000
  H   H191      1.0  0.03826444807155127  0.8900814464036854  0.22549177339588689  1.0000
  H   H192      1.0  0.06279303628246513  0.8406143268951441  0.21759472964789517  1.0000
  H   H193      1.0  0.05849773725445906  0.8627723539674967  0.2761741057880424  1.0000
  H   H194      1.0  0.9616186380370301  0.897318714995681  0.2612507093067502  1.0000
  H   H195      1.0  0.9827777357360206  0.8728311546339685  0.3132920771107792  1.0000
  H   H196      1.0  0.9332692081094048  0.8533539545525217  0.2850366054015498  1.0000
  N   N4        1.0  0.29122066198127405  0.46431484845831855  0.6101675925689473  1.0000
  C   C253      1.0  0.26901506058739844  0.4446976790397463  0.5691066492324404  1.0000
  C   C254      1.0  0.3399847807238569  0.4541823484462633  0.6094753008290069  1.0000
  C   C255      1.0  0.2704519188371429  0.4495027659258234  0.6548578625280913  1.0000
  C   C256      1.0  0.285262100942361  0.5089202053521404  0.6074413888266803  1.0000
  H   H197      1.0  0.28437083621422926  0.4547645457426408  0.5347531316991166  1.0000
  H   H198      1.0  0.23228094452020578  0.45216576295040667  0.5682434120708945  1.0000
  H   H199      1.0  0.27207054478870674  0.4109412973220223  0.5704023989107426  1.0000
  H   H200      1.0  0.35667483769543673  0.4644792057538633  0.5759367591133793  1.0000
  H   H201      1.0  0.35784161947713583  0.46917190578674767  0.6394783578661483  1.0000
  H   H202      1.0  0.345679466278697  0.4207876657167994  0.6119767840907325  1.0000
  H   H203      1.0  0.28627078003228235  0.46373288984623035  0.6866711565790198  1.0000
  H   H204      1.0  0.2735243389382556  0.41588596641104963  0.6580794465735575  1.0000
  H   H205      1.0  0.23390200436566952  0.4573768229723487  0.6565878501879316  1.0000
  H   H206      1.0  0.3016455170711835  0.524803509859631  0.6378739089482597  1.0000
  H   H207      1.0  0.2488266339535067  0.5176578574542003  0.6084963343342946  1.0000
  H   H208      1.0  0.3002043351326501  0.5210948661519035  0.5739226007556206  1.0000
  N   N5        1.0  0.7417372299988859  0.017774502845106177  0.7095780813257392  1.0000
  C   C257      1.0  0.7563114559983699  0.9826085684221486  0.6800762646715575  1.0000
  C   C258      1.0  0.7819011745026703  0.04137553724509213  0.7236832591695228  1.0000
  C   C259      1.0  0.7176140797350052  0.0032460877663624825  0.7526750360238871  1.0000
  C   C260      1.0  0.7112423839643157  0.044038890233244254  0.6817927894482143  1.0000
  H   H209      1.0  0.726873841543942  0.964688879184576  0.6675017966627165  1.0000
  H   H210      1.0  0.7784275824198987  0.9615318915187303  0.7002423184270478  1.0000
  H   H211      1.0  0.7758354821644904  0.9927011474162395  0.6481299227199501  1.0000
  H   H212      1.0  0.8057494062587832  0.022761317261575487  0.7449552224777727  1.0000
  H   H213      1.0  0.8007601313462192  0.05307933615453497  0.6920203677961897  1.0000
  H   H214      1.0  0.7721428257616997  0.06809464481012517  0.7459566208244889  1.0000
  H   H215      1.0  0.7061996782777727  0.029123362701728436  0.7757154376851698  1.0000
  H   H216      1.0  0.7396742763214988  0.9834949895557712  0.7746578297445312  1.0000
  H   H217      1.0  0.6870674579834033  0.9852878940477691  0.7433274537554427  1.0000
  H   H218      1.0  0.7286477883638475  0.056454456810402176  0.6495621720611613  1.0000
  H   H219      1.0  0.6992366778637499  0.07058618118850335  0.7033091531878057  1.0000
  H   H220      1.0  0.6807724248373545  0.02729841373686792  0.6697968684071207  1.0000
  N   N6        1.0  0.7232444524272511  0.3417961484755087  0.19653821155099513  1.0000
  C   C261      1.0  0.6854426017214187  0.3300546142940123  0.16542723981794422  1.0000
  C   C262      1.0  0.7635040592173539  0.3166796121050715  0.18473664458674924  1.0000
  C   C263      1.0  0.709998752430328  0.33510350416290974  0.2468153493846556  1.0000
  C   C264      1.0  0.7339107192057143  0.3852583721035607  0.18930799045537386  1.0000
  H   H221      1.0  0.6765638116887462  0.2973663952522033  0.17005199724496695  1.0000
  H   H222      1.0  0.6941496638329812  0.33486630219361646  0.12717337357409625  1.0000
  H   H223      1.0  0.6545037889368623  0.3483982353845517  0.17374350514979084  1.0000
  H   H224      1.0  0.774893656014777  0.3212600382657779  0.14721290422577235  1.0000
  H   H225      1.0  0.792340822973131  0.32426481593513173  0.20830991341818803  1.0000
  H   H226      1.0  0.7563953114816407  0.2836411867074107  0.18943926997532276  1.0000
  H   H227      1.0  0.6798475521278139  0.35370306524453143  0.25720408657964816  1.0000
  H   H228      1.0  0.7378258820216943  0.34330574881570347  0.27140885103072887  1.0000
  H   H229      1.0  0.7014849723603158  0.302596763273421  0.25337710770757826  1.0000
  H   H230      1.0  0.7621568704396882  0.39520348376749037  0.2124187282056256  1.0000
  H   H231      1.0  0.7041536950005863  0.40497742022346067  0.19797231829764309  1.0000
  H   H232      1.0  0.7440357448262465  0.3915305325871693  0.15167727593587998  1.0000
  N   N7        1.0  0.1005169078781909  0.24415861757918736  0.38881077106598  1.0000
  C   C265      1.0  0.11581662526148005  0.284839246403986  0.40446179011540406  1.0000
  C   C266      1.0  0.13921350429696885  0.21547651080400954  0.38905694934504353  1.0000
  C   C267      1.0  0.08235997393488546  0.24673378823954736  0.34006340831078374  1.0000
  C   C268      1.0  0.06470689293139187  0.2295999297028334  0.4217036822736164  1.0000
  H   H233      1.0  0.08763198530778692  0.30735210590124146  0.40429612715495683  1.0000
  H   H234      1.0  0.14310999619818077  0.29660848125460276  0.3805614026188219  1.0000
  H   H235      1.0  0.12960284202131753  0.2839773764664701  0.44119737580849894  1.0000
  H   H236      1.0  0.1540460768006204  0.2129923170147665  0.42519338932827183  1.0000
  H   H237      1.0  0.12901580951169134  0.18438898688899255  0.3775733170845884  1.0000
  H   H238      1.0  0.16675018362986346  0.22550197827630983  0.36430966584379093  1.0000
  H   H239      1.0  0.07136636468701574  0.21642439349637968  0.3267468759931781  1.0000
  H   H240      1.0  0.10831152475275085  0.2581487174943243  0.3144260465437116  1.0000
  H   H241      1.0  0.05290117931302718  0.26784159237145827  0.33849969165203186  1.0000
  H   H242      1.0  0.07701520178961374  0.22804318430663997  0.4588995150742869  1.0000
  H   H243      1.0  0.052864367669652745  0.1986360249591169  0.41163969744192874  1.0000
  H   H244      1.0  0.034720298822373145  0.25023363393460574  0.4221815507579271  1.0000
  N   N8        1.0  0.7033396592850598  0.6345629654115259  0.983752028713506  1.0000
  C   C269      1.0  0.7130447536870858  0.6708072657743116  0.9544726111670995  1.0000
  C   C270      1.0  0.7042883645128571  0.5978309615465407  0.9530343951895001  1.0000
  C   C271      1.0  0.6582079952417393  0.6390670544861299  0.006561311152559091  1.0000
  C   C272      1.0  0.7380173658656594  0.6305547972241383  0.020945931708894028  1.0000
  H   H245      1.0  0.7464894255254239  0.6679474837002807  0.9361660507237372  1.0000
  H   H246      1.0  0.7137675656828744  0.6990354926146009  0.9765740784969574  1.0000
  H   H247      1.0  0.687300043678794  0.6751941574864344  0.9263387747988777  1.0000
  H   H248      1.0  0.6783949238413898  0.5994397440822274  0.9246947056204737  1.0000
  H   H249      1.0  0.7379198371264164  0.5938606939927856  0.9351888966744771  1.0000
  H   H250      1.0  0.6978967455125576  0.5697666289051592  0.9740006600157423  1.0000
  H   H251      1.0  0.6500418792860574  0.6125354611301215  0.02944223788286493  1.0000
  H   H252      1.0  0.6310419790318272  0.6416828762818813  0.9797024102474764  1.0000
  H   H253      1.0  0.6566252882056934  0.6663808459152648  0.030251155012815945  1.0000
  H   H254      1.0  0.7314581521246066  0.6036276929362289  0.04382051797334352  1.0000
  H   H255      1.0  0.7383794220890362  0.6575926303760349  0.04502000329395628  1.0000
  H   H256      1.0  0.7725628993785484  0.6267465368119982  0.005136600638988131  1.0000
  N   N9        1.0  0.18566154876685662  0.852564301146211  0.06572216923769392  1.0000
  C   C273      1.0  0.2113203842401035  0.8139647534308851  0.06874107384213146  1.0000
  C   C274      1.0  0.20836452152918827  0.8841395012150615  0.09442647459067133  1.0000
  C   C275      1.0  0.1391175562129634  0.8464899983888605  0.08419582547101956  1.0000
  C   C276      1.0  0.18376988427709431  0.8656717724030115  0.015521129285719137  1.0000
  H   H257      1.0  0.2461915251150744  0.8169725669788123  0.05375019213760157  1.0000
  H   H258      1.0  0.19451453885307907  0.7890209742043971  0.04866925595735183  1.0000
  H   H259      1.0  0.21484906626489947  0.8039805093465109  0.1063289519302717  1.0000
  H   H260      1.0  0.20894735268304526  0.8757706178328956  0.1326968317911683  1.0000
  H   H261      1.0  0.2441480766521949  0.8884946477835691  0.08278358750045167  1.0000
  H   H262      1.0  0.19090971324355188  0.9140814961000358  0.09191837102620481  1.0000
  H   H263      1.0  0.11908757414019688  0.8752782506225563  0.08326212702923041  1.0000
  H   H264      1.0  0.1391487948735468  0.8357630601965712  0.12165154459866079  1.0000
  H   H265      1.0  0.12079885314994865  0.8231292109036105  0.06306453736370488  1.0000
  H   H266      1.0  0.16466963336719706  0.8947929649796182  0.012054832910723956  1.0000
  H   H267      1.0  0.1667043880226453  0.842541302382497  0.9929922442445819  1.0000
  H   H268      1.0  0.218215531035206  0.8704863271475571  0.00034928067554873543  1.0000
  N   N10       1.0  0.5208495277095361  0.7565660949114618  0.9858260318798562  1.0000
  C   C277      1.0  0.5500166093753348  0.7306219761443234  0.9550016844680592  1.0000
  C   C278      1.0  0.47825511500669365  0.7657257440033349  0.9609804123422149  1.0000
  C   C279      1.0  0.5446589878023479  0.7949092338769715  0.9968692679331986  1.0000
  C   C280      1.0  0.5103899280582109  0.7349819788124803  0.030616046353160842  1.0000
  H   H269      1.0  0.5822027492453896  0.72279997954212  0.9729599253068967  1.0000
  H   H270      1.0  0.558864707207716  0.7462357163068509  0.9210378821033577  1.0000
  H   H271      1.0  0.5328072163293989  0.7015591185411262  0.9457973943977792  1.0000
  H   H272      1.0  0.48473456364428047  0.7823659844619331  0.9271590566327157  1.0000
  H   H273      1.0  0.4594158756182412  0.7373954173546448  0.9523168399059709  1.0000
  H   H274      1.0  0.45550258500923313  0.7852364139385937  0.9833509247377127  1.0000
  H   H275      1.0  0.5241291756886115  0.8145922312602927  0.02130680437093324  1.0000
  H   H276      1.0  0.5516013102113645  0.8128996039503534  0.9640763516948697  1.0000
  H   H277      1.0  0.5774655548000298  0.7890850321043079  0.014644725301630414  1.0000
  H   H278      1.0  0.4879217233676575  0.7535530287337506  0.05443068960262987  1.0000
  H   H279      1.0  0.5415828636110621  0.7281059509223009  0.050828078996438375  1.0000
  H   H280      1.0  0.4927632461685405  0.7056448304010825  0.024001215418706815  1.0000
  N   N11       1.0  0.16556526937554425  0.6542065062725608  0.878157088730733  1.0000
  C   C281      1.0  0.14493558637483162  0.623026067180514  0.8471464515914596  1.0000
  C   C282      1.0  0.20746776682312806  0.6694018005404322  0.8552536948804101  1.0000
  C   C283      1.0  0.1762554465295455  0.6361039465074909  0.9247808743323723  1.0000
  C   C284      1.0  0.13359223084247684  0.6884255904420666  0.8855562993983492  1.0000
  H   H281      1.0  0.13720622359576717  0.6354550954424586  0.8113265269981854  1.0000
  H   H282      1.0  0.11277324387643527  0.6113546335164485  0.8628380066466703  1.0000
  H   H283      1.0  0.16788956157903642  0.5963931998727371  0.8416780703898635  1.0000
  H   H284      1.0  0.23186809488609159  0.6442701085121402  0.8479043223022102  1.0000
  H   H285      1.0  0.20036680866982665  0.6843075008957459  0.8205576030478114  1.0000
  H   H286      1.0  0.22459205129578927  0.6920681743944103  0.878309078076042  1.0000
  H   H287      1.0  0.20105535400216393  0.6107391425537558  0.9210809518298111  1.0000
  H   H288      1.0  0.1454872962233127  0.6235377146621958  0.942482269110852  1.0000
  H   H289      1.0  0.1907731998967428  0.659038252461011  0.9495953077183439  1.0000
  H   H290      1.0  0.14797126309162434  0.7121015757148195  0.9095089607642791  1.0000
  H   H291      1.0  0.10112980064246699  0.6779726700540809  0.9018201299112377  1.0000
  H   H292      1.0  0.12550465478892822  0.7034655898672716  0.8513429302591099  1.0000
  N   N12       1.0  0.7039629715157291  0.9422059153264744  0.20761163328260368  1.0000
  C   C285      1.0  0.7211372938602233  0.9124731192144564  0.1719131643878109  1.0000
  C   C286      1.0  0.6550411463628826  0.9355961438317796  0.21577813986056582  1.0000
  C   C287      1.0  0.711349105056732  0.9839636936582369  0.19001432519781702  1.0000
  C   C288      1.0  0.7284283398552196  0.9367538404419954  0.2527709488797347  1.0000
  H   H293      1.0  0.7581062370832401  0.9161618618705742  0.16529922713232903  1.0000
  H   H294      1.0  0.7041453238053647  0.9161066536625346  0.13701517374198557  1.0000
  H   H295      1.0  0.7154540941955079  0.8806047835850617  0.18391650549144467  1.0000
  H   H296      1.0  0.6411610256309065  0.956740601793645  0.2435196654608065  1.0000
  H   H297      1.0  0.6353759630318578  0.9401527757371639  0.18266922857954304  1.0000
  H   H298      1.0  0.6482553937931107  0.9040399774163429  0.22803292525240781  1.0000
  H   H299      1.0  0.7478140368724023  0.9894856038791123  0.18251699670960497  1.0000
  H   H300      1.0  0.7002469241363716  0.007165726407287076  0.21689329721320383  1.0000
  H   H301      1.0  0.6927335112188878  0.9895878586412545  0.15650400196377912  1.0000
  H   H302      1.0  0.7152572452731525  0.9575820937203967  0.2812555590070063  1.0000
  H   H303      1.0  0.7651762615075633  0.9432334279159705  0.24833587333828255  1.0000
  H   H304      1.0  0.7251156171766633  0.9050857137587166  0.26608499560706145  1.0000
  N   N13       1.0  0.6910071081137777  0.08963728275606941  0.4619061863862992  1.0000
  C   C289      1.0  0.6890162113361706  0.06361026911467627  0.5045938475441996  1.0000
  C   C290      1.0  0.6541647499422079  0.07836674703233126  0.42925875067021724  1.0000
  C   C291      1.0  0.7351847552281738  0.08446811659958908  0.4373006420690617  1.0000
  C   C292      1.0  0.6853547792270571  0.13248251000863442  0.47666390688931615  1.0000
  H   H305      1.0  0.6911825079530415  0.030939582609829985  0.4945617213787128  1.0000
  H   H306      1.0  0.6565492656739206  0.06790177408284515  0.5245917692245226  1.0000
  H   H307      1.0  0.7171682225335032  0.07047581276668935  0.5293943593563126  1.0000
  H   H308      1.0  0.6535131082889141  0.0983146696037327  0.3973589765669727  1.0000
  H   H309      1.0  0.6576103143646802  0.04645974917672269  0.4163294016606127  1.0000
  H   H310      1.0  0.6204764107096497  0.08088448037219265  0.44718011843357086  1.0000
  H   H311      1.0  0.7376808974945689  0.10429856830193462  0.4053730850588939  1.0000
  H   H312      1.0  0.7403181301213475  0.052511198728216524  0.42507213005091526  1.0000
  H   H313      1.0  0.7636600459286798  0.09233425018531727  0.4611539998669101  1.0000
  H   H314      1.0  0.6863724459813653  0.15298940244428638  0.4454980183206596  1.0000
  H   H315      1.0  0.7121624764334752  0.14237238712524936  0.5015083844381589  1.0000
  H   H316      1.0  0.6522159898848066  0.13735353216777457  0.49473129963060725  1.0000
  N   N14       1.0  0.9421370619927214  0.6210921539818756  0.7096641286402858  1.0000
  C   C293      1.0  0.9245404700513318  0.6479282274907571  0.6720526691181292  1.0000
  C   C294      1.0  0.927087682720022  0.6367089370241382  0.7568148296142995  1.0000
  C   C295      1.0  0.9921032230904246  0.6203729500718719  0.7070065075747618  1.0000
  C   C296      1.0  0.9248463901316671  0.5793603669388032  0.7027331396457556  1.0000
  H   H317      1.0  0.9374372807144283  0.6386002742702186  0.6362117996743152  1.0000
  H   H318      1.0  0.9347702604082134  0.6801011914193843  0.6780133088859788  1.0000
  H   H319      1.0  0.8868514767853422  0.6473935948077127  0.6711912658424357  1.0000
  H   H320      1.0  0.9414098336149175  0.6673577817969852  0.7642862189071791  1.0000
  H   H321      1.0  0.8895678114199932  0.6395122296522275  0.7590161262347752  1.0000
  H   H322      1.0  0.937883642190361  0.6162356523492756  0.7860309198652516  1.0000
  H   H323      1.0  0.00640676309517052  0.6514982791780597  0.7105344263884757  1.0000
  H   H324      1.0  0.004496670545683257  0.6076226260743003  0.6723919508283958  1.0000
  H   H325      1.0  0.006635617701920893  0.6012237241198232  0.7357024024498291  1.0000
  H   H326      1.0  0.9395281501084722  0.5580000337384267  0.729012361664078  1.0000
  H   H327      1.0  0.9337106377819965  0.5673297568651127  0.6666222485644366  1.0000
  H   H328      1.0  0.8873769204158778  0.5782942632908556  0.7066915997121314  1.0000
  N   N15       1.0  0.3341610211143059  0.900185237455622  0.9014774313082516  1.0000
  C   C297      1.0  0.3568253638178838  0.9338448803278003  0.9267056834227515  1.0000
  C   C298      1.0  0.365416695276211  0.8824980224327225  0.8653065620038628  1.0000
  C   C299      1.0  0.2934087292173053  0.9158385763108038  0.8775610096768212  1.0000
  C   C300      1.0  0.3211430291787787  0.8686416867880501  0.9362837541851803  1.0000
  H   H329      1.0  0.33388807435757306  0.9488229833009428  0.9532972107386051  1.0000
  H   H330      1.0  0.36813496169491017  0.9576455822110024  0.9013823825256072  1.0000
  H   H331      1.0  0.3872783328103724  0.9229058677129663  0.9458559934695241  1.0000
  H   H332      1.0  0.34905220715480606  0.8573529619297817  0.8451246240114931  1.0000
  H   H333      1.0  0.3763221576389263  0.9058050957160008  0.8388868140780279  1.0000
  H   H334      1.0  0.39652755645033744  0.8700959070600823  0.881923943950967  1.0000
  H   H335      1.0  0.3025254672838832  0.9387994031446745  0.8500636462335445  1.0000
  H   H336      1.0  0.2694022896265509  0.9304804691544315  0.9033329110525057  1.0000
  H   H337      1.0  0.2749836857278949  0.8910391602769717  0.8588867782633123  1.0000
  H   H338      1.0  0.3028321316416318  0.8432796524872608  0.9188288543838566  1.0000
  H   H339      1.0  0.2985942796467074  0.8813097970683723  0.9647434610214227  1.0000
  H   H340      1.0  0.35143692531789966  0.8554333941914123  0.9538175119502796  1.0000
  N   N16       1.0  0.9393363542436979  0.8612160889961794  0.7781095434783397  1.0000
  C   C301      1.0  0.9740452598896328  0.8750515254921335  0.8119834187821674  1.0000
  C   C302      1.0  0.9503146840230261  0.8768232502009246  0.7300259433593959  1.0000
  C   C303      1.0  0.894536102646588  0.876757911537098  0.7938092277976979  1.0000
  C   C304      1.0  0.9384271087034507  0.8162193133685978  0.7768022597135722  1.0000
  H   H341      1.0  0.9679984113882953  0.8622046413797629  0.8482310283952994  1.0000
  H   H342      1.0  0.9744832015638483  0.9087832396867177  0.815476348979645  1.0000
  H   H343      1.0  0.008523005887018487  0.8651143717946898  0.800422733872177  1.0000
  H   H344      1.0  0.9247076034718817  0.8670299922513987  0.7036437856393826  1.0000
  H   H345      1.0  0.9516404571411182  0.9107098144857093  0.7298358531906707  1.0000
  H   H346      1.0  0.9840306159734531  0.8656081858648954  0.7172585836314366  1.0000
  H   H347      1.0  0.8673402354717341  0.8665641328177582  0.7694408560240128  1.0000
  H   H348      1.0  0.8938729181842002  0.9106059922319572  0.7952681396841421  1.0000
  H   H349      1.0  0.88564506228612  0.865694411870195  0.8301940988658117  1.0000
  H   H350      1.0  0.9711782134949041  0.8033764308956376  0.7636525551181378  1.0000
  H   H351      1.0  0.9113109789413673  0.8045223088441308  0.753276034198117  1.0000
  H   H352      1.0  0.9325293484368274  0.8034591828017157  0.8130690664752078  1.0000
  N   N17       1.0  0.7473915095769884  0.3412973226831105  0.8643589727254978  1.0000
  C   C305      1.0  0.7862209175133116  0.313753429917975  0.8721642518927444  1.0000
  C   C306      1.0  0.7474106382956219  0.35447343869891174  0.8140786949116917  1.0000
  C   C307      1.0  0.7511954015646228  0.3774233988733698  0.8957473419441032  1.0000
  C   C308      1.0  0.7048426707743168  0.31951698613178753  0.8753427156505948  1.0000
  H   H353      1.0  0.78325863484382  0.28534639693035657  0.8506491124127511  1.0000
  H   H354      1.0  0.7885475170181813  0.30459169594400165  0.9101646458500539  1.0000
  H   H355      1.0  0.818825781929415  0.3282700286414833  0.8616933060677473  1.0000
  H   H356      1.0  0.7177826258715733  0.37429753122590986  0.8065157490844523  1.0000
  H   H357      1.0  0.7782610728419013  0.3724196138344998  0.8051936796181071  1.0000
  H   H358      1.0  0.7465514676156939  0.327967432679549  0.7891896227787287  1.0000
  H   H359      1.0  0.7232470219579009  0.39955786570101803  0.8896795942590885  1.0000
  H   H360      1.0  0.7834635259603644  0.3939812005567228  0.8890537525814914  1.0000
  H   H361      1.0  0.7502401680868319  0.3689436027870622  0.9340864139311573  1.0000
  H   H362      1.0  0.7039976270156791  0.3084253171588373  0.9127649368207869  1.0000
  H   H363      1.0  0.7006758831086196  0.2922830751390204  0.851939825920692  1.0000
  H   H364      1.0  0.6747343826060419  0.339441235628702  0.8705007217065681  1.0000
  N   N18       1.0  0.9643895346294388  0.8290698563162313  0.5494583833498393  1.0000
  C   C309      1.0  0.9284670476790672  0.8108114990679816  0.5201137278444363  1.0000
  C   C310      1.0  0.0020264353369805477  0.8423750855417028  0.5181665327921313  1.0000
  C   C311      1.0  0.9813288548667449  0.7985320584207918  0.5834284741275543  1.0000
  C   C312      1.0  0.945923418552265  0.8645536649139663  0.5759695533406726  1.0000
  H   H365      1.0  0.9167202178240489  0.8322025858114482  0.4921540013862095  1.0000
  H   H366      1.0  0.8984555784523128  0.8021466992677025  0.5419766280580285  1.0000
  H   H367      1.0  0.9407180439683075  0.7829034893846764  0.5013022767901656  1.0000
  H   H368      1.0  0.02959148845706694  0.8566474187292921  0.538902129724658  1.0000
  H   H369      1.0  0.01689486574235488  0.816289154139079  0.49788956965695147  1.0000
  H   H370      1.0  0.9903962373164951  0.8652181391254814  0.4918294779245966  1.0000
  H   H371      1.0  0.9539959833681227  0.7878630211875765  0.6078167897257858  1.0000
  H   H372      1.0  0.008801517182627228  0.8112575278990387  0.6057829704666396  1.0000
  H   H373      1.0  0.9953937313312743  0.7713456255424302  0.5644398233536232  1.0000
  H   H374      1.0  0.9721202613614123  0.8788662362639564  0.598626232107163  1.0000
  H   H375      1.0  0.9170765851457541  0.8558322004718211  0.5994823556897783  1.0000
  H   H376      1.0  0.9335739469068657  0.8883751676276438  0.5512400135675758  1.0000
  N   N19       1.0  0.40740107579809187  0.5821246211382771  0.8134224630670435  1.0000
  C   C313      1.0  0.3796313825078036  0.6194709769937364  0.8097702852275679  1.0000
  C   C314      1.0  0.4063003184954483  0.5595584368478447  0.7676993290579734  1.0000
  C   C315      1.0  0.38902141017081393  0.5562333424441399  0.8519236276068877  1.0000
  C   C316      1.0  0.45456828381512315  0.5933107704074043  0.824325485682622  1.0000
  H   H377      1.0  0.38124489189073346  0.638235454600237  0.8428138379404501  1.0000
  H   H378      1.0  0.34346997614638564  0.6120963874500408  0.8033643517785127  1.0000
  H   H379      1.0  0.3910784913972774  0.6387851241592333  0.7794769941985763  1.0000
  H   H380      1.0  0.42698290272764167  0.5312323730639396  0.7689772901234546  1.0000
  H   H381      1.0  0.37103479092674246  0.5508857236864493  0.7584281289311524  1.0000
  H   H382      1.0  0.41944037020315816  0.5783931946767782  0.7377062112712279  1.0000
  H   H383      1.0  0.4109850310427325  0.5292468169672054  0.8581883261166839  1.0000
  H   H384      1.0  0.3547725409596379  0.5446634445533008  0.8431682433902609  1.0000
  H   H385      1.0  0.38589103861998525  0.5734166378053488  0.8861129281075092  1.0000
  H   H386      1.0  0.47667998843275605  0.5659005974039236  0.8268083206763991  1.0000
  H   H387      1.0  0.456590338976245  0.6098789500666447  0.8590200836006737  1.0000
  H   H388      1.0  0.4692593010029086  0.6132711949264775  0.7962421202798476  1.0000
  N   N20       1.0  0.13819848176145544  0.949523205747732  0.4700989352976696  1.0000
  C   C317      1.0  0.12831432453507263  0.958753497999067  0.41980158132114825  1.0000
  C   C318      1.0  0.17744924656890104  0.9737470009522545  0.4855187893968357  1.0000
  C   C319      1.0  0.14846097709861428  0.905688105617  0.4748455821478857  1.0000
  C   C320      1.0  0.09851410110249659  0.9600073130319667  0.500312278058531  1.0000
  H   H389      1.0  0.09844850080478929  0.9414819185506582  0.40715169969136406  1.0000
  H   H390      1.0  0.1572517512418643  0.9504240572324728  0.3958288287657803  1.0000
  H   H391      1.0  0.12104987184432647  0.991703226201185  0.4147470249048693  1.0000
  H   H392      1.0  0.17052417583600232  0.006973507997188877  0.48226223423240666  1.0000
  H   H393      1.0  0.18581243933406189  0.9678542609696239  0.5234398353388449  1.0000
  H   H394      1.0  0.20814492424346742  0.966645914999423  0.4635345786405831  1.0000
  H   H395      1.0  0.15648091157031185  0.8976969215104973  0.5123111381578824  1.0000
  H   H396      1.0  0.17781572846048732  0.8965318791278879  0.4518356479609504  1.0000
  H   H397      1.0  0.11926823994117819  0.8867244136356829  0.4637251990164256  1.0000
  H   H398      1.0  0.06784382860393379  0.9431519793307326  0.4889558829672542  1.0000
  H   H399      1.0  0.09040419100348385  0.9930289255542223  0.49837555826363367  1.0000
  H   H400      1.0  0.10470742781835463  0.9528634447932081  0.5384250085589491  1.0000
  N   N21       1.0  0.09000868503777636  0.46117870319836074  0.48217695262744914  1.0000
  C   C321      1.0  0.10133013089958731  0.504731320639455  0.4780234201669122  1.0000
  C   C322      1.0  0.13091519381841898  0.43798098550168724  0.49522558508264314  1.0000
  C   C323      1.0  0.07302386735238063  0.44607162709287385  0.4360295961243908  1.0000
  C   C324      1.0  0.05466919780704126  0.45617917051351514  0.5194226578306961  1.0000
  H   H401      1.0  0.07152900571809416  0.5228800044129643  0.4668244592164778  1.0000
  H   H402      1.0  0.12835303778103113  0.5100396377316875  0.45102161362571414  1.0000
  H   H403      1.0  0.11354693043874174  0.5174480435964738  0.5123094716809667  1.0000
  H   H404      1.0  0.158410219071299  0.4415130356403922  0.4680485007796895  1.0000
  H   H405      1.0  0.1444783359544439  0.44841187812869143  0.5299963602024558  1.0000
  H   H406      1.0  0.12377098912701866  0.4048810084681847  0.49832766675308376  1.0000
  H   H407      1.0  0.04240340106004781  0.46320512600814556  0.4248867304984017  1.0000
  H   H408      1.0  0.06419204111306497  0.41324486668414717  0.4377591327197561  1.0000
  H   H409      1.0  0.09889577535101  0.4495921725145035  0.4071580589523259  1.0000
  H   H410      1.0  0.04452876866106136  0.42379798990067324  0.5230607144874887  1.0000
  H   H411      1.0  0.023766167448806774  0.474141184154025  0.5111345854927409  1.0000
  H   H412      1.0  0.06657186094890498  0.46688239079932103  0.5548492644612151  1.0000
  N   N22       1.0  0.7950983181187034  0.4502862704066149  0.49037411981553797  1.0000
  C   C325      1.0  0.8307273603330888  0.41863018312497213  0.4914514486506048  1.0000
  C   C326      1.0  0.7502790218149651  0.4306036450186284  0.48786403143031604  1.0000
  C   C327      1.0  0.8020036786153821  0.4765169947657855  0.4482777689224122  1.0000
  C   C328      1.0  0.7973449083430784  0.4753832196862911  0.5341257285851301  1.0000
  H   H413      1.0  0.8649700510513356  0.43234597885328163  0.4936475839163011  1.0000
  H   H414      1.0  0.8300910256726979  0.3991632834737708  0.45884287856092587  1.0000
  H   H415      1.0  0.8260872722450507  0.39817099006256496  0.522680261378881  1.0000
  H   H416      1.0  0.7438750553212324  0.41090308749234244  0.5193900855035443  1.0000
  H   H417      1.0  0.7224962917756383  0.45349590805968265  0.48648634976938854  1.0000
  H   H418      1.0  0.7476260405132977  0.4110142755754631  0.455521121172029  1.0000
  H   H419      1.0  0.8005957301636832  0.4586746075243297  0.4145341498190214  1.0000
  H   H420      1.0  0.8354261757948331  0.49201047678758497  0.4490391449418627  1.0000
  H   H421      1.0  0.7756477395081186  0.5007062848651098  0.4463610443592985  1.0000
  H   H422      1.0  0.7693903419686011  0.4980771025255264  0.5355886075749524  1.0000
  H   H423      1.0  0.829823331780272  0.49233967729264444  0.5361175410023248  1.0000
  H   H424      1.0  0.7944406529935727  0.4563817979168986  0.5666674420118595  1.0000
  N   N23       1.0  0.1389371100303118  0.2580278749994262  0.7053437480531282  1.0000
  C   C329      1.0  0.16266375132382427  0.297187544504805  0.6995029225411145  1.0000
  C   C330      1.0  0.09140662847235137  0.2627971573178606  0.6904997026754371  1.0000
  C   C331      1.0  0.14000450181829957  0.24592989509154523  0.7559830544236774  1.0000
  C   C332      1.0  0.1615894886745031  0.22649643728460722  0.6755705044753315  1.0000
  H   H425      1.0  0.1984744124434499  0.29512288891696065  0.710972898410881  1.0000
  H   H426      1.0  0.1459964765710979  0.32157727065566033  0.721175902333319  1.0000
  H   H427      1.0  0.16279822942351138  0.30722815041880774  0.6617198837289925  1.0000
  H   H428      1.0  0.07332760004169936  0.2860473153137798  0.7128513378375295  1.0000
  H   H429      1.0  0.08931254057046578  0.272925291114465  0.6528455148038155  1.0000
  H   H430      1.0  0.07256647777288783  0.23366806429586906  0.6935049342113144  1.0000
  H   H431      1.0  0.12350903815408219  0.2693761688383961  0.7794036183128875  1.0000
  H   H432      1.0  0.17533623699543158  0.24203722656868057  0.768474790535019  1.0000
  H   H433      1.0  0.12197170811147862  0.2166881998732139  0.76191443020038  1.0000
  H   H434      1.0  0.1457117288097491  0.19613409972412163  0.6803567164226232  1.0000
  H   H435      1.0  0.19795842680791578  0.22312926377000072  0.6846024103943397  1.0000
  H   H436      1.0  0.16002732100418812  0.23390675651964649  0.6369537261195016  1.0000
  N   N24       1.0  0.6458619544605758  0.26906592145566416  0.6247699430555732  1.0000
  C   C333      1.0  0.6830376206344243  0.24663918766824613  0.6004127977075056  1.0000
  C   C334      1.0  0.6148376828036693  0.28588387870950893  0.588916540694255  1.0000
  C   C335      1.0  0.6647861477530475  0.3027526214579264  0.653321794234527  1.0000
  C   C336      1.0  0.6207908056519967  0.2409565857167061  0.6563414434828504  1.0000
  H   H437      1.0  0.708112669597212  0.23488008197608584  0.6262116416559533  1.0000
  H   H438      1.0  0.7013920523309732  0.2662719014802981  0.5744362587644891  1.0000
  H   H439      1.0  0.670065733706819  0.21995366598359212  0.5801546420559069  1.0000
  H   H440      1.0  0.5867027501899126  0.30354079395651923  0.6058423629995656  1.0000
  H   H441      1.0  0.6329630026406331  0.3063571289673671  0.563625658542265  1.0000
  H   H442      1.0  0.5995618440036775  0.2613197401886428  0.5670239490098746  1.0000
  H   H443      1.0  0.6376964646353261  0.3203527734447354  0.6721929036390265  1.0000
  H   H444      1.0  0.6838287546860274  0.3245701860288241  0.6304082813825398  1.0000
  H   H445      1.0  0.6884925324365783  0.29120795302658653  0.680667683741145  1.0000
  H   H446      1.0  0.6052467127464207  0.21571102810969542  0.6356143164063781  1.0000
  H   H447      1.0  0.5930572575987458  0.2568470950573681  0.6762143703242629  1.0000
  H   H448      1.0  0.6435478827134257  0.22669668171391139  0.6828644735060705  1.0000
  N   N25       1.0  0.1500499874014289  0.6120494216395536  0.22051030800317645  1.0000
  C   C337      1.0  0.1344587065757545  0.6028876863497027  0.26952340739606184  1.0000
  C   C338      1.0  0.1224475199627566  0.5894000360727013  0.18584459040219095  1.0000
  C   C339      1.0  0.19803817069375543  0.59995732670393  0.2147745722027267  1.0000
  C   C340      1.0  0.14526891588391552  0.6561130110574399  0.21173499452835776  1.0000
  H   H449      1.0  0.15501109347542627  0.61933447542946  0.296464345470112  1.0000
  H   H450      1.0  0.13713895035832735  0.5697663872888579  0.2772915848085781  1.0000
  H   H451      1.0  0.09852826813411153  0.6121536460741168  0.2752143982198605  1.0000
  H   H452      1.0  0.13509093066909525  0.5939686836867918  0.1487433436561543  1.0000
  H   H453      1.0  0.12257550881589795  0.5561793586053613  0.19330104852108748  1.0000
  H   H454      1.0  0.08662525860742985  0.5999431859944826  0.1868985270505147  1.0000
  H   H455      1.0  0.20282787710121514  0.5667991459792733  0.22104287353140045  1.0000
  H   H456      1.0  0.21991544125280796  0.6165812406971594  0.2403299556343814  1.0000
  H   H457      1.0  0.21111244698628054  0.6067323734002301  0.17826476674408068  1.0000
  H   H458      1.0  0.16399176292133033  0.6742689660976786  0.23840295870249378  1.0000
  H   H459      1.0  0.10918317203645066  0.6660136780805755  0.21362587098598562  1.0000
  H   H460      1.0  0.15885950652983355  0.6642335012262832  0.17599418104587383  1.0000
  N   N26       1.0  0.15550484429646017  0.47225599021890924  0.06861805530776333  1.0000
  C   C341      1.0  0.18054082267915894  0.4378050824947433  0.08944212502081572  1.0000
  C   C342      1.0  0.11146151965011608  0.45763903322738864  0.0511885136963246  1.0000
  C   C343      1.0  0.1818995582793732  0.48965797347160767  0.02857526925985865  1.0000
  C   C344      1.0  0.14788278227985496  0.5039173391792328  0.10548198906196937  1.0000
  H   H461      1.0  0.2135185347767794  0.4476549143629559  0.10417373604459224  1.0000
  H   H462      1.0  0.18763389861102486  0.4135571208454355  0.06249625231940836  1.0000
  H   H463      1.0  0.16081997911736434  0.42371697075736525  0.11909197525003012  1.0000
  H   H464      1.0  0.09199755260487019  0.48248739352112296  0.03425304307131549  1.0000
  H   H465      1.0  0.11567412778813635  0.4329935459971058  0.024068090407134646  1.0000
  H   H466      1.0  0.0900213610655749  0.4453015230501762  0.08070373403294417  1.0000
  H   H467      1.0  0.16425295509086246  0.5162451953340831  0.012644571743243516  1.0000
  H   H468      1.0  0.18787918781626978  0.4669124768171782  0.9996165924733198  1.0000
  H   H469      1.0  0.21556353789842642  0.500655041555324  0.040302606673923824  1.0000
  H   H470      1.0  0.18051336282484765  0.5159999937299411  0.11889209450572369  1.0000
  H   H471      1.0  0.12857396424638323  0.4916087626026725  0.13646684433165457  1.0000
  H   H472      1.0  0.1281981831824872  0.52995632644984  0.09114777468261526  1.0000
  N   N27       1.0  0.46418169772185774  0.7357051868451906  0.45263812984179197  1.0000
  C   C345      1.0  0.43397814537042845  0.7087764002215178  0.4252944861553352  1.0000
  C   C346      1.0  0.4833847349252376  0.7131259953208102  0.4931050579270823  1.0000
  C   C347      1.0  0.43802816497522  0.7710630242689839  0.4709932101648297  1.0000
  C   C348      1.0  0.5012309716261647  0.7498102312515057  0.4210439438593124  1.0000
  H   H473      1.0  0.4522789933979352  0.6813915627766076  0.41150744611668305  1.0000
  H   H474      1.0  0.4190408959842206  0.724995347134052  0.39448236589076946  1.0000
  H   H475      1.0  0.40528869702649567  0.6980484584744906  0.447747483709866  1.0000
  H   H476      1.0  0.45642577591557215  0.7027684625812923  0.5182329387056064  1.0000
  H   H477      1.0  0.5023301710609271  0.6854844710449781  0.4809869216373663  1.0000
  H   H478      1.0  0.5070549341214956  0.7322823217248429  0.5139273794790981  1.0000
  H   H479      1.0  0.46022496499553844  0.7940145944484562  0.4881424024351117  1.0000
  H   H480      1.0  0.4120764312348378  0.7617126266342671  0.49780702264749765  1.0000
  H   H481      1.0  0.41947930684932416  0.7865636205357277  0.4420141240359991  1.0000
  H   H482      1.0  0.523988765286119  0.7713539430129  0.4398129124177971  1.0000
  H   H483      1.0  0.48776062338131854  0.7658836296189421  0.3894233558551774  1.0000
  H   H484      1.0  0.5223094747304531  0.7239291340465897  0.4076201986676583  1.0000
  N   N28       1.0  0.3699740608829374  0.05918862589848373  0.6841808044573227  1.0000
  C   C349      1.0  0.40997504237226506  0.03421976878668964  0.6959461709631605  1.0000
  C   C350      1.0  0.3850116506684427  0.09775982966898358  0.6624167919622533  1.0000
  C   C351      1.0  0.3436175237027128  0.06809571031867145  0.728170266331029  1.0000
  C   C352      1.0  0.3413200274524752  0.03669830322821488  0.6502555947643266  1.0000
  H   H485      1.0  0.43188419417996643  0.049956438614268565  0.7222519388394952  1.0000
  H   H486      1.0  0.43135495367338356  0.027904083942207555  0.6638611601557255  1.0000
  H   H487      1.0  0.39999620257830176  0.004524788435159355  0.7116581498717647  1.0000
  H   H488      1.0  0.35593320729689853  0.11807779060019523  0.6546090475829239  1.0000
  H   H489      1.0  0.40838924646414276  0.11460635723200559  0.6862396644236557  1.0000
  H   H490      1.0  0.4036913580524916  0.09219912852550485  0.6282643106399775  1.0000
  H   H491      1.0  0.3647103706449932  0.08369742725164286  0.7553212148610758  1.0000
  H   H492      1.0  0.3307413259806507  0.03965770318928441  0.7447934913394342  1.0000
  H   H493      1.0  0.3138696147399017  0.08786308528996578  0.7209246943912198  1.0000
  H   H494      1.0  0.31039994551662303  0.05438478431370086  0.6412847869150127  1.0000
  H   H495      1.0  0.3300950249539875  0.007066604934118592  0.6652211158772485  1.0000
  H   H496      1.0  0.35979916683002255  0.030127055106891062  0.6162118025855269  1.0000
  N   N29       1.0  0.9478877539500632  0.4626610162429297  0.8218316149686037  1.0000
  C   C353      1.0  0.9227711931368386  0.45764753452991574  0.8673247505804939  1.0000
  C   C354      1.0  0.9826244513021747  0.4944353095266296  0.827734741684422  1.0000
  C   C355      1.0  0.9163369307077988  0.474892351893281  0.7840230699526836  1.0000
  C   C356      1.0  0.9698996538496536  0.4237631507978881  0.8083198481224847  1.0000
  H   H497      1.0  0.9065663451959269  0.48671043335888287  0.8790655972909124  1.0000
  H   H498      1.0  0.9455669922738253  0.4478103173389819  0.8965183534122899  1.0000
  H   H499      1.0  0.8954030040484081  0.4346771112813788  0.8640721719681045  1.0000
  H   H500      1.0  0.9669929240366495  0.5239633456336791  0.8386409156339889  1.0000
  H   H501      1.0  0.007333640634967997  0.48610729613582204  0.855686666745299  1.0000
  H   H502      1.0  0.002008663144299927  0.4996770964931224  0.794075431961689  1.0000
  H   H503      1.0  0.889283255587331  0.4518199846925351  0.7790132638108139  1.0000
  H   H504      1.0  0.9342659176774282  0.47858923298281036  0.7491446361010099  1.0000
  H   H505      1.0  0.8992282532713188  0.5041969935576502  0.793078910724104  1.0000
  H   H506      1.0  0.9906859199335124  0.4267594464128916  0.7751485148719833  1.0000
  H   H507      1.0  0.9445910827189028  0.39933987755382794  0.8023474191039134  1.0000
  H   H508      1.0  0.9927097237288902  0.41311213587288775  0.836812603326901  1.0000
  N   N30       1.0  0.9241881409648195  0.7252944263129595  0.02483630186285879  1.0000
  C   C357      1.0  0.889600747259821  0.7565687263268015  0.03638762508627269  1.0000
  C   C358      1.0  0.9052420244718299  0.6956944006676483  0.990703520310458  1.0000
  C   C359      1.0  0.9373723592009967  0.7039793007880293  0.06877918221793866  1.0000
  C   C360      1.0  0.964399625026189  0.7449222319879224  0.003379087441477413  1.0000
  H   H509      1.0  0.9030457384321223  0.7804290716859108  0.06060811650276232  1.0000
  H   H510      1.0  0.8592646370372018  0.7429105367965563  0.053780051514587646  1.0000
  H   H511      1.0  0.877881103004042  0.7721241450198661  0.0036162261427801212  1.0000
  H   H512      1.0  0.9295868032001454  0.6708245824228362  0.9819505937505373  1.0000
  H   H513      1.0  0.8744653351135315  0.6806527968511187  0.005497055870814949  1.0000
  H   H514      1.0  0.8958910378554411  0.710413740394191  0.9565980496709793  1.0000
  H   H515      1.0  0.9632069924180799  0.6799440890105466  0.061098656576689114  1.0000
  H   H516      1.0  0.907880172407198  0.688505094660515  0.08570007249379064  1.0000
  H   H517      1.0  0.9518160145052086  0.725308813206501  0.09541227887671311  1.0000
  H   H518      1.0  0.9807281485644119  0.7661573540938719  0.028884438843614024  1.0000
  H   H519      1.0  0.9551832253290126  0.763031455046027  0.9715250355639689  1.0000
  H   H520      1.0  0.9902398463736634  0.7219676231781551  0.9919688091114427  1.0000
  N   N31       1.0  0.8683836992492799  0.554272973750857  0.22035981546867942  1.0000
  C   C361      1.0  0.883923484816607  0.5185223462970742  0.19228045666181262  1.0000
  C   C362      1.0  0.885705596537838  0.5514446392264262  0.2694534420708681  1.0000
  C   C363      1.0  0.8183617908489669  0.5553294114881364  0.22169444924029783  1.0000
  C   C364      1.0  0.8855568179947827  0.5918440814045626  0.19789865771975593  1.0000
  H   H521      1.0  0.8714597741240476  0.5197101915175779  0.15507105688904568  1.0000
  H   H522      1.0  0.8716677174587444  0.48957291486841437  0.20811839808062454  1.0000
  H   H523      1.0  0.9215173707494355  0.5168464426899302  0.19020728563607814  1.0000
  H   H524      1.0  0.8748526547776235  0.5780574840162248  0.2916611466830415  1.0000
  H   H525      1.0  0.8733925921105304  0.5235225875750353  0.28763398887253805  1.0000
  H   H526      1.0  0.9233805391539252  0.5506039686671181  0.2696154094885269  1.0000
  H   H527      1.0  0.804136543060111  0.527372055492145  0.23824406553977595  1.0000
  H   H528      1.0  0.8042683918378787  0.5575698272034787  0.18516263162630645  1.0000
  H   H529      1.0  0.8053852418940751  0.5819292344465962  0.24259362659540334  1.0000
  H   H530      1.0  0.8752752519065586  0.6194132323991223  0.21861182626925466  1.0000
  H   H531      1.0  0.8728633135487238  0.5952486583267006  0.1609893007831076  1.0000
  H   H532      1.0  0.923133924302576  0.5917725943133548  0.19547463938196172  1.0000
  N   N32       1.0  0.7011288189464536  0.03431788003749081  0.9687335426352023  1.0000
  C   C365      1.0  0.7195832307003511  0.06509404947982178  0.9356272894101935  1.0000
  C   C366      1.0  0.679352133813711  0.05510094814320787  0.009914242982253407  1.0000
  C   C367      1.0  0.7381587163331006  0.007900423177189975  0.9856548426221783  1.0000
  C   C368      1.0  0.6673293506690008  0.009239883586378506  0.9437418752649757  1.0000
  H   H533      1.0  0.735322437306413  0.05052800340042074  0.9035756730283926  1.0000
  H   H534      1.0  0.746126028801145  0.08396778999338861  0.9527799922096742  1.0000
  H   H535      1.0  0.6926878145271135  0.08620173716204049  0.9230755345305749  1.0000
  H   H536      1.0  0.6648551448151698  0.03287077985162967  0.03559373263735055  1.0000
  H   H537      1.0  0.7038881272716822  0.07451364315073761  0.02936852235760301  1.0000
  H   H538      1.0  0.6511183050099267  0.07510624745693528  0.9983962240982229  1.0000
  H   H539      1.0  0.7254820397465406  0.9843344835649478  0.010797287951098689  1.0000
  H   H540      1.0  0.7644245753362603  0.025782762662337477  0.004575200935137191  1.0000
  H   H541      1.0  0.7553420278234397  0.9915818101512224  0.9556010526681308  1.0000
  H   H542      1.0  0.6515565611889301  0.9865056817649615  0.9679882800597146  1.0000
  H   H543      1.0  0.6827990329744877  0.9923533837904186  0.9130895385984277  1.0000
  H   H544      1.0  0.6395017023540435  0.028349237578549014  0.9294928415477508  1.0000
  N   N33       1.0  0.16564050887089093  0.6987234352868782  0.5185512982610968  1.0000
  C   C369      1.0  0.20266804681247808  0.6986025546546726  0.553490880661881  1.0000
  C   C370      1.0  0.12212939675875378  0.6911607523556395  0.5433411982334784  1.0000
  C   C371      1.0  0.17398763612954204  0.6664569396300277  0.4825063192238216  1.0000
  C   C372      1.0  0.1636087592859274  0.7387251847945713  0.4949136607636058  1.0000
  H   H545      1.0  0.2359107773403873  0.7053187010459945  0.5363029349655369  1.0000
  H   H546      1.0  0.20582566117734954  0.6684854190022045  0.5710547013597769  1.0000
  H   H547      1.0  0.19683569534491363  0.7215953289985464  0.5822650610429667  1.0000
  H   H548      1.0  0.12278779403445948  0.6617914511354703  0.5628678981674052  1.0000
  H   H549      1.0  0.11426567976189415  0.7154082851507692  0.5700241746279102  1.0000
  H   H550      1.0  0.09360162448660424  0.6897951302638646  0.5179131101919834  1.0000
  H   H551      1.0  0.14700905284011287  0.665907690400395  0.4551705946500855  1.0000
  H   H552      1.0  0.17461018025361616  0.6357713074816939  0.4991309547599464  1.0000
  H   H553      1.0  0.206913227518691  0.6708268062547489  0.463630911774368  1.0000
  H   H554      1.0  0.13609140979694967  0.739692494459866  0.46821908984739513  1.0000
  H   H555      1.0  0.19583293304148255  0.7455234399817302  0.475926417282896  1.0000
  H   H556      1.0  0.15748692511166196  0.7636747119929239  0.5212406485143244  1.0000
  N   N34       1.0  0.0407182642729389  0.09279630093794888  0.06889150065460292  1.0000
  C   C373      1.0  0.0669477500616169  0.11833620409076206  0.035395248167843674  1.0000
  C   C374      1.0  0.07199015387987062  0.071891399901997  0.10143393678680424  1.0000
  C   C375      1.0  0.014838121785880398  0.06220217247881554  0.04180150403348115  1.0000
  C   C376      1.0  0.009164380201805322  0.11880054802774476  0.09690120368071176  1.0000
  H   H557      1.0  0.09118298083551357  0.09971912237800451  0.01368970682055859  1.0000
  H   H558      1.0  0.08707010427294026  0.14165572755236622  0.05470777246697911  1.0000
  H   H559      1.0  0.044385516546964654  0.13474637749404672  0.010474615166674583  1.0000
  H   H560      1.0  0.05365194408039531  0.050820202561315586  0.12576910260706708  1.0000
  H   H561      1.0  0.09777729021466297  0.05375938603735775  0.08128148495759202  1.0000
  H   H562      1.0  0.0906769079333527  0.0940136591381242  0.12393874952872985  1.0000
  H   H563      1.0  0.9942018719211904  0.04271668528365269  0.0659601533799421  1.0000
  H   H564      1.0  0.03771738554170079  0.04184180242896751  0.020635037445138282  1.0000
  H   H565      1.0  0.9910132820315853  0.07693971997921434  0.016685800242336235  1.0000
  H   H566      1.0  0.9886040456821913  0.10049788865933595  0.12234983040156999  1.0000
  H   H567      1.0  0.985007106904655  0.13499357980498483  0.07338653917902294  1.0000
  H   H568      1.0  0.0277314697989961  0.14226337816137535  0.11771465612440446  1.0000
  N   N35       1.0  0.8998576546894647  0.07045937282789594  0.3518266402730472  1.0000
  C   C377      1.0  0.938383896628478  0.08239418444548341  0.381832975667286  1.0000
  C   C378      1.0  0.8571313824371122  0.08498581288768081  0.3741487529029224  1.0000
  C   C379      1.0  0.8987435294204603  0.025616818750032078  0.3471594084098646  1.0000
  C   C380      1.0  0.905165144878019  0.08891028293797731  0.30417716492947755  1.0000
  H   H569      1.0  0.9357883257672066  0.06852924817886907  0.417838316619092  1.0000
  H   H570      1.0  0.9398984258635605  0.11604191581194878  0.38667577223171334  1.0000
  H   H571      1.0  0.9712863922342154  0.07228372439655373  0.3658919513581953  1.0000
  H   H572      1.0  0.8274345227682965  0.07615525941440837  0.35242362006021977  1.0000
  H   H573      1.0  0.852215283597679  0.07201159348746633  0.41036400554390484  1.0000
  H   H574      1.0  0.8566177275458752  0.11879719442325043  0.3778865384315693  1.0000
  H   H575      1.0  0.930432249348094  0.013590484866245367  0.3303668592486617  1.0000
  H   H576      1.0  0.8699559328085477  0.015533144243788044  0.3247809905706056  1.0000
  H   H577      1.0  0.8948619046387338  0.010741330763973878  0.3825464125054019  1.0000
  H   H578      1.0  0.8766748661509296  0.08057449894724877  0.2805621947691401  1.0000
  H   H579      1.0  0.9369880090980006  0.07860777019711085  0.2861529648559451  1.0000
  H   H580      1.0  0.9057909259870747  0.1227579601168447  0.3064962434612144  1.0000
  N   N36       1.0  0.60679028043829  0.8968847765977359  0.6260489428900824  1.0000
  C   C381      1.0  0.6372040246998555  0.9083983236713961  0.5861566167505359  1.0000
  C   C382      1.0  0.6340405063467722  0.883191856855665  0.6667477120005094  1.0000
  C   C383      1.0  0.5769792993587389  0.8633832260388753  0.6107520591448873  1.0000
  C   C384      1.0  0.5789576600757943  0.9324302669269787  0.6406772568066138  1.0000
  H   H581      1.0  0.6178841705547096  0.9192422498066899  0.5548559310357092  1.0000
  H   H582      1.0  0.6584830104891494  0.8822417210600049  0.5738801335288629  1.0000
  H   H583      1.0  0.6605706723318919  0.9331759782706336  0.5967367985610025  1.0000
  H   H584      1.0  0.6121681249776862  0.8739454175747784  0.6973582123747487  1.0000
  H   H585      1.0  0.6559288822640117  0.8567688058527423  0.6568531480969417  1.0000
  H   H586      1.0  0.6566471822489541  0.9077701791839051  0.6797102547723604  1.0000
  H   H587      1.0  0.5536244103829585  0.8539798902785589  0.6400483036273155  1.0000
  H   H588      1.0  0.5969577330927553  0.8362542313477881  0.5991182203309314  1.0000
  H   H589      1.0  0.5557436781172763  0.8726051283990467  0.5802027219087604  1.0000
  H   H590      1.0  0.5559642827840425  0.9249463891388177  0.6711019024464373  1.0000
  H   H591      1.0  0.5576948171581456  0.9433786416064383  0.6107813940165395  1.0000
  H   H592      1.0  0.6003964354880311  0.9582937311047995  0.6523903368169727  1.0000
  N   N37       1.0  0.43724279988727793  0.4943546648213988  0.14993849743479698  1.0000
  C   C385      1.0  0.4701051710391879  0.5281371081292271  0.15103334523037837  1.0000
  C   C386      1.0  0.4103974243540091  0.49437915302569735  0.19472383827621284  1.0000
  C   C387      1.0  0.46164378407752343  0.45517277423638774  0.1449066273810918  1.0000
  C   C388      1.0  0.4067510005588456  0.49971578421212876  0.10910097209745602  1.0000
  H   H593      1.0  0.4936291089528304  0.5251562658092966  0.18148698298590776  1.0000
  H   H594      1.0  0.45276579027695174  0.5581842229394327  0.1543690813575959  1.0000
  H   H595      1.0  0.491081725972621  0.5288537648130777  0.11783620373079866  1.0000
  H   H596      1.0  0.38467227788939196  0.46963796425772364  0.19476389244114192  1.0000
  H   H597      1.0  0.43223283899383813  0.4897515089220813  0.22626774046857806  1.0000
  H   H598      1.0  0.3919822821972681  0.5236896480344562  0.19991136282458707  1.0000
  H   H599      1.0  0.437746137331118  0.4290479531561025  0.14471770391475186  1.0000
  H   H600      1.0  0.48571820573020436  0.45048646230010597  0.1745960143135462  1.0000
  H   H601      1.0  0.4816279677578299  0.4537620511953925  0.11103984466767765  1.0000
  H   H602      1.0  0.38818247103572684  0.5292212208680931  0.11146887723830123  1.0000
  H   H603      1.0  0.3810387590700803  0.4750393362095211  0.10757462874985906  1.0000
  H   H604      1.0  0.4259313149010645  0.4993653125244961  0.07470123786427708  1.0000
  N   N38       1.0  0.9121516998962954  0.17728766939922416  0.6418389729904579  1.0000
  C   C389      1.0  0.9096317123695219  0.1909099154765091  0.5918239813024505  1.0000
  C   C390      1.0  0.8900341322542412  0.20789474099206884  0.6732022877711819  1.0000
  C   C391      1.0  0.9600009002227581  0.17263680922844374  0.6554456336247466  1.0000
  C   C392      1.0  0.888889198009422  0.1377614696469726  0.6469350662581735  1.0000
  H   H605      1.0  0.9260496201510348  0.1687218605674894  0.566982386837507  1.0000
  H   H606      1.0  0.9268917414943657  0.22063339510875013  0.586506949825248  1.0000
  H   H607      1.0  0.8739667699217963  0.1946942659476421  0.5804206592393909  1.0000
  H   H608      1.0  0.9063458695004574  0.23825555776116308  0.6699401734230284  1.0000
  H   H609      1.0  0.8537803636992536  0.21174934965468897  0.6641894662791671  1.0000
  H   H610      1.0  0.8915239516916422  0.19901393375698895  0.7113838352951257  1.0000
  H   H611      1.0  0.9793336345324005  0.20118382458238315  0.6492786352520288  1.0000
  H   H612      1.0  0.9768247573633648  0.14798765868820846  0.6344852010958391  1.0000
  H   H613      1.0  0.9631388293555818  0.16421225785725946  0.6936356623801341  1.0000
  H   H614      1.0  0.891121245860605  0.12605908850665432  0.6839648922133205  1.0000
  H   H615      1.0  0.9041024407152342  0.11414511572152015  0.6228934732851994  1.0000
  H   H616      1.0  0.8523816126351778  0.14023712057675458  0.637987104896857  1.0000
  N   N39       1.0  0.7075653335227907  0.6746755299651126  0.6613987513391278  1.0000
  C   C393      1.0  0.7534369260616384  0.6837003509723416  0.6426976175840245  1.0000
  C   C394      1.0  0.6744546729596915  0.6781882790308869  0.6225867910424915  1.0000
  C   C395      1.0  0.6957877003189618  0.703876414981039  0.6999165532881517  1.0000
  C   C396      1.0  0.7065843359357626  0.6328440042173465  0.6804374464504978  1.0000
  H   H617      1.0  0.7795160099900833  0.6801992141095313  0.6707489519368108  1.0000
  H   H618      1.0  0.7558928353372742  0.7153574327931893  0.6290593014120084  1.0000
  H   H619      1.0  0.7631807593025021  0.6626707555398054  0.6129901571027387  1.0000
  H   H620      1.0  0.6394365897442842  0.6715707786023833  0.6354818759272981  1.0000
  H   H621      1.0  0.6744179615261748  0.709276048988593  0.6070915610919227  1.0000
  H   H622      1.0  0.6822800321924638  0.6562837955419571  0.5931202485166794  1.0000
  H   H623      1.0  0.6614934228133155  0.697852298604504  0.7151015152499645  1.0000
  H   H624      1.0  0.696189921749648  0.7357978585614888  0.6868636028946598  1.0000
  H   H625      1.0  0.7202294447180844  0.7019540981395983  0.7296561864510829  1.0000
  H   H626      1.0  0.6727283497192147  0.6250676312124349  0.69563707430555  1.0000
  H   H627      1.0  0.7320029482266021  0.6287649537502831  0.7089934854773835  1.0000
  H   H628      1.0  0.7145876286811529  0.609963832050323  0.6521073765258762  1.0000
  N   N40       1.0  0.40184620885712674  0.9689077116941383  0.3144633129243432  1.0000
  C   C397      1.0  0.3900382882886299  0.004638400781828311  0.28535425136633635  1.0000
  C   C398      1.0  0.4513226789243228  0.9676411739719398  0.3213861595358611  1.0000
  C   C399      1.0  0.3874474473494018  0.9313620452502407  0.2896980871661368  1.0000
  C   C400      1.0  0.3785702752930585  0.9720544835492827  0.3613184259427488  1.0000
  H   H629      1.0  0.35276590227923904  0.007318437350356533  0.2809688548680926  1.0000
  H   H630      1.0  0.4053961734613783  0.0025515628836993982  0.24895139532457763  1.0000
  H   H631      1.0  0.40174090544441876  0.033497868078639526  0.30204065036329797  1.0000
  H   H632      1.0  0.4698400534924342  0.9650022314829564  0.28666436035630705  1.0000
  H   H633      1.0  0.4634921573832995  0.9957032675828984  0.3395124913597399  1.0000
  H   H634      1.0  0.46135422491442846  0.9412211803276057  0.34369304696709857  1.0000
  H   H635      1.0  0.3948882784039245  0.9038260505306094  0.311144620944503  1.0000
  H   H636      1.0  0.4052014923753135  0.9276201714683645  0.2546449010427054  1.0000
  H   H637      1.0  0.3504629048415281  0.9317095320819626  0.2826104051602566  1.0000
  H   H638      1.0  0.3411442841440705  0.9720486932841168  0.3575418618373801  1.0000
  H   H639      1.0  0.38757879176768784  0.0006946964864702474  0.3803658970586461  1.0000
  H   H640      1.0  0.38773715118287133  0.9462840538734386  0.3848842444812565  1.0000
