data_image0
_chemical_formula_structural       FeS2FeS2FeSFeS3FeS2FeS2FeSFeS3FeS2FeS2FeSFeS3FeS2FeS2FeSFeS3FeS2FeS2FeSFeS3FeS2FeS2FeSFeS3FeS2FeS2FeSFeS3FeS2FeS2FeSFeS3FeS2FeS2FeSFeS3FeS2FeS2FeSFeS3FeS2FeS2FeSFeS3FeS2FeS2FeSFeS3FeS2FeS2FeSFeS3FeS2FeS2FeSFeS3FeS2FeS2FeSFeS3FeS2FeS2FeSFeS3FeS2FeS2FeSFeS3FeS2FeS2FeSFeS3FeS2FeS2FeSFeS3FeS2FeS2FeSFeS3FeS2FeS2FeSFeS3FeS2FeS2FeSFeS3FeS2FeS2FeSFeS3FeS2FeS2FeSFeS3FeS2FeS2FeSFeS3FeS2FeS2FeSFeS3FeS2FeS2FeSFeS3FeS2FeS2FeSFeS3C6H4C6H4C6H4C6H4C6H4C6H4C6H4C6H4C6H4C6H4C6H4C6H4C6H4C6H4C6H4C6H4C6H4C6H4C6H4C6H4C6H4C6H4C6H4C6H4C6H4C6H4C6H4C6H4C6H4C6H4C6H4C6H4C6H4C6H4C6H4C6H4C6H4C6H4C6H4C6H4C6H4C6H4C6H4C6H4C6H4C6H4C6H4C6H4C6H4C6H4C6H4C6H4C6H4C6H4C6H4C6H4NC4H12NC4H12NC4H12NC4H12NC4H12NC4H12NC4H12NC4H12NC4H12NC4H12NC4H12NC4H12NC4H12NC4H12NC4H12NC4H12NC4H12NC4H12NC4H12NC4H12NC4H12NC4H12NC4H12NC4H12NC4H12NC4H12NC4H12NC4H12NC4H12NC4H12NC4H12NC4H12NC4H12NC4H12NC4H12NC4H12NC4H12NC4H12NC4H12NC4H12NC4H12NC4H12NC4H12NC4H12NC4H12NC4H12NC4H12NC4H12NC4H12NC4H12NC4H12NC4H12NC4H12NC4H12NC4H12NC4H12
_chemical_formula_sum              "Fe112 S224 C560 H896 N56"
_cell_length_a       35.99076278295776
_cell_length_b       35.94520048661096
_cell_length_c       87.26915884499908
_cell_angle_alpha    79.05999815378694
_cell_angle_beta     79.11920332374875
_cell_angle_gamma    101.04408828332365

_space_group_name_H-M_alt    "P 1"
_space_group_IT_number       1

loop_
  _space_group_symop_operation_xyz
  'x, y, z'

loop_
  _atom_site_type_symbol
  _atom_site_label
  _atom_site_symmetry_multiplicity
  _atom_site_fract_x
  _atom_site_fract_y
  _atom_site_fract_z
  _atom_site_occupancy
  Fe  Fe1       1.0  0.1789827796057525  0.7320986522371855  0.782568260333489  1.0000
  S   S1        1.0  0.13390672201170747  0.720494113094255  0.8055342055917387  1.0000
  S   S2        1.0  0.2159973843281167  0.6914336894340052  0.776378263609547  1.0000
  Fe  Fe2       1.0  0.15876264020812209  0.8064186936324342  0.7683138836244792  1.0000
  S   S3        1.0  0.11211789888441036  0.8016468352581352  0.7899778861723189  1.0000
  S   S4        1.0  0.1657177615670952  0.8558037950933722  0.747364651243448  1.0000
  Fe  Fe3       1.0  0.15521134536375117  0.7845268965269984  0.8036922470852531  1.0000
  S   S5        1.0  0.15862067214131234  0.8048509494926424  0.8262494739262207  1.0000
  Fe  Fe4       1.0  0.09544727028716798  0.738665630681473  0.7895511929216512  1.0000
  S   S6        1.0  0.031915947211879694  0.7100409656870702  0.79393027188571  1.0000
  S   S7        1.0  0.20387110619319407  0.7945894600569262  0.7819598364743601  1.0000
  S   S8        1.0  0.13877282310393138  0.7449786429398615  0.7666510506721148  1.0000
  Fe  Fe5       1.0  0.31940038360515294  0.998530282970758  0.8052363534032506  1.0000
  S   S9        1.0  0.3055829809188883  0.03509524989594137  0.7841759745752002  1.0000
  S   S10       1.0  0.2742324507024774  0.9607590077673672  0.8266594991814764  1.0000
  Fe  Fe6       1.0  0.4062537311504367  0.034110551291772984  0.7943034940662536  1.0000
  S   S11       1.0  0.40002011971898  0.07397128995065283  0.772452996449501  1.0000
  S   S12       1.0  0.4632452086354322  0.03162747607552685  0.8009985196215345  1.0000
  Fe  Fe7       1.0  0.348322923344076  0.08410927498138077  0.7883686432208575  1.0000
  S   S13       1.0  0.34399572682743434  0.146568125368848  0.7858383496932072  1.0000
  Fe  Fe8       1.0  0.35816371332083247  0.022036441466808387  0.7700792857780114  1.0000
  S   S14       1.0  0.36368650068640074  0.016844792884284532  0.7446973241726668  1.0000
  S   S15       1.0  0.3582551942473597  0.0488490826012169  0.8106176117701179  1.0000
  S   S16       1.0  0.3685089774759416  0.9806500718386961  0.7907128911385933  1.0000
  Fe  Fe9       1.0  0.15000957962285197  0.03999016664039812  0.772886511454036  1.0000
  S   S17       1.0  0.1292748800270976  0.06943875267448862  0.7921554290748843  1.0000
  S   S18       1.0  0.19102519927566686  0.002057930412501685  0.777215662184765  1.0000
  Fe  Fe10      1.0  0.1102955479653654  0.08083146232612748  0.7495159305525979  1.0000
  S   S19       1.0  0.0870324520132967  0.11512657964367112  0.7664281129980316  1.0000
  S   S20       1.0  0.10093966672455218  0.08440947381662967  0.7247250187585527  1.0000
  Fe  Fe11      1.0  0.14609719506981245  0.1229077691965994  0.7720141012955667  1.0000
  S   S21       1.0  0.1842539281446929  0.17882451723989123  0.7733041741417054  1.0000
  Fe  Fe12      1.0  0.07273042045522106  0.05815709008093406  0.7847378434946801  1.0000
  S   S22       1.0  0.014153806122324676  0.03547506301930148  0.8017488589707429  1.0000
  S   S23       1.0  0.17068748470507197  0.09402362666279451  0.7533145749778531  1.0000
  S   S24       1.0  0.0917658687370407  0.023157635942389287  0.7673612857211001  1.0000
  Fe  Fe13      1.0  0.93924650455889  0.5348610577471301  0.7733490724472988  1.0000
  S   S25       1.0  0.9643769533795077  0.49918364530380094  0.7908718617478431  1.0000
  S   S26       1.0  0.9809994776834612  0.5851158805804633  0.7552507254041219  1.0000
  Fe  Fe14      1.0  0.85792426799127  0.4839159658900949  0.7864864837374466  1.0000
  S   S27       1.0  0.8757527606350782  0.44471882481857306  0.8053068034497322  1.0000
  S   S28       1.0  0.7952936453083452  0.465786793882471  0.7861143977467305  1.0000
  Fe  Fe15      1.0  0.9109910193163552  0.4998665722461175  0.8086392471060545  1.0000
  S   S29       1.0  0.9107898803240745  0.5095948289179296  0.8332315775467024  1.0000
  Fe  Fe16      1.0  0.926786764737119  0.44790801583159373  0.7857099946388558  1.0000
  S   S30       1.0  0.9410150938958818  0.39168476058319324  0.7822754970834428  1.0000
  S   S31       1.0  0.8881608101522034  0.539235194359259  0.7915814810119548  1.0000
  S   S32       1.0  0.9066463558871426  0.48348912932497895  0.7664147256034943  1.0000
  Fe  Fe17      1.0  0.9458434936037703  0.2423764220700544  0.8519194934865325  1.0000
  S   S33       1.0  0.9495957198839886  0.19772663078996566  0.8729198448584585  1.0000
  S   S34       1.0  0.9715442933663163  0.3063316980724363  0.8472814322967333  1.0000
  Fe  Fe18      1.0  0.8978214149030569  0.18463720528572702  0.8387123185944968  1.0000
  S   S35       1.0  0.8964440579960018  0.13354859306616418  0.8580741755189302  1.0000
  S   S36       1.0  0.8695892185809957  0.18356228848146938  0.8181248692280357  1.0000
  Fe  Fe19      1.0  0.8865704988372397  0.17288055647635048  0.8746772727374784  1.0000
  S   S37       1.0  0.8487248370785045  0.14277849233569007  0.8990314150250733  1.0000
  Fe  Fe20      1.0  0.9593806091275198  0.16104991998705365  0.8551813831670779  1.0000
  S   S38       1.0  0.004051282795010938  0.12584850398018865  0.8568535593949722  1.0000
  S   S39       1.0  0.8814301860701408  0.2217213595345502  0.8555223539410173  1.0000
  S   S40       1.0  0.9622388119139319  0.20810105808263746  0.8338843597628542  1.0000
  Fe  Fe21      1.0  0.6230825824721645  0.20818442182954033  0.7963010106022844  1.0000
  S   S41       1.0  0.6816652065834337  0.19526516206390898  0.7956905643448918  1.0000
  S   S42       1.0  0.5884754126521614  0.1919055261238778  0.7786723523750186  1.0000
  Fe  Fe22      1.0  0.6319112115394134  0.259485206760633  0.8197552951081423  1.0000
  S   S43       1.0  0.6915821118950874  0.25203880314408056  0.8209938623930332  1.0000
  S   S44       1.0  0.5987096209142029  0.2940796990101482  0.8335442925980817  1.0000
  Fe  Fe23      1.0  0.7019899937714044  0.25878381378330456  0.7944834257017416  1.0000
  S   S45       1.0  0.7601457732521841  0.2920417502976155  0.7788897282926269  1.0000
  Fe  Fe24      1.0  0.666681489136823  0.18933132822041876  0.8223151432604453  1.0000
  S   S46       1.0  0.6865812047164093  0.1499765731913092  0.8406148118742491  1.0000
  S   S47       1.0  0.6447017951426776  0.2726234770866103  0.7928992020107829  1.0000
  S   S48       1.0  0.6054363383024689  0.19580335440671237  0.8232248666232325  1.0000
  Fe  Fe25      1.0  0.7457791113999646  0.3394935331479668  0.9232320066126528  1.0000
  S   S49       1.0  0.7642994148766897  0.37955419973620175  0.8986355826149713  1.0000
  S   S50       1.0  0.7500756847161679  0.3661921453516769  0.9443600280678522  1.0000
  Fe  Fe26      1.0  0.7196453356611564  0.26886469634378407  0.9105749814642756  1.0000
  S   S51       1.0  0.7356544060068938  0.30225941092450487  0.8850048670172086  1.0000
  S   S52       1.0  0.6973000013981722  0.20417169429076773  0.9165149204248488  1.0000
  Fe  Fe27      1.0  0.7894121458738572  0.33161408768943723  0.8912303753334934  1.0000
  S   S53       1.0  0.8447829310423263  0.33762759522420543  0.8733127306636161  1.0000
  Fe  Fe28      1.0  0.7091144863191103  0.3469227516679141  0.8945164734942262  1.0000
  S   S54       1.0  0.6730438605811203  0.3794214521110756  0.8813064793735064  1.0000
  S   S55       1.0  0.7761280798445317  0.294208275451425  0.9161027774195497  1.0000
  S   S56       1.0  0.6876897853338265  0.3108090344255808  0.9197952933687161  1.0000
  Fe  Fe29      1.0  0.4052190518045092  0.8589878661412776  0.7080837513198268  1.0000
  S   S57       1.0  0.42487154404633826  0.8109759262540688  0.6982301846213468  1.0000
  S   S58       1.0  0.37708928066556663  0.8515210652552359  0.7339720243108676  1.0000
  Fe  Fe30      1.0  0.429276686596129  0.9169384446807745  0.6758083459986819  1.0000
  S   S59       1.0  0.4509480575590689  0.8744845929507875  0.6628356858419762  1.0000
  S   S60       1.0  0.43214788147874905  0.9791715008201041  0.6647393249643363  1.0000
  Fe  Fe31      1.0  0.39696366739747113  0.8312285460923523  0.6782192366007888  1.0000
  S   S61       1.0  0.354372964561081  0.7950265858561206  0.6679684746885803  1.0000
  Fe  Fe32      1.0  0.4768360364430935  0.8585455656407968  0.6839545835133884  1.0000
  S   S62       1.0  0.5401456592240648  0.8589842890496169  0.6807631902706924  1.0000
  S   S63       1.0  0.37301962591906934  0.8755213800690791  0.6893256229025113  1.0000
  S   S64       1.0  0.4594771775977006  0.9047694490566206  0.6955996995556633  1.0000
  Fe  Fe33      1.0  0.12706186531317928  0.581086291025924  0.7315218740381306  1.0000
  S   S65       1.0  0.16750653658869458  0.5504022349969234  0.7191708064709533  1.0000
  S   S66       1.0  0.1025104995478285  0.5614312590607953  0.7579576312031862  1.0000
  Fe  Fe34      1.0  0.13468309321245212  0.6418825250538088  0.7011471407581309  1.0000
  S   S67       1.0  0.17582553765686898  0.6158416805898155  0.6862122380051695  1.0000
  S   S68       1.0  0.11604970072706872  0.694623393415241  0.6897783231867617  1.0000
  Fe  Fe35      1.0  0.13498450908489595  0.5585442876407881  0.6997133251018441  1.0000
  S   S69       1.0  0.12046144134090264  0.5076093705382281  0.6884416711203  1.0000
  Fe  Fe36      1.0  0.20388064905339184  0.6104248818523473  0.7071851209152729  1.0000
  S   S70       1.0  0.2681717797259892  0.623161397067248  0.7060609135640937  1.0000
  S   S71       1.0  0.09151679820832628  0.5850953924441218  0.7130997786812086  1.0000
  S   S72       1.0  0.1657688890459927  0.6407174118754462  0.7211612365292067  1.0000
  Fe  Fe37      1.0  0.25428751112228276  0.961818709558536  0.6457678689784213  1.0000
  S   S73       1.0  0.27072705269977443  0.9528488253664043  0.669343206380067  1.0000
  S   S74       1.0  0.30435356642506056  0.9705058198845021  0.6248238754482481  1.0000
  Fe  Fe38      1.0  0.16900192649668744  0.9456254320024777  0.6612609261009326  1.0000
  S   S75       1.0  0.17768895223707332  0.9342358722519535  0.6863229424566245  1.0000
  S   S76       1.0  0.10776044342127869  0.9384489734705439  0.6583875368358633  1.0000
  Fe  Fe39      1.0  0.2275423164614617  0.9870050037775941  0.6765404783630331  1.0000
  S   S77       1.0  0.24534262881815413  0.03284648069268825  0.6897598966616093  1.0000
  Fe  Fe40      1.0  0.2203149038803504  0.9013467921299507  0.6771040060661172  1.0000
  S   S78       1.0  0.23221167282974853  0.8478895339324037  0.6911844706343678  1.0000
  S   S79       1.0  0.21557601223521355  0.0014363490213564103  0.6520982163713376  1.0000
  S   S80       1.0  0.20673985043665524  0.9072147195345431  0.6529092446561964  1.0000
  Fe  Fe41      1.0  0.8777228761811187  0.35828049705123866  0.6620451043620853  1.0000
  S   S81       1.0  0.8948683536528184  0.3013442481185215  0.6642181506114454  1.0000
  S   S82       1.0  0.8371132271933966  0.3739002918112706  0.6465285161953386  1.0000
  Fe  Fe42      1.0  0.9264690408340982  0.38432708593440346  0.6848363024326173  1.0000
  S   S83       1.0  0.9475404081277694  0.32910268790082264  0.6889323979107277  1.0000
  S   S84       1.0  0.9410905431521802  0.43306439885199344  0.6971002632874761  1.0000
  Fe  Fe43      1.0  0.9546192511424823  0.33655513877499105  0.6623436183994317  1.0000
  S   S85       1.0  0.004316003146700325  0.3286239487028749  0.6445803905721338  1.0000
  Fe  Fe44      1.0  0.8855225471169383  0.2998342515229279  0.6903801925366191  1.0000
  S   S86       1.0  0.8515486927676094  0.24307950379737342  0.7070120194968329  1.0000
  S   S87       1.0  0.9383901345388757  0.3941306932680137  0.6580485954039422  1.0000
  S   S88       1.0  0.863571198460171  0.3542916538969429  0.6885407295481075  1.0000
  Fe  Fe45      1.0  0.002686470490714247  0.15370574638277915  0.6051262897411172  1.0000
  S   S89       1.0  0.9597127005271756  0.13722606941832866  0.6288818708160957  1.0000
  S   S90       1.0  0.004455966406114078  0.20352879843698993  0.585111080471048  1.0000
  Fe  Fe46      1.0  0.04491072612965001  0.09175619091291917  0.6141484692241908  1.0000
  S   S91       1.0  0.0065555518459585954  0.06876035117477867  0.6390129516246991  1.0000
  S   S92       1.0  0.0969694363459544  0.07242515855277282  0.6031416857140187  1.0000
  Fe  Fe47      1.0  0.9582085261500624  0.07590167841623457  0.6267390105280127  1.0000
  S   S93       1.0  0.9010934818551108  0.03276017586172846  0.6326905169095143  1.0000
  Fe  Fe48      1.0  0.011425370886611838  0.1316220942728953  0.6392223657125266  1.0000
  S   S94       1.0  0.02107441140940347  0.15484715108258193  0.660542278086054  1.0000
  S   S95       1.0  0.9959684952589261  0.09282633002155516  0.6018520228091163  1.0000
  S   S96       1.0  0.054697691661495795  0.15406868836229262  0.6156808964533258  1.0000
  Fe  Fe49      1.0  0.6513481773279649  0.04101861016554471  0.695959832643256  1.0000
  S   S97       1.0  0.6985144521343208  0.025730656710397475  0.6793334629630863  1.0000
  S   S98       1.0  0.6030124051273332  0.9934808458755231  0.7129834829339093  1.0000
  Fe  Fe50      1.0  0.6892455957197702  0.12786185187314714  0.6847761549543765  1.0000
  S   S99       1.0  0.738444985684228  0.11887347097240088  0.6670377314051521  1.0000
  S   S100      1.0  0.6943355324516414  0.19013268278131204  0.6864322793458172  1.0000
  Fe  Fe51      1.0  0.692166819880083  0.0760809135750017  0.661423662422622  1.0000
  S   S101      1.0  0.6928442933118515  0.07184968425850057  0.6361610534159029  1.0000
  Fe  Fe52      1.0  0.7391167618130507  0.0698756206158728  0.6869652668389741  1.0000
  S   S102      1.0  0.7949643616488603  0.061701953380061514  0.6932609961850845  1.0000
  S   S103      1.0  0.6422469353051511  0.08899581792973045  0.6774456395614176  1.0000
  S   S104      1.0  0.6926618617070743  0.08121543574959789  0.7052158032473155  1.0000
  Fe  Fe53      1.0  0.8411214213364887  0.3083163213115506  0.5684369859154478  1.0000
  S   S105      1.0  0.8567137545883818  0.2883704607479395  0.5456853965169647  1.0000
  S   S106      1.0  0.8851034409512213  0.34807325695236113  0.5767631674143842  1.0000
  Fe  Fe54      1.0  0.7589090953171973  0.2579581762654442  0.577685833339079  1.0000
  S   S107      1.0  0.7671984632707258  0.2327582227578338  0.5560900956969239  1.0000
  S   S108      1.0  0.7028837731115491  0.24061669351530254  0.5964495573023543  1.0000
  Fe  Fe55      1.0  0.8253770071582516  0.2291239984924497  0.5610933005684509  1.0000
  S   S109      1.0  0.8481524743646855  0.17525245033762565  0.5617913564590469  1.0000
  Fe  Fe56      1.0  0.7973088425511138  0.2941624465757193  0.5427533037500156  1.0000
  S   S110      1.0  0.7827385395217414  0.32256143227942147  0.5200253251877534  1.0000
  S   S111      1.0  0.8142539484820976  0.2486036441440212  0.5840524823937404  1.0000
  S   S112      1.0  0.7844647294238538  0.3198961359390609  0.5641850326198357  1.0000
  Fe  Fe57      1.0  0.551982667471251  0.9393074481052556  0.26725094499497476  1.0000
  S   S113      1.0  0.5524001007950423  0.914528138309439  0.2927448463440676  1.0000
  S   S114      1.0  0.5925055155570275  0.9322350372949632  0.24571424977812453  1.0000
  Fe  Fe58      1.0  0.4858455876732538  0.9778617161331098  0.2764437157320501  1.0000
  S   S115      1.0  0.4803456334157158  0.9564557538101955  0.3027866074050806  1.0000
  S   S116      1.0  0.452240495457248  0.021091199239351294  0.26787372979081714  1.0000
  Fe  Fe59      1.0  0.5456000974397711  0.9729607628541141  0.29670463211546766  1.0000
  S   S117      1.0  0.5762625133643138  0.002706705148091649  0.31286254955417164  1.0000
  Fe  Fe60      1.0  0.4873865092852285  0.9003233868995257  0.29649891025793773  1.0000
  S   S118      1.0  0.4514546692622811  0.8423251873921364  0.3115184532503231  1.0000
  S   S119      1.0  0.550657930764651  0.999058766240823  0.2707959816409552  1.0000
  S   S120      1.0  0.48754806137462714  0.9200682440648829  0.2704666871113778  1.0000
  Fe  Fe61      1.0  0.28554544950075367  0.6683167297257185  0.27560654772258336  1.0000
  S   S121      1.0  0.24700846195554615  0.7104515942803984  0.2745072092811258  1.0000
  S   S122      1.0  0.3116324943556372  0.652834542988926  0.25285004967902625  1.0000
  Fe  Fe62      1.0  0.27958175728782564  0.6601814521321514  0.31112756550841225  1.0000
  S   S123      1.0  0.2404814019412922  0.7012696722846831  0.313242815621228  1.0000
  S   S124      1.0  0.29636185345582  0.631667771234359  0.3328818119990459  1.0000
  Fe  Fe63      1.0  0.2103557667942586  0.6701698593665271  0.2974434579862067  1.0000
  S   S125      1.0  0.14494136088329257  0.6560218781123486  0.3028869840045897  1.0000
  Fe  Fe64      1.0  0.2807972393665572  0.7374674594804104  0.2903351938650062  1.0000
  S   S126      1.0  0.3007716821157074  0.8023049223942429  0.28600555824053053  1.0000
  S   S127      1.0  0.24626984454084555  0.6254712949790283  0.29740950591755505  1.0000
  S   S128      1.0  0.3228755349025314  0.6989536502881719  0.2894057259382604  1.0000
  Fe  Fe65      1.0  0.5921589934282018  0.6702599200496879  0.28462010668394766  1.0000
  S   S129      1.0  0.579932672715726  0.6614946587166305  0.26124278638359777  1.0000
  S   S130      1.0  0.6506427273854071  0.6653007279014596  0.2885573227750105  1.0000
  Fe  Fe66      1.0  0.512727478857025  0.6840252651094788  0.2963721004436791  1.0000
  S   S131      1.0  0.4932347580837297  0.6766864462214867  0.27394684474186554  1.0000
  S   S132      1.0  0.4776163750880725  0.7002517703374773  0.31694580342154827  1.0000
  Fe  Fe67      1.0  0.5217501820347427  0.6263271111437845  0.276044860258003  1.0000
  S   S133      1.0  0.4970289711376456  0.5681397734832557  0.27191258200927704  1.0000
  Fe  Fe68      1.0  0.5531379228982067  0.7126177524230988  0.26156627595026055  1.0000
  S   S134      1.0  0.5654354205508846  0.7585238845740895  0.2389430262461925  1.0000
  S   S135      1.0  0.5361410864053464  0.6303956969991161  0.2995934174737861  1.0000
  S   S136      1.0  0.5704685411136471  0.72466865458954  0.28372956331724236  1.0000
  Fe  Fe69      1.0  0.9506172796950747  0.43739678908292023  0.2845972392643703  1.0000
  S   S137      1.0  0.9013312930502136  0.4325184064615205  0.30532916943225064  1.0000
  S   S138      1.0  0.9423696335188376  0.42239303673646605  0.2615646283718334  1.0000
  Fe  Fe70      1.0  0.011708738370794336  0.4689651630678192  0.3012543612143903  1.0000
  S   S139      1.0  0.9682811097530294  0.46735197535637707  0.32366819599700414  1.0000
  S   S140      1.0  0.07650519657427801  0.4857786870134847  0.297126113182545  1.0000
  Fe  Fe71      1.0  0.9391321286080972  0.4091434255076883  0.32051971656434497  1.0000
  S   S141      1.0  0.9136057318094866  0.35309813702355564  0.3391168971585435  1.0000
  Fe  Fe72      1.0  0.9344749445988144  0.49090865792289357  0.30643900942419633  1.0000
  S   S142      1.0  0.9007133339676594  0.5365990116617876  0.30843807834970455  1.0000
  S   S143      1.0  0.9855776933379501  0.4086018493107182  0.29955432780549657  1.0000
  S   S144      1.0  0.9807486497599551  0.49803771799856106  0.284279794675372  1.0000
  Fe  Fe73      1.0  0.6545763370147966  0.5352987230415349  0.3613409388873851  1.0000
  S   S145      1.0  0.7086685457718248  0.5301388544847282  0.344993743379067  1.0000
  S   S146      1.0  0.6344343378084701  0.590623012195267  0.3611566510114484  1.0000
  Fe  Fe74      1.0  0.6290100515543059  0.4490332154421473  0.3763589969633988  1.0000
  S   S147      1.0  0.6806007369097177  0.43616554836117205  0.36158493251049395  1.0000
  S   S148      1.0  0.5811496662544063  0.4019497589717881  0.3932919106422039  1.0000
  Fe  Fe75      1.0  0.7142660752386701  0.4893263824958195  0.36677279977818666  1.0000
  S   S149      1.0  0.7706137502249084  0.4827183789070933  0.3727207550480328  1.0000
  Fe  Fe76      1.0  0.6701646679988861  0.4777703829389332  0.3412339773786404  1.0000
  S   S150      1.0  0.6763172850807196  0.46228183602329737  0.31737386950262253  1.0000
  S   S151      1.0  0.6635242637695061  0.4986908255875656  0.3836380222511289  1.0000
  S   S152      1.0  0.6153325736497289  0.4862428706988458  0.3555079292325029  1.0000
  Fe  Fe77      1.0  0.6969849150493795  0.21113285591072226  0.2958277003770383  1.0000
  S   S153      1.0  0.6788307628881121  0.26763994177226963  0.29418382471693855  1.0000
  S   S154      1.0  0.6765695330070314  0.17367189968581853  0.2796825128575654  1.0000
  Fe  Fe78      1.0  0.7562515083636737  0.23398091214761127  0.3150204957311065  1.0000
  S   S155      1.0  0.7446276790883306  0.29302554805137604  0.31447790014322835  1.0000
  S   S156      1.0  0.8042519131054859  0.2164321021820501  0.32543228029132454  1.0000
  Fe  Fe79      1.0  0.6822089203120626  0.26060366896716797  0.31987053640933827  1.0000
  S   S157      1.0  0.641368273105567  0.2794473681598302  0.33784426094177283  1.0000
  Fe  Fe80      1.0  0.7423516877929428  0.29504697488033954  0.2888887097362993  1.0000
  S   S158      1.0  0.7659911712518228  0.34612507276771703  0.2678160432169369  1.0000
  S   S159      1.0  0.6937616122832289  0.20071332149288082  0.3224189405824092  1.0000
  S   S160      1.0  0.7607791735650917  0.23929146765533818  0.28873072949833595  1.0000
  Fe  Fe81      1.0  0.692628965128912  0.26087852397989153  0.4261429205888569  1.0000
  S   S161      1.0  0.7364918634885363  0.27846983337532477  0.4026103274377081  1.0000
  S   S162      1.0  0.6291507247441345  0.25354595012661474  0.4272716095985724  1.0000
  Fe  Fe82      1.0  0.7512487491351406  0.24719662929619968  0.4460482158139155  1.0000
  S   S163      1.0  0.8006501308453453  0.2642796991042058  0.42433596488360753  1.0000
  S   S164      1.0  0.7636459788821822  0.21970762796684964  0.46939856198602176  1.0000
  Fe  Fe83      1.0  0.7729476526767188  0.31225074403130165  0.4158602589528575  1.0000
  S   S165      1.0  0.8109996634653833  0.3708581872636808  0.4030684024056292  1.0000
  Fe  Fe84      1.0  0.7603648670776514  0.22895691161563664  0.4130497237325213  1.0000
  S   S166      1.0  0.7844690853861269  0.18689168071866027  0.4005764158585983  1.0000
  S   S167      1.0  0.7267757514659646  0.2991921039888116  0.4387216520415312  1.0000
  S   S168      1.0  0.7128427051196092  0.2077671786886833  0.4353802974669203  1.0000
  Fe  Fe85      1.0  0.170133314598761  0.6057017988133245  0.2056398913054347  1.0000
  S   S169      1.0  0.11892284839662821  0.6324608249236728  0.20669522960060022  1.0000
  S   S170      1.0  0.17244623176426566  0.5667036164312547  0.2285776663404871  1.0000
  Fe  Fe86      1.0  0.20519986175818913  0.6475553422561283  0.1709152064785106  1.0000
  S   S171      1.0  0.15716017901593526  0.6787131939617097  0.16903935689877478  1.0000
  S   S172      1.0  0.2604815959333911  0.6589021959150962  0.15214202185354947  1.0000
  Fe  Fe87      1.0  0.16222857224965462  0.6879350737650617  0.19339064711756135  1.0000
  S   S173      1.0  0.1649696178562742  0.7411184829616856  0.20347979213718062  1.0000
  Fe  Fe88      1.0  0.11837792175034619  0.6200791895296804  0.18251545113063591  1.0000
  S   S174      1.0  0.059222613643581314  0.5944305475746507  0.1788800252583468  1.0000
  S   S175      1.0  0.21349454273999702  0.6620516653345843  0.19405560357162346  1.0000
  S   S176      1.0  0.1662931808759512  0.588151613985753  0.18262899807435493  1.0000
  Fe  Fe89      1.0  0.3608353543597798  0.9394637006434023  0.2103037994267386  1.0000
  S   S177      1.0  0.3700777873368887  0.9599303892344627  0.18368803254510807  1.0000
  S   S178      1.0  0.33447127183998204  0.9751969788457561  0.22570015371653787  1.0000
  Fe  Fe90      1.0  0.4023448393612034  0.8747759753964587  0.20769991518764222  1.0000
  S   S179      1.0  0.41634376622460434  0.8905724181542097  0.1808842057316345  1.0000
  S   S180      1.0  0.4192743236394407  0.824245470026487  0.22150267095526785  1.0000
  Fe  Fe91      1.0  0.4305164719766061  0.9524142746410024  0.18327168101186717  1.0000
  S   S181      1.0  0.48284517397347165  0.9981283156883849  0.1680514412892575  1.0000
  Fe  Fe92      1.0  0.354544377148238  0.8961224824291991  0.1841765758657678  1.0000
  S   S182      1.0  0.3206043932217338  0.8682270240889172  0.1685948823813064  1.0000
  S   S183      1.0  0.42233317427269385  0.9357428873499426  0.20987450372630748  1.0000
  S   S184      1.0  0.33940545011349627  0.8761899301649463  0.21100638300406355  1.0000
  Fe  Fe93      1.0  0.5155245502873561  0.6204685608656639  0.18487302266547273  1.0000
  S   S185      1.0  0.550460205071395  0.6683755924858618  0.1639117917103638  1.0000
  S   S186      1.0  0.5420248088617761  0.5763600923856735  0.19784088776674016  1.0000
  Fe  Fe94      1.0  0.4398420034257736  0.6437093065121726  0.18262957507725341  1.0000
  S   S187      1.0  0.46773520479109665  0.6937114808379525  0.16142482068718902  1.0000
  S   S188      1.0  0.3771599004839621  0.6256979214263215  0.19528643737810059  1.0000
  Fe  Fe95      1.0  0.5005591660279353  0.6520016591092376  0.15256477372254526  1.0000
  S   S189      1.0  0.5057356545320422  0.6399564412925518  0.12811798056326482  1.0000
  Fe  Fe96      1.0  0.5144236334421316  0.705251136028943  0.1748403747727685  1.0000
  S   S190      1.0  0.541331056186873  0.7661498571884762  0.1757943284928557  1.0000
  S   S191      1.0  0.468572940293246  0.6008061006653665  0.17270886723896142  1.0000
  S   S192      1.0  0.4834437086063266  0.6584038853967296  0.19690502464855797  1.0000
  Fe  Fe97      1.0  0.980378918730159  0.41364021213128943  0.1550339765826151  1.0000
  S   S193      1.0  0.9228248295042925  0.3945994213214088  0.173059978706115  1.0000
  S   S194      1.0  0.03769667599653359  0.4299570432777671  0.16157867268061948  1.0000
  Fe  Fe98      1.0  0.9435404441985261  0.4143168248406429  0.1264005559330089  1.0000
  S   S195      1.0  0.8833824053410667  0.394297612348805  0.14196196919870713  1.0000
  S   S196      1.0  0.946395214531477  0.43266788733157296  0.10013297489669522  1.0000
  Fe  Fe99      1.0  0.9043193894887361  0.43747336718993435  0.15558789614732177  1.0000
  S   S197      1.0  0.8679729604988885  0.47968974836780653  0.1606267850242666  1.0000
  Fe  Fe100     1.0  0.9077963919367328  0.35338171137898783  0.15755766244379124  1.0000
  S   S198      1.0  0.8723421925343722  0.2918065447000631  0.16632980788251508  1.0000
  S   S199      1.0  0.9631635280473958  0.4603575458836008  0.13904743597697714  1.0000
  S   S200      1.0  0.9667879756176134  0.3690990659615173  0.14063041825441247  1.0000
  Fe  Fe101     1.0  0.7588842186491102  0.5414928557723602  0.1013345528961994  1.0000
  S   S201      1.0  0.7304235200807627  0.570438721627777  0.08322661284317429  1.0000
  S   S202      1.0  0.8227170992487743  0.5424005850249488  0.09597434836509858  1.0000
  Fe  Fe102     1.0  0.6822382894088671  0.5046809823344044  0.1257622242022758  1.0000
  S   S203      1.0  0.6466246981013499  0.5293618426448016  0.10986509891718531  1.0000
  S   S204      1.0  0.6572599976039989  0.46818773021135796  0.15078350123722561  1.0000
  Fe  Fe103     1.0  0.6861263181960386  0.5132340958884011  0.09033457511385826  1.0000
  S   S205      1.0  0.6645227571856976  0.47994276267847324  0.07321195000441891  1.0000
  Fe  Fe104     1.0  0.6937347450262333  0.5841794333225625  0.10425397687365094  1.0000
  S   S206      1.0  0.683139427721749  0.6432198207619412  0.10532812530042356  1.0000
  S   S207      1.0  0.7174180760320605  0.4830759604100657  0.10690157540127553  1.0000
  S   S208      1.0  0.7264120007044037  0.5605518880821085  0.12180012944187729  1.0000
  Fe  Fe105     1.0  0.6588631125444422  0.2540943942588384  0.18024005236320176  1.0000
  S   S209      1.0  0.6676047076133478  0.27605675105807714  0.15377350144314247  1.0000
  S   S210      1.0  0.6962749188414664  0.29023785457244655  0.19258065726029802  1.0000
  Fe  Fe106     1.0  0.5942795836472371  0.1844686577500919  0.18159573475639607  1.0000
  S   S211      1.0  0.597663912681905  0.2003871754791061  0.15512379218097824  1.0000
  S   S212      1.0  0.5506968907377152  0.13366429717792938  0.19909898888251296  1.0000
  Fe  Fe107     1.0  0.6622240191696259  0.2136473559138503  0.15278278932396994  1.0000
  S   S213      1.0  0.7073870459202314  0.20159223035825963  0.1341603048624237  1.0000
  Fe  Fe108     1.0  0.6026165460386645  0.2611238445008973  0.15858757750374516  1.0000
  S   S214      1.0  0.5739359039582234  0.3027101479738148  0.14544775210774277  1.0000
  S   S215      1.0  0.6587097829300722  0.19232766616456373  0.1790330292294301  1.0000
  S   S216      1.0  0.5938603101031028  0.24455493845616244  0.1853024752208833  1.0000
  Fe  Fe109     1.0  0.818658106775952  0.31777347647047244  0.020233616867149973  1.0000
  S   S217      1.0  0.8019656131826309  0.27215095760216446  0.04337743808488959  1.0000
  S   S218      1.0  0.831767665138303  0.2968017598914734  0.9974669668533064  1.0000
  Fe  Fe110     1.0  0.8091729711963458  0.3825929527283282  0.037043078436655885  1.0000
  S   S219      1.0  0.7906614090845875  0.3428534530618662  0.06158651454153767  1.0000
  S   S220      1.0  0.8161743501712942  0.44676428928183315  0.03481465010369512  1.0000
  Fe  Fe111     1.0  0.8393050800731023  0.31604629607445134  0.05266024897026252  1.0000
  S   S221      1.0  0.8795242551994051  0.29901215435761547  0.06820451299452346  1.0000
  Fe  Fe112     1.0  0.7550688688980711  0.3026937684822624  0.05033423008236093  1.0000
  S   S222      1.0  0.6945317521837988  0.27007197203475236  0.0637614197226086  1.0000
  S   S223      1.0  0.8608531451974035  0.35895568905835157  0.02880595286123233  1.0000
  S   S224      1.0  0.7684306937844313  0.34518807270731944  0.026507829383974654  1.0000
  C   C1        1.0  0.7026392166660033  0.2179358198674844  0.11453240780353334  1.0000
  C   C2        1.0  0.6664524746157522  0.2208419271624591  0.11137450695396395  1.0000
  C   C3        1.0  0.6635758933087037  0.23458196103477572  0.09555665837836444  1.0000
  C   C4        1.0  0.6970876328952433  0.24701038230650482  0.0830307854687137  1.0000
  C   C5        1.0  0.7331813268704377  0.24410071017704751  0.08624236688394138  1.0000
  C   C6        1.0  0.7358210917231057  0.2288835743254136  0.10189721085223032  1.0000
  H   H1        1.0  0.640623886846304  0.21188517245923882  0.1210579841347166  1.0000
  H   H2        1.0  0.6355625368896195  0.23645126944896688  0.09308536460614422  1.0000
  H   H3        1.0  0.7592016101594015  0.25347965666223593  0.07667520016748597  1.0000
  H   H4        1.0  0.7637415902432161  0.2261672889261775  0.1042123102242485  1.0000
  C   C7        1.0  0.6293203596023293  0.4230858064720043  0.15035345881758283  1.0000
  C   C8        1.0  0.6262463246813279  0.39036021728790826  0.162505237943283  1.0000
  C   C9        1.0  0.6085426870506278  0.35325405838478774  0.1611801413779924  1.0000
  C   C10       1.0  0.5917681332696638  0.3491331632776873  0.14821439843160075  1.0000
  C   C11       1.0  0.5922226118471374  0.3821947564494966  0.1367018141406345  1.0000
  C   C12       1.0  0.6120831985761336  0.41911827735587115  0.13748654770275137  1.0000
  H   H5        1.0  0.6390624594761255  0.3934313529548719  0.17259833875393904  1.0000
  H   H6        1.0  0.6079475533773596  0.32786453704671253  0.17019930667501765  1.0000
  H   H7        1.0  0.5785054294019698  0.37905605314260254  0.1268550344161603  1.0000
  H   H8        1.0  0.6140405684444104  0.4444019240726333  0.1281357453353059  1.0000
  C   C13       1.0  0.7051188751592402  0.4725267118027736  0.06056892779305435  1.0000
  C   C14       1.0  0.7034629290689597  0.4371706077234104  0.05588945506288262  1.0000
  C   C15       1.0  0.7375284811866489  0.42904476858844603  0.04785977960169754  1.0000
  C   C16       1.0  0.7727614514629175  0.4571737986531227  0.04374053579856022  1.0000
  C   C17       1.0  0.7737027899943438  0.4935351898010493  0.04736176032276624  1.0000
  C   C18       1.0  0.7401775149558457  0.5008195142790254  0.056107989297205  1.0000
  H   H9        1.0  0.6761520280000202  0.4157488589865172  0.05876773834800439  1.0000
  H   H10       1.0  0.7364942445299033  0.40119494361362623  0.04477389673700977  1.0000
  H   H11       1.0  0.800475860925848  0.5158958267136566  0.043716822659515674  1.0000
  H   H12       1.0  0.7413926260363664  0.5286258216217912  0.059178702367175706  1.0000
  C   C19       1.0  0.8581925800157013  0.500784530069924  0.14245095431924418  1.0000
  C   C20       1.0  0.877023335671701  0.49407821581764894  0.12802634692298842  1.0000
  C   C21       1.0  0.8674613925588012  0.5087275821860365  0.11362601468660066  1.0000
  C   C22       1.0  0.8382842115575136  0.5293762688571821  0.11364206795920172  1.0000
  C   C23       1.0  0.8201601697066234  0.5370400245753324  0.1279797385499539  1.0000
  C   C24       1.0  0.8303451506385207  0.5230485160304933  0.14236249359976436  1.0000
  H   H13       1.0  0.8986261056369637  0.477098938155934  0.1278597224846453  1.0000
  H   H14       1.0  0.8816364216702598  0.5025876615729611  0.10262176487124901  1.0000
  H   H15       1.0  0.7983651448307777  0.5538341058611875  0.12800767407421024  1.0000
  H   H16       1.0  0.8158472187765156  0.5285772955873197  0.15346011501953766  1.0000
  C   C25       1.0  0.823776784328165  0.2907528687580006  0.1745627221164397  1.0000
  C   C26       1.0  0.7947044502131301  0.2575031484775733  0.17595538849975875  1.0000
  C   C27       1.0  0.7554606087379238  0.25728674843514954  0.181438189823423  1.0000
  C   C28       1.0  0.745308802857587  0.28971537685217363  0.1861744661857831  1.0000
  C   C29       1.0  0.7745059516233413  0.3223929863326266  0.18542122687844  1.0000
  C   C30       1.0  0.8136855059461379  0.32324303344840266  0.1793149186323914  1.0000
  H   H17       1.0  0.8024549954175554  0.23209718466893056  0.17253127180117786  1.0000
  H   H18       1.0  0.7331730858805211  0.23176936362902661  0.18218734515642998  1.0000
  H   H19       1.0  0.7668144481949648  0.34730237524417396  0.18930906458819108  1.0000
  H   H20       1.0  0.8361157087128207  0.3488492897480673  0.17844415989288404  1.0000
  C   C31       1.0  0.9264396063017268  0.39389110367391383  0.09242542634290407  1.0000
  C   C32       1.0  0.8945961448038233  0.39610307129130096  0.08558676870613821  1.0000
  C   C33       1.0  0.8804931731438507  0.3673857389919919  0.07792259797921448  1.0000
  C   C34       1.0  0.8975996027832756  0.33572506701432  0.07741774685004187  1.0000
  C   C35       1.0  0.9287825833755963  0.3328338628771404  0.08471431427698428  1.0000
  C   C36       1.0  0.9432972697214199  0.36198633397113555  0.09218729467262378  1.0000
  H   H21       1.0  0.8809936734806111  0.42018208731982093  0.0861602955721392  1.0000
  H   H22       1.0  0.8565778908187368  0.36994133840341464  0.0723337942256144  1.0000
  H   H23       1.0  0.9422913015051033  0.30851130396662046  0.08426483279460247  1.0000
  H   H24       1.0  0.9681566169171476  0.36033622638892804  0.09737291057935901  1.0000
  C   C37       1.0  0.6339177657426226  0.6445058584158888  0.10988485232581814  1.0000
  C   C38       1.0  0.6229453599378076  0.6727964498793839  0.11759980030446093  1.0000
  C   C39       1.0  0.583503445449278  0.6723594126672308  0.12263651093980521  1.0000
  C   C40       1.0  0.5549545762798379  0.6439468969952368  0.11977006972093676  1.0000
  C   C41       1.0  0.5659001284702144  0.6165116067233533  0.11150116823553538  1.0000
  C   C42       1.0  0.6054081680183915  0.616609709708199  0.10666550835864015  1.0000
  H   H25       1.0  0.6449749390334872  0.694625157405065  0.11995903006529417  1.0000
  H   H26       1.0  0.5752142635644487  0.6941096964305146  0.12871468131304026  1.0000
  H   H27       1.0  0.5438820589841782  0.5945610660327473  0.1092164914964095  1.0000
  H   H28       1.0  0.6138262671583721  0.5953725244901181  0.10032155846960755  1.0000
  C   C43       1.0  0.5025923371781491  0.03461001184509974  0.17708740932735897  1.0000
  C   C44       1.0  0.48631239515239927  0.03488326039935156  0.19293453749549863  1.0000
  C   C45       1.0  0.50176040375282  0.06494688472938603  0.19974394622781386  1.0000
  C   C46       1.0  0.5334452330919599  0.09508562338282427  0.1906718426707499  1.0000
  C   C47       1.0  0.5502880172120497  0.09440573229327975  0.17495275785177264  1.0000
  C   C48       1.0  0.5348554792132809  0.06424601342041839  0.16817545024245492  1.0000
  H   H29       1.0  0.46151994698827015  0.012375008916529439  0.19994328166351297  1.0000
  H   H30       1.0  0.48865825285872877  0.06520935402794162  0.21194988152234456  1.0000
  H   H31       1.0  0.5752651045810513  0.11706633921372726  0.16798237251195675  1.0000
  H   H32       1.0  0.5478174575891582  0.06412596173443895  0.1559375996807591  1.0000
  C   C49       1.0  0.4548658802279288  0.8090971203387926  0.20925252204654166  1.0000
  C   C50       1.0  0.48006160621345295  0.8351545332156  0.19565876304866606  1.0000
  C   C51       1.0  0.5075025585762873  0.8221899211104802  0.18561070251398193  1.0000
  C   C52       1.0  0.5092004888406555  0.7830052931664467  0.18902972588054384  1.0000
  C   C53       1.0  0.4845542559593693  0.7572721587841328  0.20285191964471  1.0000
  C   C54       1.0  0.45751859158053226  0.7703012705236869  0.21298505963857198  1.0000
  H   H33       1.0  0.47843542505682507  0.8652499192948702  0.1928564194976687  1.0000
  H   H34       1.0  0.5265962063543776  0.842198456891854  0.1749388966946118  1.0000
  H   H35       1.0  0.48656505217156826  0.7274466180071033  0.20590029377143193  1.0000
  H   H36       1.0  0.43812176515354007  0.7500586791625373  0.22350163441703488  1.0000
  C   C55       1.0  0.05389474223249806  0.5483146798723354  0.1744468602143279  1.0000
  C   C56       1.0  0.01646448458271177  0.5246211792140869  0.17710780927737158  1.0000
  C   C57       1.0  0.011305551050730056  0.4884589120725489  0.1729524883446817  1.0000
  C   C58       1.0  0.04371522553035123  0.4753215472067262  0.16660779330329056  1.0000
  C   C59       1.0  0.08118479241824776  0.49857562600869515  0.16430929607477157  1.0000
  C   C60       1.0  0.08624986244545757  0.5352726740779414  0.16801483467605505  1.0000
  H   H37       1.0  0.9914406719488595  0.5341363376147662  0.182479782349605  1.0000
  H   H38       1.0  0.9823163413140423  0.47036281281242337  0.17494339275825863  1.0000
  H   H39       1.0  0.10627727045038116  0.4885898110411005  0.1592713825474852  1.0000
  H   H40       1.0  0.11514082847526597  0.553732002575601  0.1655012568665843  1.0000
  C   C61       1.0  0.2943572662298094  0.6480979214032156  0.16315023390709005  1.0000
  C   C62       1.0  0.2827695985484743  0.6171696967480181  0.17674047011131827  1.0000
  C   C63       1.0  0.3088303496908961  0.609853171829591  0.18631381929714388  1.0000
  C   C64       1.0  0.3464436369750834  0.6334714590395915  0.18234719777940564  1.0000
  C   C65       1.0  0.35837406549969497  0.6640347169408863  0.16857679339321133  1.0000
  C   C66       1.0  0.33224289613407515  0.6714609998823389  0.1589934568484042  1.0000
  H   H41       1.0  0.25350670980603257  0.5990110692000745  0.17998825684533415  1.0000
  H   H42       1.0  0.2996532266742652  0.5860482932995829  0.1969072315869576  1.0000
  H   H43       1.0  0.3871325770428015  0.682815072793153  0.16559104260227733  1.0000
  H   H44       1.0  0.3408574233397945  0.6960271412982691  0.1487073183334982  1.0000
  C   C67       1.0  0.2087165406832279  0.7759227048373395  0.19405329213038605  1.0000
  C   C68       1.0  0.22137243669357623  0.8065393537002707  0.2010868668760572  1.0000
  C   C69       1.0  0.2561004171266122  0.8347303204660412  0.1934851306274673  1.0000
  C   C70       1.0  0.2777427671919939  0.8327581708893288  0.17867144456764328  1.0000
  C   C71       1.0  0.26522301254845676  0.801944143481513  0.17174129267722493  1.0000
  C   C72       1.0  0.23105099645450067  0.7732978930031812  0.17950980019641535  1.0000
  H   H45       1.0  0.2041021630015814  0.8086858391876488  0.21231240104230817  1.0000
  H   H46       1.0  0.2654160143623785  0.8586822883176416  0.19879457917789045  1.0000
  H   H47       1.0  0.28187107619156243  0.80031304946482  0.16028371556058163  1.0000
  H   H48       1.0  0.221443605430301  0.7498112558851274  0.1739816907603752  1.0000
  C   C73       1.0  0.797705090373649  0.20933410924800167  0.3463191381254748  1.0000
  C   C74       1.0  0.7687699558411465  0.22227142245261217  0.35559409457313007  1.0000
  C   C75       1.0  0.76511158828524  0.2166551368398873  0.37228841027399484  1.0000
  C   C76       1.0  0.7895965445882281  0.19705334695995658  0.37967749414040597  1.0000
  C   C77       1.0  0.8181266590025578  0.18396938697990095  0.3703537341570691  1.0000
  C   C78       1.0  0.8225423462654379  0.19059833100153747  0.35371810104402474  1.0000
  H   H49       1.0  0.749216270063542  0.23628566457908  0.3499053107785457  1.0000
  H   H50       1.0  0.7427880816612403  0.22639683334729702  0.3794915389544717  1.0000
  H   H51       1.0  0.8369613986620481  0.16868568629418815  0.3760025728482006  1.0000
  H   H52       1.0  0.8447545524396668  0.1803678792385765  0.34661953078207325  1.0000
  C   C79       1.0  0.6619394984648924  0.41133457320645667  0.3219184321916225  1.0000
  C   C80       1.0  0.6782175754540737  0.39062905728774605  0.31147825810520974  1.0000
  C   C81       1.0  0.670785651037359  0.3498998221404959  0.3161439615095891  1.0000
  C   C82       1.0  0.6467575657917006  0.3297879487945395  0.33117240721445956  1.0000
  C   C83       1.0  0.6290744813070172  0.35043924288511114  0.3412922918788235  1.0000
  C   C84       1.0  0.6366832008879401  0.3911875813681121  0.33666186698890455  1.0000
  H   H53       1.0  0.6972544798112861  0.40598641240093136  0.29996348621110724  1.0000
  H   H54       1.0  0.6840621278477296  0.33424644715767127  0.30812388325221546  1.0000
  H   H55       1.0  0.6101024394857022  0.33513780052088843  0.3528427565596438  1.0000
  H   H56       1.0  0.6231253135058048  0.4069758069654477  0.3446157950955885  1.0000
  C   C85       1.0  0.5957313634945528  0.3613342645764111  0.40252269853743317  1.0000
  C   C86       1.0  0.5671376364685149  0.3285964062849895  0.41170172724704884  1.0000
  C   C87       1.0  0.5777485247759576  0.2957435624212305  0.41934074232691837  1.0000
  C   C88       1.0  0.6170169583093833  0.29564000632362913  0.4179762172237618  1.0000
  C   C89       1.0  0.6458634715801965  0.3283376216417368  0.40879190458782905  1.0000
  C   C90       1.0  0.6351694429124022  0.3612005599855399  0.40097928032822894  1.0000
  H   H57       1.0  0.5366635369550126  0.3287100578962579  0.4129236053012732  1.0000
  H   H58       1.0  0.5554214839074012  0.2705193048025215  0.4264379659511521  1.0000
  H   H59       1.0  0.6762474941363465  0.3282184816963908  0.4076895453246749  1.0000
  H   H60       1.0  0.6572520299754133  0.386569908360493  0.39396548540572224  1.0000
  C   C91       1.0  0.8658302591139528  0.5227274214264603  0.3266415115764481  1.0000
  C   C92       1.0  0.838732307397233  0.5451164572989179  0.3297501070022058  1.0000
  C   C93       1.0  0.8095506731262434  0.5331326390622877  0.34399736352404  1.0000
  C   C94       1.0  0.8077876419954118  0.49903169915252904  0.3552000609217075  1.0000
  C   C95       1.0  0.8351075350353362  0.47693309935248784  0.3521575885201975  1.0000
  C   C96       1.0  0.8639213585229708  0.48850791513502406  0.33781685470913775  1.0000
  H   H61       1.0  0.840292267402371  0.5717184348485488  0.3211553151610108  1.0000
  H   H62       1.0  0.7890868343737378  0.5508548755918308  0.34648686154460917  1.0000
  H   H63       1.0  0.8334507707515789  0.4505034936603091  0.3607828288023834  1.0000
  H   H64       1.0  0.8847384418782906  0.4710741404645581  0.33547546895895636  1.0000
  C   C97       1.0  0.8936084406581677  0.40033322302359703  0.263280473896468  1.0000
  C   C98       1.0  0.8774971314833208  0.40592044987544224  0.24989054874376904  1.0000
  C   C99       1.0  0.8380960178864557  0.3893028324432117  0.25134782692113833  1.0000
  C   C100      1.0  0.8152207656645002  0.36603782534628343  0.2660577635983214  1.0000
  C   C101      1.0  0.8315503690521489  0.3596786487059839  0.279363679223929  1.0000
  C   C102      1.0  0.8705736155195364  0.3774489717506386  0.27802817660302076  1.0000
  H   H65       1.0  0.8952844920972093  0.4236209840242182  0.23845869762491043  1.0000
  H   H66       1.0  0.8254871726779055  0.3942079871794632  0.241035886032848  1.0000
  H   H67       1.0  0.8139478998450145  0.3417471149552781  0.29073542449973816  1.0000
  H   H68       1.0  0.8830033978391064  0.3730679760238667  0.2883333054028308  1.0000
  C   C103      1.0  0.8886471560416117  0.35823372542852944  0.3575693412765796  1.0000
  C   C104      1.0  0.8637302634843869  0.32527436386549097  0.36844641792007027  1.0000
  C   C105      1.0  0.8408444220452621  0.3290048277281173  0.38268273359486027  1.0000
  C   C106      1.0  0.8430834108597954  0.36563538341855295  0.386203380470078  1.0000
  C   C107      1.0  0.8691806454196692  0.3983916615833291  0.37563594713308485  1.0000
  C   C108      1.0  0.8916829943446648  0.39479589874193777  0.3612205644842012  1.0000
  H   H69       1.0  0.8613823844078691  0.29688395628565684  0.36570338175650874  1.0000
  H   H70       1.0  0.8211028574414194  0.3034502810641138  0.39075674391258247  1.0000
  H   H71       1.0  0.871446479727333  0.42669424021778324  0.3784364102215704  1.0000
  H   H72       1.0  0.9111400591468376  0.42032950248578443  0.3529461378431858  1.0000
  C   C109      1.0  0.5109008307654488  0.5704973180503212  0.25139796050673024  1.0000
  C   C110      1.0  0.5194425678798834  0.6063783404210249  0.2403218705416981  1.0000
  C   C111      1.0  0.5289687126823153  0.6080766572160795  0.2238574477765299  1.0000
  C   C112      1.0  0.5308220038984669  0.5741621801810236  0.21843976596567025  1.0000
  C   C113      1.0  0.5230067222269992  0.538369323109032  0.229519502062723  1.0000
  C   C114      1.0  0.5124741589643188  0.5364487710056282  0.2460151872671524  1.0000
  H   H73       1.0  0.5179945350398178  0.6327233802507718  0.2444326905020472  1.0000
  H   H74       1.0  0.5354074873317818  0.6356680932298363  0.21534419526763546  1.0000
  H   H75       1.0  0.5243814343094525  0.512050691310599  0.22535258955601492  1.0000
  H   H76       1.0  0.5058481782874252  0.5086652552690298  0.25458362214887365  1.0000
  C   C115      1.0  0.6491378585808375  0.6511701596435471  0.308999449939166  1.0000
  C   C116      1.0  0.6785267530286034  0.6346583904736328  0.31370464832540695  1.0000
  C   C117      1.0  0.6746379283086917  0.6172362283360833  0.3298578295761724  1.0000
  C   C118      1.0  0.6417656866388564  0.6169667129928298  0.34136838203949477  1.0000
  C   C119      1.0  0.6135529580046423  0.6357937296760036  0.33680968866725847  1.0000
  C   C120      1.0  0.6171482150738336  0.65280664161719  0.3205757401780757  1.0000
  H   H77       1.0  0.7036200827110947  0.6340204825146835  0.3047888495438056  1.0000
  H   H78       1.0  0.6972197847377687  0.6042171071518089  0.33341290926095296  1.0000
  H   H79       1.0  0.5882039898745174  0.6358039129929417  0.3457380258923516  1.0000
  H   H80       1.0  0.5946154266540166  0.666040978778772  0.3169945855640525  1.0000
  C   C121      1.0  0.27496216297100373  0.6249303191854796  0.2461914477495864  1.0000
  C   C122      1.0  0.24157137356121328  0.601067124521659  0.25717177382568135  1.0000
  C   C123      1.0  0.21113236443890426  0.5810941574146383  0.25171534312095123  1.0000
  C   C124      1.0  0.2132930355718643  0.5861913870339486  0.23527216054839206  1.0000
  C   C125      1.0  0.24721317098229822  0.608849715539003  0.22432569347552514  1.0000
  C   C126      1.0  0.27837030817445063  0.6275032172837344  0.22976772599521347  1.0000
  H   H81       1.0  0.23924986428540418  0.597652923230148  0.2698626974894947  1.0000
  H   H82       1.0  0.18535566604152254  0.5626887057780624  0.2601892689060469  1.0000
  H   H83       1.0  0.2495076049091543  0.6116679362683414  0.21165471788571644  1.0000
  H   H84       1.0  0.3046438417702946  0.644389857060864  0.22119312974913682  1.0000
  C   C127      1.0  0.12497996596302308  0.6099794920456364  0.3001646953173999  1.0000
  C   C128      1.0  0.14913724839420772  0.5890321028191627  0.2929218625521356  1.0000
  C   C129      1.0  0.1339456071340095  0.5507994203360586  0.2921349403543834  1.0000
  C   C130      1.0  0.0941707838038095  0.533998574906714  0.29789577192462136  1.0000
  C   C131      1.0  0.0694435569196068  0.5555673210327987  0.3044243394864596  1.0000
  C   C132      1.0  0.08495844581923895  0.5935224865463734  0.3056892777740721  1.0000
  H   H85       1.0  0.17954172628266996  0.6021194977430637  0.28792967969683997  1.0000
  H   H86       1.0  0.15297835988739172  0.5340793864982009  0.28706617672736356  1.0000
  H   H87       1.0  0.0385661989822621  0.5427026203836505  0.30882794397499314  1.0000
  H   H88       1.0  0.06600667340896083  0.6098159868671484  0.3111526202354193  1.0000
  C   C133      1.0  0.3469830740404182  0.6479979562329915  0.3290399304486041  1.0000
  C   C134      1.0  0.3706417988458429  0.6429147745763274  0.31526530645723094  1.0000
  C   C135      1.0  0.4110644802625791  0.6577074317186802  0.31176620234820535  1.0000
  C   C136      1.0  0.42761243693648676  0.678848620025669  0.3217089037766147  1.0000
  C   C137      1.0  0.40388810717303847  0.684067218943667  0.3354208882864885  1.0000
  C   C138      1.0  0.3636436887406603  0.6682156240755632  0.3392013463090235  1.0000
  H   H89       1.0  0.3577404402647922  0.6272481567109667  0.30740741290635376  1.0000
  H   H90       1.0  0.4292438808453127  0.6529989737331979  0.301340770235663  1.0000
  H   H91       1.0  0.41657319607976634  0.7004893958505709  0.3431149232989832  1.0000
  H   H92       1.0  0.34533650484999034  0.6725959958402047  0.34974017414031866  1.0000
  C   C139      1.0  0.4178656926939226  0.006539540263914573  0.2570738799954739  1.0000
  C   C140      1.0  0.3967552624331754  0.03294308656028409  0.25142858926013706  1.0000
  C   C141      1.0  0.37014713788715126  0.02274333560313831  0.24222831343090223  1.0000
  C   C142      1.0  0.36501997319741375  0.986306758996207  0.23846002910907452  1.0000
  C   C143      1.0  0.38528035302295394  0.9594420837825196  0.24447173006049172  1.0000
  C   C144      1.0  0.41169472404479746  0.9695523637712498  0.2537851539746027  1.0000
  H   H93       1.0  0.4012003633060153  0.06144744008832417  0.2540916582795642  1.0000
  H   H94       1.0  0.3542883958839347  0.04345074421089386  0.23773548336849304  1.0000
  H   H95       1.0  0.3805519356260886  0.9307522628528525  0.24203498561328105  1.0000
  H   H96       1.0  0.4273014043489638  0.9488013184847494  0.2583524988888516  1.0000
  C   C145      1.0  0.6051562374152122  0.04985737325370115  0.30366795778237476  1.0000
  C   C146      1.0  0.614260112538427  0.07623006861466365  0.31311447425861144  1.0000
  C   C147      1.0  0.6364709249119016  0.11432894260897655  0.30588622105173513  1.0000
  C   C148      1.0  0.6497175733938771  0.12601596570888277  0.28919078729398523  1.0000
  C   C149      1.0  0.6411505088519673  0.09949213098195493  0.2797723513777949  1.0000
  C   C150      1.0  0.6191391272076372  0.06142935882919071  0.28700604467233404  1.0000
  H   H97       1.0  0.6037617344702216  0.0672755592508911  0.3260230256017041  1.0000
  H   H98       1.0  0.6430016451470641  0.13464437450071184  0.3132217888498619  1.0000
  H   H99       1.0  0.6519981420155146  0.10821070945300992  0.266884047526658  1.0000
  H   H100      1.0  0.6138020667501966  0.040804058776384364  0.2797240810898376  1.0000
  C   C151      1.0  0.405273166978639  0.8333797721033079  0.30734098847727426  1.0000
  C   C152      1.0  0.38101830089867433  0.7958020398085685  0.3125420627874622  1.0000
  C   C153      1.0  0.3475591946083587  0.7865838592379188  0.30665484906245954  1.0000
  C   C154      1.0  0.3384450417107452  0.8149755813696137  0.2955580257652225  1.0000
  C   C155      1.0  0.3617346271399829  0.8530100711012361  0.29097108323108345  1.0000
  C   C156      1.0  0.39485688550184433  0.8622897835647069  0.29699887067605624  1.0000
  H   H101      1.0  0.3889643267850287  0.7733533284853633  0.32057277903418496  1.0000
  H   H102      1.0  0.32949663428309917  0.7572162618639047  0.3103880871985033  1.0000
  H   H103      1.0  0.3553091891993093  0.8750380497827135  0.28225404492899137  1.0000
  H   H104      1.0  0.4130850151885368  0.8915331798783943  0.2931742724968068  1.0000
  C   C157      1.0  0.5884196546115928  0.8833111255169853  0.244921790873474  1.0000
  C   C158      1.0  0.6056496131360491  0.8746035723825155  0.23068975904928307  1.0000
  C   C159      1.0  0.5983654356523375  0.8361777192143933  0.22895813068748935  1.0000
  C   C160      1.0  0.575763624401486  0.8059914074080824  0.2417911938880439  1.0000
  C   C161      1.0  0.560579311270727  0.8142661648488436  0.2564300414758888  1.0000
  C   C162      1.0  0.5660418869458774  0.8531070562481502  0.25786511793786404  1.0000
  H   H105      1.0  0.6240927240989095  0.8976128924440666  0.22086390479826679  1.0000
  H   H106      1.0  0.6105333704542518  0.8298449547611304  0.21769641043074103  1.0000
  H   H107      1.0  0.5437673261999963  0.7909144725109272  0.2664753590362723  1.0000
  H   H108      1.0  0.5529601636886661  0.8597506770213241  0.26892034523751335  1.0000
  C   C163      1.0  0.7797085657411468  0.2946486184614676  0.5056017904006594  1.0000
  C   C164      1.0  0.786857770350002  0.2573395373622988  0.5082074417545209  1.0000
  C   C165      1.0  0.781861203272174  0.23458308117409554  0.4970010106501171  1.0000
  C   C166      1.0  0.7701894465311666  0.24920140870157542  0.4830659152178793  1.0000
  C   C167      1.0  0.7635181252378545  0.28670190155597924  0.4803604933990266  1.0000
  C   C168      1.0  0.7681233150351467  0.3093157423519031  0.4916532138664535  1.0000
  H   H109      1.0  0.7960796258761543  0.2459267498416231  0.5188830445981043  1.0000
  H   H110      1.0  0.7871620588306185  0.2056239925689187  0.49912656776641523  1.0000
  H   H111      1.0  0.754606229963149  0.2981824121414698  0.4696325297776315  1.0000
  H   H112      1.0  0.7626737589007857  0.33821248128040915  0.48958567167431166  1.0000
  C   C169      1.0  0.6930439214304075  0.11752191450706555  0.624714573449823  1.0000
  C   C170      1.0  0.6716729665975438  0.14156926742420042  0.631404497554539  1.0000
  C   C171      1.0  0.6730526314978157  0.1786851935303347  0.6223622320815891  1.0000
  C   C172      1.0  0.6974544627527458  0.19255696853109563  0.6069592813373047  1.0000
  C   C173      1.0  0.718911564357268  0.16853234811940812  0.6003064290315211  1.0000
  C   C174      1.0  0.7159175411232092  0.13067876842375867  0.6090218216300113  1.0000
  H   H113      1.0  0.6536488904536734  0.13141466605207042  0.643461811569819  1.0000
  H   H114      1.0  0.6558988585665613  0.19688460429807986  0.6274666994990631  1.0000
  H   H115      1.0  0.7376021007778334  0.1788933312810468  0.5883773185958051  1.0000
  H   H116      1.0  0.7319697122589475  0.11197636320340251  0.6036760496291433  1.0000
  C   C175      1.0  0.8721416491503253  0.03798002704964863  0.6502501691085897  1.0000
  C   C176      1.0  0.8889363725489589  0.056996643666263204  0.6607413781283117  1.0000
  C   C177      1.0  0.8651481324951193  0.06325961307899358  0.674250306485367  1.0000
  C   C178      1.0  0.8246304769137275  0.05162488298280159  0.6769647434248761  1.0000
  C   C179      1.0  0.8079387356213608  0.03272838388089741  0.6664353464838803  1.0000
  C   C180      1.0  0.8316922689859336  0.02527357942073977  0.6532537540613844  1.0000
  H   H117      1.0  0.9202474312280844  0.06670473623193635  0.6584806547828135  1.0000
  H   H118      1.0  0.8780931170443665  0.07776799552370618  0.6823907391036186  1.0000
  H   H119      1.0  0.776779209518  0.023502238071691803  0.6684555315725664  1.0000
  H   H120      1.0  0.8187224343526678  0.010517975717313931  0.6451469952064263  1.0000
  C   C181      1.0  0.9619224574675651  0.19564014399663998  0.5780068689467619  1.0000
  C   C182      1.0  0.9457691588314545  0.22706006473371554  0.57321410764043  1.0000
  C   C183      1.0  0.9109713370012733  0.22089316755994973  0.5680761736331702  1.0000
  C   C184      1.0  0.8929403986253951  0.18350499962378836  0.5671981265429951  1.0000
  C   C185      1.0  0.9096566873470696  0.15222098547284668  0.5715764505936926  1.0000
  C   C186      1.0  0.9437741346437221  0.15816172324570954  0.5772457678284963  1.0000
  H   H121      1.0  0.9596530655399311  0.25608543326053435  0.5738077322073801  1.0000
  H   H122      1.0  0.8981802524605216  0.2451826148798863  0.5648308250724015  1.0000
  H   H123      1.0  0.8957556259479288  0.1232746490310399  0.5709066278303595  1.0000
  H   H124      1.0  0.9559984418400878  0.13372767052611353  0.5809178294811508  1.0000
  C   C187      1.0  0.010028830854482376  0.28080684153249186  0.6491574093525544  1.0000
  C   C188      1.0  0.013062353730311218  0.26359665487873596  0.6645307633432451  1.0000
  C   C189      1.0  0.01838414475172513  0.2254150574717952  0.6678508980906367  1.0000
  C   C190      1.0  0.018700363451217387  0.20390899228230971  0.6560476694295658  1.0000
  C   C191      1.0  0.015586373316958073  0.221258459131779  0.6407331723172262  1.0000
  C   C192      1.0  0.011862406889680304  0.2597944081111131  0.6372225050409343  1.0000
  H   H125      1.0  0.012377279836026479  0.28013320335346586  0.6736869032559408  1.0000
  H   H126      1.0  0.022177803312464217  0.21255937171074274  0.6795205175381559  1.0000
  H   H127      1.0  0.016262113995848267  0.20521133232884298  0.6314743337047547  1.0000
  H   H128      1.0  0.009741779315535118  0.27298665869561506  0.6253059422896857  1.0000
  C   C193      1.0  0.808405663831624  0.22907666567089693  0.7008736868192283  1.0000
  C   C194      1.0  0.7952237840545427  0.1903040516233508  0.7003464429741444  1.0000
  C   C195      1.0  0.7606281598218394  0.1787289561220019  0.6956299009895288  1.0000
  C   C196      1.0  0.7382480874559331  0.20545452147314056  0.691908195562396  1.0000
  C   C197      1.0  0.7511349586426214  0.24424882249158197  0.6926258304334172  1.0000
  C   C198      1.0  0.7866299929267779  0.2562367576978769  0.6967745357110227  1.0000
  H   H129      1.0  0.8118536218229356  0.16911898608705075  0.7033164286665023  1.0000
  H   H130      1.0  0.7513976626777055  0.14891345734143568  0.6949922528101946  1.0000
  H   H131      1.0  0.7337948394081906  0.2650431687295436  0.6899344793188181  1.0000
  H   H132      1.0  0.7966010782117224  0.2862705770663222  0.6971929504337083  1.0000
  C   C199      1.0  0.8484271773010023  0.3645437309014798  0.6273764715610919  1.0000
  C   C200      1.0  0.8703469408751388  0.3373388430101703  0.6244562094011826  1.0000
  C   C201      1.0  0.879629768015343  0.330621794495977  0.6090350615519897  1.0000
  C   C202      1.0  0.8675650213112589  0.3515441010330906  0.5964269858587646  1.0000
  C   C203      1.0  0.8449260865108541  0.37810628540538516  0.5993844028989219  1.0000
  C   C204      1.0  0.8350660354472469  0.38432768772247156  0.6148882382745272  1.0000
  H   H133      1.0  0.8802737771820917  0.32150877700817176  0.634018437091476  1.0000
  H   H134      1.0  0.896637994572965  0.3096323512410349  0.6068014633085386  1.0000
  H   H135      1.0  0.8358834941972016  0.39462200055853375  0.5896136560255345  1.0000
  H   H136      1.0  0.8180165818896491  0.40533654906114297  0.6170910279770776  1.0000
  C   C205      1.0  0.09971793035053589  0.030918904146541255  0.6166305874908379  1.0000
  C   C206      1.0  0.0658595323790297  0.007058757559569806  0.6272780709427308  1.0000
  C   C207      1.0  0.06834654676296796  0.9771456884010759  0.6396251477387163  1.0000
  C   C208      1.0  0.10471376746428933  0.9710679002608387  0.641303100233593  1.0000
  C   C209      1.0  0.13843098922859892  0.9934044844099736  0.6300657636508049  1.0000
  C   C210      1.0  0.13595281435108728  0.023428347564258753  0.6177200877941893  1.0000
  H   H137      1.0  0.03769689302390645  0.011692930510801926  0.626044805304446  1.0000
  H   H138      1.0  0.042172750506480526  0.9594315974515387  0.6481415952769222  1.0000
  H   H139      1.0  0.16646039270631416  0.9879198634180958  0.630986787863443  1.0000
  H   H140      1.0  0.16218489320423463  0.04159781420099069  0.6093903597656237  1.0000
  C   C211      1.0  0.07062076236187094  0.4879480970364569  0.690082956262889  1.0000
  C   C212      1.0  0.042264164444330926  0.5067530592403465  0.6958994336599015  1.0000
  C   C213      1.0  0.0026363187353540016  0.4897539970623717  0.6979532197732677  1.0000
  C   C214      1.0  0.9910633750156124  0.45416261078963654  0.6938784376840624  1.0000
  C   C215      1.0  0.01933999865942829  0.43567041491853437  0.6876828178194945  1.0000
  C   C216      1.0  0.05904689453308492  0.4524666186680457  0.6858680232306489  1.0000
  H   H141      1.0  0.050752368077647186  0.5346555562459684  0.6986312989773278  1.0000
  H   H142      1.0  0.9809896562241531  0.5045326266729077  0.7025168910495969  1.0000
  H   H143      1.0  0.010654405713045293  0.40823532976251087  0.6844578986175002  1.0000
  H   H144      1.0  0.08078508877201898  0.4378066820954614  0.6812690397601822  1.0000
  C   C217      1.0  0.15045863846985208  0.7375378492097906  0.6882908740720659  1.0000
  C   C218      1.0  0.18439513508385447  0.7356830620763212  0.6936241494756561  1.0000
  C   C219      1.0  0.20964190223807339  0.7697663031856307  0.6942976370067824  1.0000
  C   C220      1.0  0.20116603242888112  0.8059013225852502  0.6895319929932724  1.0000
  C   C221      1.0  0.1681180951772092  0.8081191778711811  0.6834886720728679  1.0000
  C   C222      1.0  0.14287361852045513  0.7738546743200133  0.6827630503614008  1.0000
  H   H145      1.0  0.19114538964177724  0.707974180047693  0.6973248490996126  1.0000
  H   H146      1.0  0.23576294987228655  0.7680021101767555  0.6984566701625738  1.0000
  H   H147      1.0  0.16151473594387988  0.8360707847699911  0.6797085697255659  1.0000
  H   H148      1.0  0.11688875607737484  0.7754007867864275  0.6783738721152452  1.0000
  C   C223      1.0  0.5603510153249447  0.8929725319025671  0.6906838317867244  1.0000
  C   C224      1.0  0.5938182839526868  0.9217658881762967  0.6825067267301733  1.0000
  C   C225      1.0  0.6068108789745889  0.9526783477621992  0.6893084410914954  1.0000
  C   C226      1.0  0.5874782589539087  0.954155348085461  0.7045848558672544  1.0000
  C   C227      1.0  0.5550470711565569  0.9242724471454478  0.7131122582888325  1.0000
  C   C228      1.0  0.541286557815277  0.893898509397691  0.706105467098775  1.0000
  H   H149      1.0  0.6085359348334196  0.9211488218279382  0.6705663426545325  1.0000
  H   H150      1.0  0.6310127781581839  0.9758264753621151  0.682432172679128  1.0000
  H   H151      1.0  0.539890365639928  0.9249797417032702  0.7249535575950665  1.0000
  H   H152      1.0  0.5155518799945971  0.8713831215952399  0.7125436420462181  1.0000
  C   C229      1.0  0.40072277427680414  0.980273558691261  0.6517001463132853  1.0000
  C   C230      1.0  0.3785066695249554  0.008207698473036817  0.6509139622951705  1.0000
  C   C231      1.0  0.3502279608113274  0.0065626905503874955  0.6418446311070513  1.0000
  C   C232      1.0  0.3451078568988718  0.9778422747641283  0.633118499174293  1.0000
  C   C233      1.0  0.3691153598657668  0.9514794131470087  0.6330931604136705  1.0000
  C   C234      1.0  0.39635106349957755  0.9521447217054584  0.642662284339787  1.0000
  H   H153      1.0  0.38168835999230105  0.029847591049233513  0.6579613448764036  1.0000
  H   H154      1.0  0.33142428241404215  0.026725284655488846  0.6420335650534771  1.0000
  H   H155      1.0  0.3655363745421216  0.9294554430137927  0.626290486164262  1.0000
  H   H156      1.0  0.4136526378436363  0.9306551760415802  0.6431698146207309  1.0000
  C   C235      1.0  0.3298642381443317  0.7484231929065269  0.6797804575322824  1.0000
  C   C236      1.0  0.2921582266601645  0.7324281648647453  0.6785670300960159  1.0000
  C   C237      1.0  0.27290090869613753  0.694254326221167  0.6869118203902075  1.0000
  C   C238      1.0  0.29143177594554776  0.6716775182904742  0.6963752208134902  1.0000
  C   C239      1.0  0.3289561303753127  0.687695205235967  0.6978122625688353  1.0000
  C   C240      1.0  0.34803507866689776  0.7262593004768353  0.6896529901858025  1.0000
  H   H157      1.0  0.27762286489765475  0.7494751387127526  0.6712024709112245  1.0000
  H   H158      1.0  0.24400618285008538  0.6820409437063001  0.6857408149212497  1.0000
  H   H159      1.0  0.3433733544659341  0.670219877128315  0.7051479152379806  1.0000
  H   H160      1.0  0.3773027286005043  0.7382602941126395  0.6905184046510179  1.0000
  C   C241      1.0  0.7756652888317509  0.34802840942363067  0.9582077903117142  1.0000
  C   C242      1.0  0.7886283713270398  0.3138621093711895  0.9577801584567089  1.0000
  C   C243      1.0  0.8069546043719642  0.2988980674377385  0.9696235941927113  1.0000
  C   C244      1.0  0.8121000110542089  0.31789256678584504  0.9819664370758361  1.0000
  C   C245      1.0  0.7998361172286924  0.3524143776968675  0.9822036490665794  1.0000
  C   C246      1.0  0.7815987446880641  0.3673940965750467  0.9703636682417597  1.0000
  H   H161      1.0  0.7838224350164554  0.298562651740131  0.9485549923971432  1.0000
  H   H162      1.0  0.8164093605952318  0.2721418068484554  0.9694285947532543  1.0000
  H   H163      1.0  0.8044046044527217  0.3676476472395315  0.9914944716313291  1.0000
  H   H164      1.0  0.771807954561996  0.39395792167933685  0.9706846690104087  1.0000
  C   C247      1.0  0.6211956184333308  0.31896355673422644  0.8460859447186306  1.0000
  C   C248      1.0  0.6590915055506363  0.317866728046269  0.8475318247070782  1.0000
  C   C249      1.0  0.6752842041067245  0.33622168027524985  0.8583925494554261  1.0000
  C   C250      1.0  0.6537912613873954  0.3562533621201789  0.8676108064379306  1.0000
  C   C251      1.0  0.6165669982205576  0.35854959298469086  0.8657002599431217  1.0000
  C   C252      1.0  0.6001568481702877  0.3396061056998845  0.8550967664291411  1.0000
  H   H165      1.0  0.6758542186307005  0.3029220118986476  0.8403334609700034  1.0000
  H   H166      1.0  0.7045162622784291  0.33540800810794147  0.8594061647896829  1.0000
  H   H167      1.0  0.6000181006063179  0.3743537135831989  0.8726770634084281  1.0000
  H   H168      1.0  0.5709637123909145  0.3408141400549396  0.8539400007458668  1.0000
  C   C253      1.0  0.8188094302491725  0.17221049801939792  0.8246194562218547  1.0000
  C   C254      1.0  0.7966826895232002  0.1800149572037575  0.813400118717452  1.0000
  C   C255      1.0  0.7561898390785067  0.1729888785866578  0.8183759861397323  1.0000
  C   C256      1.0  0.7373978748022264  0.1574676815962075  0.8345367029092297  1.0000
  C   C257      1.0  0.7595096036914233  0.14935645773594786  0.845816619956194  1.0000
  C   C258      1.0  0.8002999272341339  0.1570319047341755  0.8408759475064186  1.0000
  H   H169      1.0  0.8109043590768008  0.19183345299447874  0.8008442212495364  1.0000
  H   H170      1.0  0.7396179836699945  0.17909765220645912  0.809594718964428  1.0000
  H   H171      1.0  0.7452087781619539  0.1374903511866563  0.8583603904912568  1.0000
  H   H172      1.0  0.8173275736107237  0.151031410114161  0.8496230263617814  1.0000
  C   C259      1.0  0.805238891407831  0.1580933895650853  0.9029925388275786  1.0000
  C   C260      1.0  0.8015205316992104  0.19286251857182413  0.8937708791302647  1.0000
  C   C261      1.0  0.7681559138222892  0.2067786006350897  0.8978645776092894  1.0000
  C   C262      1.0  0.7376938126622936  0.18518525932148602  0.9108259836326936  1.0000
  C   C263      1.0  0.7405830758733034  0.14950166055052033  0.9196450145971424  1.0000
  C   C264      1.0  0.7746543596855884  0.13624820164628204  0.9158816152868777  1.0000
  H   H173      1.0  0.8248474086732375  0.2098325081773036  0.8838259783198208  1.0000
  H   H174      1.0  0.7662367629227891  0.23436226148583647  0.8910122310371261  1.0000
  H   H175      1.0  0.7171453062519285  0.13285613491636195  0.9297321160806397  1.0000
  H   H176      1.0  0.7773896428974989  0.10927425345620749  0.9230427946933152  1.0000
  C   C265      1.0  0.9523076011107298  0.36831209664168596  0.7997199828688437  1.0000
  C   C266      1.0  0.966750683871785  0.38994876485883917  0.8099469031357717  1.0000
  C   C267      1.0  0.9737367896717989  0.37089571909014474  0.8243449134006318  1.0000
  C   C268      1.0  0.965292811936669  0.3301423412418559  0.8287375077544243  1.0000
  C   C269      1.0  0.9509956419465453  0.30860701740160523  0.818421734174082  1.0000
  C   C270      1.0  0.9451761359260491  0.32766297020212076  0.8038085683249502  1.0000
  H   H177      1.0  0.9726772905949586  0.4213791559668639  0.8067760805218039  1.0000
  H   H178      1.0  0.9846961770332372  0.3877070651102019  0.8322832255435354  1.0000
  H   H179      1.0  0.9437772243591416  0.2772471099761199  0.8217461904630712  1.0000
  H   H180      1.0  0.9340891145953846  0.3108119622250333  0.7959106246131257  1.0000
  C   C271      1.0  0.7853333742235605  0.4170455557585229  0.7846746152269034  1.0000
  C   C272      1.0  0.7468294256375582  0.39576170484815393  0.7877052738536181  1.0000
  C   C273      1.0  0.7389314652054303  0.3570494349068354  0.7861779620214547  1.0000
  C   C274      1.0  0.7695297720627792  0.3400498140883303  0.7811237753604554  1.0000
  C   C275      1.0  0.8080198643644562  0.3612929433434379  0.7781130284903821  1.0000
  C   C276      1.0  0.8158941089446091  0.39945474279125814  0.7801978554599391  1.0000
  H   H181      1.0  0.7230690618331668  0.4091321514883415  0.7912603905730398  1.0000
  H   H182      1.0  0.7091039845383266  0.34071198589387774  0.7886300516883784  1.0000
  H   H183      1.0  0.8317818856445965  0.34799375266750865  0.7744766020870113  1.0000
  H   H184      1.0  0.845687270811185  0.41528893108303006  0.7781228391460712  1.0000
  C   C277      1.0  0.8982494485586094  0.4629132536146635  0.8458096417451233  1.0000
  C   C278      1.0  0.8749053972824677  0.4555105069307145  0.8613063818233541  1.0000
  C   C279      1.0  0.859777393890696  0.4169240500753108  0.8702559948688615  1.0000
  C   C280      1.0  0.8681152969644037  0.38602398221557443  0.8636782176377074  1.0000
  C   C281      1.0  0.8936530493155651  0.3937553370263248  0.8486727077586902  1.0000
  C   C282      1.0  0.9084365861524472  0.4321512813361816  0.8396873832237767  1.0000
  H   H185      1.0  0.8673645090615436  0.47936316081804214  0.8661548204486891  1.0000
  H   H186      1.0  0.8415022951057992  0.4112097800910295  0.8821463349728957  1.0000
  H   H187      1.0  0.9012214183820602  0.3699963215169193  0.8438057909693065  1.0000
  H   H188      1.0  0.9273624979136029  0.4379442739651415  0.827896910792704  1.0000
  C   C283      1.0  0.20507079277064613  0.04763122549478194  0.6990892805505129  1.0000
  C   C284      1.0  0.16743142049545945  0.024947078229463404  0.7013967475127023  1.0000
  C   C285      1.0  0.13534096424785952  0.03655412188581164  0.7091090501739977  1.0000
  C   C286      1.0  0.14087842979792417  0.07104451950577828  0.714417890438538  1.0000
  C   C287      1.0  0.17850373176435258  0.09390334494156871  0.7120842164363287  1.0000
  C   C288      1.0  0.21062187704172014  0.08223550228058274  0.7043721693299636  1.0000
  H   H189      1.0  0.16293416469839267  0.9981305171576333  0.6974985277200297  1.0000
  H   H190      1.0  0.10631286225532628  0.01836937328535493  0.7112877155344942  1.0000
  H   H191      1.0  0.1827182569093153  0.1206942811504983  0.7161512099211318  1.0000
  H   H192      1.0  0.23963153054267622  0.10025088700275431  0.702303734181111  1.0000
  C   C289      1.0  0.00544231674929888  0.09789000242546719  0.8424828304266223  1.0000
  C   C290      1.0  0.03812178755523594  0.08307615023256631  0.8381643047415374  1.0000
  C   C291      1.0  0.04084902714599377  0.06346114362296507  0.8257087221652296  1.0000
  C   C292      1.0  0.010200317780223052  0.05736263538503761  0.8180275104508598  1.0000
  C   C293      1.0  0.9768360166895607  0.07073039352241173  0.822828472669705  1.0000
  C   C294      1.0  0.9747843878739697  0.09165916201964941  0.8348336280881338  1.0000
  H   H193      1.0  0.06187500573487723  0.08783250805303067  0.8440872183103316  1.0000
  H   H194      1.0  0.0665267067949702  0.05287499453656719  0.8221086500025591  1.0000
  H   H195      1.0  0.9532135582966013  0.06620740815260118  0.8168144806672601  1.0000
  H   H196      1.0  0.9496104429223935  0.10323054599888537  0.8379803014387736  1.0000
  C   C295      1.0  0.36945820719336947  0.9710555534895198  0.7423814647967978  1.0000
  C   C296      1.0  0.38573802561964005  0.9670710744139203  0.7271333089439811  1.0000
  C   C297      1.0  0.38778550191856376  0.9302631138483312  0.724602801475998  1.0000
  C   C298      1.0  0.374769666120285  0.8974218110179735  0.7374073992245799  1.0000
  C   C299      1.0  0.3593542460757478  0.9014504140560414  0.7528119425932547  1.0000
  C   C300      1.0  0.35656611837149205  0.9383734686843835  0.7553041573662833  1.0000
  H   H197      1.0  0.3958262742373324  0.9923513357958528  0.7171258532296951  1.0000
  H   H198      1.0  0.39857912051954353  0.9273859252094673  0.7126158785176684  1.0000
  H   H199      1.0  0.3488622593708826  0.8759963997015402  0.7627321552113994  1.0000
  H   H200      1.0  0.343112737118123  0.9411758186868173  0.7670634361598399  1.0000
  C   C301      1.0  0.49951694990282547  0.07512272244779483  0.794269702800043  1.0000
  C   C302      1.0  0.5274146746157773  0.08330229270976064  0.8031676850243645  1.0000
  C   C303      1.0  0.5551637113258348  0.1191025618438315  0.798448337467166  1.0000
  C   C304      1.0  0.5555597346813561  0.14624133435338904  0.7845906273181796  1.0000
  C   C305      1.0  0.5286884285784161  0.13734046173117131  0.7753623590541955  1.0000
  C   C306      1.0  0.5004262392959196  0.10204133497118462  0.7802864812583588  1.0000
  H   H201      1.0  0.5269356508702604  0.06236662544659399  0.8139494504655644  1.0000
  H   H202      1.0  0.5761039408320605  0.12569644301575456  0.8055427043934996  1.0000
  H   H203      1.0  0.5292964593401557  0.15814426028825745  0.7645257742096965  1.0000
  H   H204      1.0  0.4796810823984608  0.0955928542494664  0.7731591828967673  1.0000
  C   C307      1.0  0.29896318275136036  0.15518722471856372  0.7830582994505669  1.0000
  C   C308      1.0  0.26752990160075274  0.12424325276052572  0.7843465244510722  1.0000
  C   C309      1.0  0.23252776626948368  0.1315086881066212  0.7811797935561601  1.0000
  C   C310      1.0  0.22827095984197082  0.16978677231547  0.7771911196571302  1.0000
  C   C311      1.0  0.259432249076746  0.2008414292586076  0.7762071746171677  1.0000
  C   C312      1.0  0.2948132628283629  0.1935512595279305  0.7790456912847149  1.0000
  H   H205      1.0  0.26985445525009655  0.09461450604428867  0.7879354500123031  1.0000
  H   H206      1.0  0.20880047850438468  0.10728868443059625  0.7820070334820618  1.0000
  H   H207      1.0  0.2563337997357184  0.23051242028471708  0.7731200767043069  1.0000
  H   H208      1.0  0.31897556920227654  0.21766540555843594  0.7780704355326531  1.0000
  C   C313      1.0  0.18518407460462236  0.6509689086909166  0.7733351276917172  1.0000
  C   C314      1.0  0.14515479513624324  0.6425009243912331  0.7800860676159322  1.0000
  C   C315      1.0  0.11985087483771878  0.6125584514654044  0.7763743730194255  1.0000
  C   C316      1.0  0.13447824453310525  0.5920325515478917  0.7655019584784124  1.0000
  C   C317      1.0  0.17459793560730463  0.5998034919361845  0.7590546689848043  1.0000
  C   C318      1.0  0.20004998094329499  0.6288717537988844  0.7631854039258582  1.0000
  H   H209      1.0  0.13359841887098786  0.6596069597130885  0.7878713574274255  1.0000
  H   H210      1.0  0.08883676323085274  0.6069081941261274  0.7811080695171583  1.0000
  H   H211      1.0  0.18595877388373055  0.5840775720486839  0.7505542546961287  1.0000
  H   H212      1.0  0.2309803736384098  0.6352692682373273  0.7579702094559775  1.0000
  C   C319      1.0  0.018672774937426584  0.6772200722145759  0.7822599611777189  1.0000
  C   C320      1.0  0.04668329610532751  0.6662167225702361  0.7717405163537342  1.0000
  C   C321      1.0  0.03512192793197177  0.6387349698388848  0.7630161582619731  1.0000
  C   C322      1.0  0.9955711617438553  0.6215801112263303  0.765125807208372  1.0000
  C   C323      1.0  0.9676553195273379  0.6325466585395969  0.775680193730909  1.0000
  C   C324      1.0  0.9791626444311226  0.6605653499229817  0.7841009698965844  1.0000
  H   H213      1.0  0.07723167459621248  0.6780175804799572  0.7706050902417377  1.0000
  H   H214      1.0  0.05686101441566811  0.6297460440035717  0.7550750891312719  1.0000
  H   H215      1.0  0.9370723456879757  0.619691636228895  0.7772440069461602  1.0000
  H   H216      1.0  0.9573645641860112  0.6689442684583083  0.7922382663539292  1.0000
  C   C325      1.0  0.1934435111314236  0.8471399295391381  0.8255475118666484  1.0000
  C   C326      1.0  0.2191191722395569  0.8698119897152418  0.8112219528022913  1.0000
  C   C327      1.0  0.24506307870672747  0.9046018004302201  0.8113127936078269  1.0000
  C   C328      1.0  0.24486150392236786  0.9166069551051896  0.8257065219701171  1.0000
  C   C329      1.0  0.21934561654417353  0.8936705167146253  0.8399172484719271  1.0000
  C   C330      1.0  0.1938489151844654  0.859136324345471  0.8398428248079062  1.0000
  H   H217      1.0  0.2188459601787373  0.8607093030236213  0.8001253975553653  1.0000
  H   H218      1.0  0.2647659872940782  0.922315215986684  0.8002938625510947  1.0000
  H   H219      1.0  0.21919055336204674  0.9027630393782844  0.8510611406043238  1.0000
  H   H220      1.0  0.17417598602488507  0.8417226344574654  0.8509353426874536  1.0000
  C   C331      1.0  0.173744320532067  0.897750527718165  0.7548403547766728  1.0000
  C   C332      1.0  0.16021398661759292  0.9302995815873065  0.7488569860073326  1.0000
  C   C333      1.0  0.16609082931591349  0.9631740723671124  0.7554090086891974  1.0000
  C   C334      1.0  0.18637303462953597  0.9636271295281201  0.7675989489516755  1.0000
  C   C335      1.0  0.2013486510418926  0.9318325559493419  0.7729823298777646  1.0000
  C   C336      1.0  0.19417267518844594  0.8986042932108399  0.7669250888994822  1.0000
  H   H221      1.0  0.14445209178753832  0.9297736226699691  0.7394635530250525  1.0000
  H   H222      1.0  0.15478421413422908  0.9879502981043569  0.7510839786796426  1.0000
  H   H223      1.0  0.21777797879050376  0.932481364977876  0.7821368857539333  1.0000
  H   H224      1.0  0.2053255926874138  0.8739785845381022  0.7713958756862213  1.0000
  N   N1        1.0  0.7618094381716167  0.36168988428526677  0.35310168264778685  1.0000
  C   C337      1.0  0.730686942275062  0.36588143163531456  0.3444681753637758  1.0000
  C   C338      1.0  0.7632768796332011  0.3202438067533186  0.3571322498477936  1.0000
  C   C339      1.0  0.7536601708885138  0.3756078098303791  0.36800023726550674  1.0000
  C   C340      1.0  0.7996743211343448  0.38507593296397086  0.34279892983739996  1.0000
  H   H225      1.0  0.7290280543647819  0.39685499869687074  0.34101873819936734  1.0000
  H   H226      1.0  0.701593473523453  0.34908510915387087  0.35199942872894846  1.0000
  H   H227      1.0  0.7354412844017627  0.35510094410277826  0.333290447305424  1.0000
  H   H228      1.0  0.7861571800590693  0.3159356383827614  0.36381325622494476  1.0000
  H   H229      1.0  0.7351103237147182  0.3016122316897295  0.3647620166667238  1.0000
  H   H230      1.0  0.7700794001766279  0.309020082178448  0.3461407490446489  1.0000
  H   H231      1.0  0.7764006296241267  0.3726455766829231  0.3748839081984928  1.0000
  H   H232      1.0  0.725087718134993  0.35906267833464933  0.3760334482905208  1.0000
  H   H233      1.0  0.7532006701523004  0.40701718575733864  0.36535246176706515  1.0000
  H   H234      1.0  0.8236331004691292  0.38297342874399626  0.3490852046362923  1.0000
  H   H235      1.0  0.7995383519418447  0.41646535066900014  0.3395017197391326  1.0000
  H   H236      1.0  0.8072388122446665  0.3750827822685053  0.3315460149476368  1.0000
  N   N2        1.0  0.7304362140423216  0.26886572335810655  0.2387881279606746  1.0000
  C   C341      1.0  0.7586943147465876  0.25565799574698955  0.24753085077329612  1.0000
  C   C342      1.0  0.7498460815775695  0.3058971407121586  0.2268925227246344  1.0000
  C   C343      1.0  0.6975834470932888  0.2750804196922515  0.2502256200486676  1.0000
  C   C344      1.0  0.7156449879069393  0.23885399994472684  0.23053662004750006  1.0000
  H   H237      1.0  0.7836629881469734  0.2503393478839232  0.2392634642862129  1.0000
  H   H238      1.0  0.7448841559052627  0.22796479256887972  0.25675595749790825  1.0000
  H   H239      1.0  0.7707030733733988  0.2778057871188183  0.25377791088305557  1.0000
  H   H240      1.0  0.7295515467426356  0.3162898137368247  0.21982152342566907  1.0000
  H   H241      1.0  0.760670329368909  0.3292676517487399  0.2328426178649704  1.0000
  H   H242      1.0  0.7752956131980625  0.3024815231786477  0.2182637738439227  1.0000
  H   H243      1.0  0.6758563253392867  0.2852907272412724  0.24398260298898578  1.0000
  H   H244      1.0  0.7077359364377616  0.2973519954578272  0.25675367012966077  1.0000
  H   H245      1.0  0.6821976020200364  0.2477462554969647  0.2593932337145713  1.0000
  H   H246      1.0  0.6932980784778078  0.24728509219186096  0.22423328093812533  1.0000
  H   H247      1.0  0.7019670163634598  0.21025453571062505  0.23921833462166292  1.0000
  H   H248      1.0  0.7394256035692708  0.23449015297026593  0.22134602480879415  1.0000
  N   N3        1.0  0.03330955371909159  0.472342569702475  0.7459571599960757  1.0000
  C   C345      1.0  0.007292956165277619  0.4406722677945084  0.7417665850595494  1.0000
  C   C346      1.0  0.01926657758780349  0.5084615917287826  0.7427734834328459  1.0000
  C   C347      1.0  0.07326179726191352  0.4790128254180384  0.7361825259578504  1.0000
  C   C348      1.0  0.033519686053079256  0.46129633933047737  0.7631332905243887  1.0000
  H   H249      1.0  0.0073028573520115625  0.44766462529303025  0.7287784590711152  1.0000
  H   H250      1.0  0.9767495928884617  0.435475865271322  0.7487337191367733  1.0000
  H   H251      1.0  0.016362332104953015  0.41269074655694205  0.7444381111091374  1.0000
  H   H252      1.0  0.9894892700689497  0.5047638015073931  0.7501110860340272  1.0000
  H   H253      1.0  0.038089905342082384  0.5331121494638951  0.7457927121132858  1.0000
  H   H254      1.0  0.018591483348590614  0.5177487763596992  0.7299491201032514  1.0000
  H   H255      1.0  0.09357636557736021  0.5020271174251555  0.7394440527161596  1.0000
  H   H256      1.0  0.07465159486438126  0.48860315444816205  0.7231622971918448  1.0000
  H   H257      1.0  0.0844783394961277  0.4521434032198224  0.7379712425131092  1.0000
  H   H258      1.0  0.05291874274804507  0.4845657836252609  0.7666917772310835  1.0000
  H   H259      1.0  0.043499918033448756  0.4339248896308471  0.7660627207082329  1.0000
  H   H260      1.0  0.00402410609889113  0.45643894138200136  0.770864891566976  1.0000
  N   N4        1.0  0.25792483041109204  0.8893259868623578  0.2644952559623306  1.0000
  C   C349      1.0  0.2806033349558969  0.904232289250462  0.2754407767553838  1.0000
  C   C350      1.0  0.28338381700126836  0.8758197676681666  0.25241276053782097  1.0000
  C   C351      1.0  0.242501980267659  0.92086173517225  0.2563239403424592  1.0000
  C   C352      1.0  0.22519841458960735  0.8564204278449978  0.2738006375740236  1.0000
  H   H261      1.0  0.2911946188378282  0.8807490349558339  0.2823271690959167  1.0000
  H   H262      1.0  0.26280224613799924  0.9160524346995514  0.28434637738966567  1.0000
  H   H263      1.0  0.30659127450963275  0.9279468106771176  0.26872155268232756  1.0000
  H   H264      1.0  0.30869915923987223  0.8996663497942441  0.24536414759707614  1.0000
  H   H265      1.0  0.2953450675367342  0.8518605279726973  0.25813042839704015  1.0000
  H   H266      1.0  0.267506503709493  0.8648933070121646  0.24377938812048416  1.0000
  H   H267      1.0  0.2220208560096697  0.9307393632062374  0.2650270244226753  1.0000
  H   H268      1.0  0.22683617774251982  0.9113241340760062  0.2473764481144329  1.0000
  H   H269      1.0  0.26634195584850767  0.9467865730853395  0.24978113916071473  1.0000
  H   H270      1.0  0.20565449832086485  0.8653633464260084  0.2831860372319768  1.0000
  H   H271      1.0  0.2358545413838885  0.831988871801191  0.2800394714166024  1.0000
  H   H272      1.0  0.2074241549439816  0.844587817876837  0.2659067089063834  1.0000
  N   N5        1.0  0.8519738966424594  0.4468567095365243  0.7303394837156596  1.0000
  C   C353      1.0  0.8201799380684716  0.452863703406831  0.7423772773973558  1.0000
  C   C354      1.0  0.8360933136565636  0.4336504446177173  0.7173297355778377  1.0000
  C   C355      1.0  0.8699492623393976  0.4169011065738241  0.7380614895264248  1.0000
  C   C356      1.0  0.881631578459689  0.484000786767196  0.7235633157538216  1.0000
  H   H273      1.0  0.831344789387171  0.4639221723052173  0.7521303402504617  1.0000
  H   H274      1.0  0.797733180035264  0.42523592154438855  0.7481289296956036  1.0000
  H   H275      1.0  0.8052937119758395  0.47457686946689465  0.736926249455992  1.0000
  H   H276      1.0  0.8225424936989496  0.4555937382672774  0.7111241984042163  1.0000
  H   H277      1.0  0.8593853954342036  0.42876546601388166  0.7080574950734528  1.0000
  H   H278      1.0  0.8136187490057919  0.4057047547090249  0.7220097001477741  1.0000
  H   H279      1.0  0.8820148250226834  0.42556714205075596  0.7480250984700754  1.0000
  H   H280      1.0  0.8942766997649988  0.4118785247995404  0.7293322881964522  1.0000
  H   H281      1.0  0.848426789840437  0.3884264149205838  0.7431751542790992  1.0000
  H   H282      1.0  0.9059625683824573  0.4806849630103228  0.7143537774014057  1.0000
  H   H283      1.0  0.894521334618862  0.49473788099626487  0.7329892417292183  1.0000
  H   H284      1.0  0.8690273981357741  0.5072532108254052  0.7176820732556317  1.0000
  N   N6        1.0  0.48108750658328336  0.9818501762554472  0.754856669764144  1.0000
  C   C357      1.0  0.45886319972869566  0.011543114782885056  0.7510205173394751  1.0000
  C   C358      1.0  0.5186784728661921  0.9919807842877206  0.7428952943547416  1.0000
  C   C359      1.0  0.4584731462718974  0.9432155340621388  0.7544731778883514  1.0000
  C   C360      1.0  0.4882159250095045  0.9807213312471966  0.7710627479469002  1.0000
  H   H285      1.0  0.4301281245423645  0.004422313582546966  0.7596856876303488  1.0000
  H   H286      1.0  0.45305288684368555  0.013511702949960736  0.7388376636045779  1.0000
  H   H287      1.0  0.4746515494707473  0.040975504266140605  0.7514948085401021  1.0000
  H   H288      1.0  0.5364763034702985  0.9704365105406153  0.7454739642159381  1.0000
  H   H289      1.0  0.5143856713759335  0.9926748358192653  0.7305385962571092  1.0000
  H   H290      1.0  0.5363782580896541  0.021148445145447337  0.7427209216161146  1.0000
  H   H291      1.0  0.430147000090477  0.9344495739279995  0.7635254626154051  1.0000
  H   H292      1.0  0.47452254444356995  0.9200956305312444  0.7570891636451657  1.0000
  H   H293      1.0  0.45185159059773045  0.9431650571477399  0.7425103448022394  1.0000
  H   H294      1.0  0.5048161810753368  0.9586039846336982  0.7744715928165316  1.0000
  H   H295      1.0  0.4603914579742228  0.9733654613469939  0.7803822466544795  1.0000
  H   H296      1.0  0.5050111665621484  0.009473560285666593  0.7718603383695392  1.0000
  N   N7        1.0  0.615030948670418  0.7195077329756456  0.20103520179800458  1.0000
  C   C361      1.0  0.6284497194633756  0.7428067512071761  0.1842786961075511  1.0000
  C   C362      1.0  0.5735052289710332  0.7183018940651686  0.2069725364217014  1.0000
  C   C363      1.0  0.637958016710764  0.7376199198155554  0.21122131090894777  1.0000
  C   C364      1.0  0.6199327433342868  0.6793597540798678  0.20169329923788112  1.0000
  H   H297      1.0  0.6598153318397093  0.7448968952168549  0.17935904473220554  1.0000
  H   H298      1.0  0.6242194717796377  0.7730072620813604  0.18335936336476277  1.0000
  H   H299      1.0  0.611658837453425  0.7298994818342613  0.17628189843627956  1.0000
  H   H300      1.0  0.5622049524258528  0.701175769864252  0.21961182108908786  1.0000
  H   H301      1.0  0.5686733950774191  0.7481512676269932  0.20658024917266343  1.0000
  H   H302      1.0  0.5554639171286176  0.7051698271065663  0.199502559917487  1.0000
  H   H303      1.0  0.6344923831552066  0.7678178965199937  0.21109165853596656  1.0000
  H   H304      1.0  0.6695255946369678  0.7391341372371406  0.20715108543552496  1.0000
  H   H305      1.0  0.6281610669170593  0.7209720515931477  0.2239953577606819  1.0000
  H   H306      1.0  0.6102002533839728  0.6611212481598382  0.21421404388028142  1.0000
  H   H307      1.0  0.6509078147079983  0.6791430471468826  0.19715271612970314  1.0000
  H   H308      1.0  0.602504156570586  0.6646462717779086  0.1943105160148243  1.0000
  N   N8        1.0  0.1658836280536986  0.5644598265782368  0.3430245386345737  1.0000
  C   C365      1.0  0.15399840513404506  0.5429731571408816  0.3312007923655137  1.0000
  C   C366      1.0  0.2058140098962351  0.5618820972217092  0.34419704417390734  1.0000
  C   C367      1.0  0.13870068806200742  0.547283307388813  0.3588654882926686  1.0000
  C   C368      1.0  0.16502447086351202  0.605812408659573  0.3378079349077073  1.0000
  H   H309      1.0  0.1244793688979553  0.5453459007199709  0.3295753973284871  1.0000
  H   H310      1.0  0.15327524175199425  0.5114184309614366  0.334908488653356  1.0000
  H   H311      1.0  0.17452416100868384  0.5545882316372327  0.31921937579644144  1.0000
  H   H312      1.0  0.22696635465109294  0.5741139280369383  0.3323732716615282  1.0000
  H   H313      1.0  0.21633622656669482  0.5787268712211766  0.35265782512510324  1.0000
  H   H314      1.0  0.2076225727631118  0.5312008264379511  0.3483595435721341  1.0000
  H   H315      1.0  0.13857435642853666  0.5160518067898822  0.3631947596583166  1.0000
  H   H316      1.0  0.10832475247143836  0.5488178733601896  0.3583275746805783  1.0000
  H   H317      1.0  0.14683694703205386  0.5629216742077936  0.36804817195366835  1.0000
  H   H318      1.0  0.17416833645144325  0.6231391551886527  0.3463309250904508  1.0000
  H   H319      1.0  0.13541918017666577  0.6090439879544042  0.33666172371529063  1.0000
  H   H320      1.0  0.18505311050744777  0.6196032467265853  0.3258871365276592  1.0000
  N   N9        1.0  0.7638354944334762  0.40143122788661645  0.1448447626616701  1.0000
  C   C369      1.0  0.7242193241616857  0.4076427156794289  0.14567195123415658  1.0000
  C   C370      1.0  0.7788260824760669  0.41526249608291343  0.15792004680287242  1.0000
  C   C371      1.0  0.7894315695131278  0.4236185059485821  0.12917569856259062  1.0000
  C   C372      1.0  0.7625432416205622  0.359425676536194  0.14671934852699886  1.0000
  H   H321      1.0  0.7114788458849656  0.3977973377734585  0.1360692417729651  1.0000
  H   H322      1.0  0.7242667000278176  0.4390678188252308  0.14439382861578146  1.0000
  H   H323      1.0  0.704249629108909  0.39149465724187427  0.15740110010959155  1.0000
  H   H324      1.0  0.8084879112830341  0.41061803321370327  0.1579868779341641  1.0000
  H   H325      1.0  0.7807006930653794  0.44698893142311075  0.15673750021133626  1.0000
  H   H326      1.0  0.7595424824076409  0.3998901206426163  0.16987464246865416  1.0000
  H   H327      1.0  0.7899017800895871  0.4552163042075293  0.12729556293675692  1.0000
  H   H328      1.0  0.7794344631329024  0.41358412174612186  0.11902534115048681  1.0000
  H   H329      1.0  0.8199843479602237  0.4208629302933225  0.12831132718771504  1.0000
  H   H330      1.0  0.7525053158835465  0.34825491305329925  0.1367960630790554  1.0000
  H   H331      1.0  0.7420062207610044  0.34188855314021904  0.15813070846946803  1.0000
  H   H332      1.0  0.7916925721725171  0.35342399184886614  0.14695976319954301  1.0000
  N   N10       1.0  0.4346604374261185  0.1642584584811051  0.8091317139098527  1.0000
  C   C373      1.0  0.4561147659947158  0.20105993329640515  0.8117325890626824  1.0000
  C   C374      1.0  0.43949548077304756  0.16713928235686848  0.7917165121238794  1.0000
  C   C375      1.0  0.39284974474298107  0.1572395885868194  0.8168004456332434  1.0000
  C   C376      1.0  0.45029219933101333  0.13161841006790476  0.8162283904248642  1.0000
  H   H333      1.0  0.4532478758085751  0.19992943753698933  0.8247493867814436  1.0000
  H   H334      1.0  0.4451170949568093  0.2263248237875224  0.8064806900545306  1.0000
  H   H335      1.0  0.48782137049196994  0.20716834789923522  0.8060602219792612  1.0000
  H   H336      1.0  0.425001439782989  0.13930959257957687  0.7893013668491831  1.0000
  H   H337      1.0  0.4263213985693172  0.19024177487476956  0.7860768324234584  1.0000
  H   H338      1.0  0.47075195345614157  0.1740848779780313  0.7854321130237917  1.0000
  H   H339      1.0  0.37592277074569547  0.12960118382889196  0.815095767369889  1.0000
  H   H340      1.0  0.37985714172508134  0.180902647383681  0.8114894186756254  1.0000
  H   H341      1.0  0.38796538294452115  0.15518399406296246  0.8299348196749619  1.0000
  H   H342      1.0  0.43581872368689517  0.10348372250711702  0.8139966226278286  1.0000
  H   H343      1.0  0.4461424136767887  0.1277256811039187  0.8294411159037871  1.0000
  H   H344      1.0  0.482020684791125  0.13667346369666955  0.8110264233592868  1.0000
  N   N11       1.0  0.973337312624975  0.5814186847258805  0.1402204114659867  1.0000
  C   C377      1.0  0.9479838280662165  0.5579893150576588  0.155752054773465  1.0000
  C   C378      1.0  0.9748839519340744  0.6231897966129283  0.13932111778875267  1.0000
  C   C379      1.0  0.9573954808504543  0.5697365268921738  0.12696452374942277  1.0000
  C   C380      1.0  0.013036403941034447  0.5748343846624971  0.13889542347670145  1.0000
  H   H345      1.0  0.9476593666559658  0.5264415716730396  0.15722812286854448  1.0000
  H   H346      1.0  0.9172642234973155  0.5604716081620252  0.15683922218539428  1.0000
  H   H347      1.0  0.9579274910310873  0.5674432429398582  0.16601696360063473  1.0000
  H   H348      1.0  0.9937332729021164  0.6417752467971235  0.12773921446560427  1.0000
  H   H349      1.0  0.9453543022558258  0.6291193385197218  0.14040304924382127  1.0000
  H   H350      1.0  0.9869666456335717  0.6329520501300935  0.14914521738725459  1.0000
  H   H351      1.0  0.9756219276968016  0.5868893375371519  0.11503807331265274  1.0000
  H   H352      1.0  0.9272437599426124  0.5738541582027111  0.12772210190289787  1.0000
  H   H353      1.0  0.9559593945276074  0.5384368640315341  0.1272693535823783  1.0000
  H   H354      1.0  0.026388774515035518  0.5846848761330989  0.14840099567213152  1.0000
  H   H355      1.0  0.032738109976971685  0.59102366676549  0.1271199809357363  1.0000
  H   H356      1.0  0.012897301312513543  0.5433460389938686  0.14017896439830546  1.0000
  N   N12       1.0  0.5466644001353979  0.9429221989086238  0.20422647524871107  1.0000
  C   C381      1.0  0.5895522395709136  0.950266027864081  0.20099736312861188  1.0000
  C   C382      1.0  0.5288091649331761  0.904343707559447  0.21532987959257507  1.0000
  C   C383      1.0  0.5344819160510969  0.9437025946439835  0.18894708524274417  1.0000
  C   C384      1.0  0.5339666474199459  0.9735606291786607  0.21159028928087179  1.0000
  H   H357      1.0  0.6000345781053976  0.9521759832399537  0.2120846487530629  1.0000
  H   H358      1.0  0.6036862284413905  0.9783911034124066  0.19209384480921493  1.0000
  H   H359      1.0  0.6002620685508977  0.9267138826146054  0.1962084624999215  1.0000
  H   H360      1.0  0.4964764082920641  0.8973003866701725  0.21740035727174378  1.0000
  H   H361      1.0  0.5392246987069362  0.880567672867134  0.21058828793482487  1.0000
  H   H362      1.0  0.5358392777948999  0.9033783186169371  0.22724435119558697  1.0000
  H   H363      1.0  0.5023422115922335  0.9386534696830767  0.19080808784062384  1.0000
  H   H364      1.0  0.5435857301141818  0.9208535009581912  0.18312040990997264  1.0000
  H   H365      1.0  0.5473209977938447  0.9723838625618996  0.18024292891957014  1.0000
  H   H366      1.0  0.5017717543900362  0.9691006578976281  0.21425195167333444  1.0000
  H   H367      1.0  0.5468696057519978  0.003063921679891779  0.20352793394341517  1.0000
  H   H368      1.0  0.5429799559656832  0.9736657292602211  0.2231321207102201  1.0000
  N   N13       1.0  0.7054111882177293  0.9417825001038959  0.7186177678646165  1.0000
  C   C385      1.0  0.6902719267117563  0.9734218106386407  0.7242953727961554  1.0000
  C   C386      1.0  0.70767210674326  0.9124049785473191  0.7325585144489482  1.0000
  C   C387      1.0  0.744692488630116  0.9581229022456597  0.7079325011346583  1.0000
  C   C388      1.0  0.6789506038373009  0.9231953249050425  0.709721078423081  1.0000
  H   H369      1.0  0.6878693679117364  0.9958558740513477  0.714106783714215  1.0000
  H   H370      1.0  0.7096460632295394  0.9884905654991256  0.7309150992664971  1.0000
  H   H371      1.0  0.6605850316886872  0.9622862617511923  0.7323453472992573  1.0000
  H   H372      1.0  0.7190054811163082  0.8880628443489821  0.7287209505839707  1.0000
  H   H373      1.0  0.727358187505458  0.9254865399309656  0.7395568456596784  1.0000
  H   H374      1.0  0.6784914128796508  0.899500891619377  0.7408553972545662  1.0000
  H   H375      1.0  0.7653200417021047  0.9730347730353995  0.714142706136755  1.0000
  H   H376      1.0  0.7441059863294175  0.9802825785212319  0.6972439038357482  1.0000
  H   H377      1.0  0.7572659722085352  0.9351291944593441  0.7034674758957836  1.0000
  H   H378      1.0  0.6889240958379557  0.8986251439027659  0.7055071482392982  1.0000
  H   H379      1.0  0.6771459369261906  0.9443457692673007  0.6989573768901185  1.0000
  H   H380      1.0  0.6487200930452278  0.9115718480960407  0.7172644629234406  1.0000
  N   N14       1.0  0.7690970918800722  0.44938503385041145  0.8421000364248632  1.0000
  C   C389      1.0  0.8040180696345555  0.4819234097266517  0.8355356768078627  1.0000
  C   C390      1.0  0.7592531523882363  0.43121230040699166  0.8290872666315827  1.0000
  C   C391      1.0  0.7359995931692015  0.46437084881006224  0.8491900516524159  1.0000
  C   C392      1.0  0.7770781663073951  0.4200470209499815  0.854612888410295  1.0000
  H   H381      1.0  0.8298419772029022  0.4714351040579741  0.8306244823854544  1.0000
  H   H382      1.0  0.8117596176618532  0.49693048938052575  0.8449513547319628  1.0000
  H   H383      1.0  0.7997000854906826  0.5040555076572499  0.8256421772969624  1.0000
  H   H384      1.0  0.7333945755176572  0.4061092503661211  0.8336898011474585  1.0000
  H   H385      1.0  0.7522536360138882  0.4524019890039463  0.8196046470757999  1.0000
  H   H386      1.0  0.7839159635860982  0.4205360922792193  0.8231189834007787  1.0000
  H   H387      1.0  0.741492105564615  0.47651498429551026  0.8596001481697036  1.0000
  H   H388      1.0  0.7087686840017703  0.44085020318963347  0.8536575421700493  1.0000
  H   H389      1.0  0.7301393408530632  0.48770609302142326  0.8402516514396309  1.0000
  H   H390      1.0  0.8016738907331474  0.4078008137386013  0.8496870691810553  1.0000
  H   H391      1.0  0.751139815920777  0.39544718238508764  0.8600924632014059  1.0000
  H   H392      1.0  0.7849440566186078  0.4329825670286275  0.8645265842527905  1.0000
  N   N15       1.0  0.3471074536874607  0.7465450424421693  0.19704630873839965  1.0000
  C   C393      1.0  0.3452179068996801  0.733704580983708  0.21436660619891848  1.0000
  C   C394      1.0  0.38396100277827816  0.741955537602716  0.18763103959575836  1.0000
  C   C395      1.0  0.3456609038846811  0.7879841873580865  0.19324683185613095  1.0000
  C   C396      1.0  0.31373404836008095  0.7227880451911807  0.1929149975653694  1.0000
  H   H393      1.0  0.3686994900424732  0.752485577829697  0.21802967090309708  1.0000
  H   H394      1.0  0.3486868605373385  0.7032994909993522  0.21751760998349606  1.0000
  H   H395      1.0  0.31691981545209347  0.7347266907690115  0.22186586429014124  1.0000
  H   H396      1.0  0.3867072070543685  0.7112436333346631  0.19058790081363775  1.0000
  H   H397      1.0  0.38586046191570444  0.7503553970684765  0.17450365862275205  1.0000
  H   H398      1.0  0.40968191885554833  0.7605600249797378  0.19005450882722136  1.0000
  H   H399      1.0  0.3474920632319524  0.7988105538370801  0.1802233355101271  1.0000
  H   H400      1.0  0.370213214106356  0.8067491034442372  0.19632479318395007  1.0000
  H   H401      1.0  0.3181116331574371  0.7926204579992864  0.19999681954243906  1.0000
  H   H402      1.0  0.314320223923915  0.7316591688829737  0.17990506469869172  1.0000
  H   H403      1.0  0.28543737315514334  0.7259294052809261  0.19967109142807093  1.0000
  H   H404      1.0  0.3137377722874194  0.6912740705580936  0.19566958713135607  1.0000
  N   N16       1.0  0.596139890987185  0.5327345260220295  0.3075967100342472  1.0000
  C   C397      1.0  0.638994418663291  0.5464078373927358  0.30385940592783284  1.0000
  C   C398      1.0  0.5819525408135119  0.544091729966512  0.29294919922170176  1.0000
  C   C399      1.0  0.5785774084071814  0.5507594702739248  0.3201509109465022  1.0000
  C   C400      1.0  0.5851187170862884  0.48983934110496324  0.31342642183424313  1.0000
  H   H405      1.0  0.6505252844553547  0.5404551532869223  0.31483865285139256  1.0000
  H   H406      1.0  0.6484224039250942  0.5783617490450956  0.2985603724199771  1.0000
  H   H407      1.0  0.653404736287605  0.5316704423753295  0.2951452070065922  1.0000
  H   H408      1.0  0.5495966276919554  0.5350996453633768  0.2953575019714746  1.0000
  H   H409      1.0  0.5904595922502057  0.576316336603533  0.28810682164078083  1.0000
  H   H410      1.0  0.594141194521028  0.5306036342034424  0.28327410169070033  1.0000
  H   H411      1.0  0.5897724925130703  0.5443268542286152  0.3311919005254822  1.0000
  H   H412      1.0  0.5463113127072152  0.5403843643780222  0.3236414737200883  1.0000
  H   H413      1.0  0.5854166637653455  0.582955845455493  0.3158979645438246  1.0000
  H   H414      1.0  0.55298327213586  0.4784393214070702  0.3163404089069884  1.0000
  H   H415      1.0  0.5954595669319344  0.4804334255124307  0.32445187495878486  1.0000
  H   H416      1.0  0.5983194744600384  0.47525997820463817  0.30434096355175455  1.0000
  N   N17       1.0  0.3885153308858876  0.6191520281812101  0.12521190619178327  1.0000
  C   C401      1.0  0.4236867378815859  0.6343777757968643  0.11191721648256088  1.0000
  C   C402      1.0  0.36917666649990694  0.5794807199104258  0.12458319912596069  1.0000
  C   C403      1.0  0.3613736013616595  0.6450079319425032  0.12364515435259933  1.0000
  C   C404      1.0  0.39982580878752555  0.6176761749848647  0.14071084595043926  1.0000
  H   H417      1.0  0.4398587458975857  0.6636976043102537  0.11240889195120915  1.0000
  H   H418      1.0  0.4163459254633231  0.6370058743099224  0.09999475197497606  1.0000
  H   H419      1.0  0.4443854696129813  0.6150116783978767  0.11249569617123316  1.0000
  H   H420      1.0  0.38883325348566217  0.5591795754569159  0.1257785681263214  1.0000
  H   H421      1.0  0.34247137222444407  0.5672268209127738  0.13446635784695754  1.0000
  H   H422      1.0  0.3602994391435762  0.5794846588391083  0.11303302116242922  1.0000
  H   H423      1.0  0.35279664371646563  0.6474476897591283  0.11195901572431516  1.0000
  H   H424      1.0  0.3746459606500175  0.674991088756207  0.12446011475049612  1.0000
  H   H425      1.0  0.33402681532208833  0.633881339866748  0.13325550193917368  1.0000
  H   H426      1.0  0.4145780548632186  0.6471315356328488  0.14159544933157053  1.0000
  H   H427      1.0  0.4206263958248201  0.5987065045939681  0.14220240619353125  1.0000
  H   H428      1.0  0.37406069788092894  0.6061993680819988  0.15105176401637657  1.0000
  N   N18       1.0  0.40159205622444305  0.08661694220048932  0.17737859618845447  1.0000
  C   C405      1.0  0.4389971652012456  0.1134153631055109  0.17659765081351267  1.0000
  C   C406      1.0  0.371953695285056  0.10930423189120596  0.1753422360077108  1.0000
  C   C407      1.0  0.38851165407893784  0.05823795079778787  0.19311715411722039  1.0000
  C   C408      1.0  0.4068269660933601  0.06552963978898207  0.164424379216902  1.0000
  H   H429      1.0  0.46249906166501037  0.09759348458389654  0.17725230917392165  1.0000
  H   H430      1.0  0.43691501772612507  0.12847735696787818  0.1866509364375962  1.0000
  H   H431      1.0  0.44893945234308924  0.13617031593640688  0.1651372200637837  1.0000
  H   H432      1.0  0.3433342129070565  0.08995326536536438  0.17589466056346856  1.0000
  H   H433      1.0  0.36742746989990976  0.1256318855833316  0.18491578817458154  1.0000
  H   H434      1.0  0.38073068457920256  0.1309022371618723  0.1635579809366979  1.0000
  H   H435      1.0  0.3854301189480669  0.07292066951020439  0.20326989573234217  1.0000
  H   H436      1.0  0.409354182574216  0.03960604194269571  0.19487279250312298  1.0000
  H   H437      1.0  0.359838746531098  0.03821601012582666  0.1942879599877295  1.0000
  H   H438      1.0  0.4287908204486756  0.047817160454154975  0.16568944094954657  1.0000
  H   H439      1.0  0.41715371108591315  0.08596197542910004  0.152369968750939  1.0000
  H   H440      1.0  0.3791956094951703  0.04515407913638341  0.16454488292098238  1.0000
  N   N19       1.0  0.547759844920198  0.11166481385299742  0.24742305496063138  1.0000
  C   C409      1.0  0.5821129502278259  0.14431986950034026  0.23981352551770693  1.0000
  C   C410      1.0  0.5121918325674326  0.12363911961778573  0.244444052923726  1.0000
  C   C411      1.0  0.5446714226178198  0.10083501243574222  0.26491502026821045  1.0000
  C   C412      1.0  0.552091217444217  0.07783313163826344  0.24049260440139708  1.0000
  H   H441      1.0  0.585314653044982  0.15301111588356364  0.22657523809477073  1.0000
  H   H442      1.0  0.6094075441883262  0.13621565627783006  0.24190555680427417  1.0000
  H   H443      1.0  0.5797886398916304  0.17045047185814344  0.2446826334351765  1.0000
  H   H444      1.0  0.4857781793648663  0.09951575318369454  0.24993022080336424  1.0000
  H   H445      1.0  0.5078760949252512  0.14897396635231197  0.2495701839617409  1.0000
  H   H446      1.0  0.5135254324340289  0.13199566471088842  0.2313671257265456  1.0000
  H   H447      1.0  0.5188481273320078  0.07644247323579023  0.27106484916751206  1.0000
  H   H448      1.0  0.5418302816204538  0.12573529811566608  0.2705574412077027  1.0000
  H   H449      1.0  0.5707259029892389  0.09109671888394089  0.26763313283686285  1.0000
  H   H450      1.0  0.5263802215878178  0.05286866761299591  0.2457459432029252  1.0000
  H   H451      1.0  0.5784444676598709  0.06778041810393165  0.24263826705318103  1.0000
  H   H452      1.0  0.554857120023159  0.08501713533119215  0.22731464427371995  1.0000
  N   N20       1.0  0.2796976272212775  0.7649727643802783  0.7320908928285885  1.0000
  C   C413      1.0  0.27213838399322077  0.7252608860204856  0.7292210822481435  1.0000
  C   C414      1.0  0.3045517109931602  0.7928808768374992  0.717399429778741  1.0000
  C   C415      1.0  0.2998621785963606  0.7656066110362211  0.7453529625139512  1.0000
  C   C416      1.0  0.24233099777633005  0.7761397721376467  0.7364710338764612  1.0000
  H   H453      1.0  0.25293437180637524  0.703624236973926  0.7400317183424194  1.0000
  H   H454      1.0  0.29961574438475913  0.7155160421938057  0.7262523071026404  1.0000
  H   H455      1.0  0.25760639904354327  0.7237309584793965  0.7191006307565041  1.0000
  H   H456      1.0  0.311512221542591  0.82287589963575  0.7193503472037717  1.0000
  H   H457      1.0  0.33269107940216225  0.7848378216022209  0.7136367887596585  1.0000
  H   H458      1.0  0.29026611552330556  0.79401724722039  0.7071338208139678  1.0000
  H   H459      1.0  0.30420474074928733  0.7945411881307548  0.7484401666265834  1.0000
  H   H460      1.0  0.3291131917050587  0.7593787112710492  0.7421694462032802  1.0000
  H   H461      1.0  0.2830062263730695  0.7435957626026203  0.7564543326687939  1.0000
  H   H462      1.0  0.24682001573570692  0.8057904122255364  0.7388932291418933  1.0000
  H   H463      1.0  0.22304230454326945  0.7554449022213253  0.7475064059795329  1.0000
  H   H464      1.0  0.22637106596359777  0.7762739043773031  0.7267195848342773  1.0000
  N   N21       1.0  0.9921299487962353  0.39304184354017213  0.6019531130361749  1.0000
  C   C417      1.0  0.9791331923052441  0.3501416168763225  0.6074325433469703  1.0000
  C   C418      1.0  0.02031586546887412  0.4033265524365667  0.5862443277253886  1.0000
  C   C419      1.0  0.01084496297957101  0.4088060398975685  0.6138120149295168  1.0000
  C   C420      1.0  0.9582322970334513  0.4097895702655383  0.6003112808295374  1.0000
  H   H465      1.0  0.9575457749546241  0.34123607685540547  0.6192115236779101  1.0000
  H   H466      1.0  0.003909965141663917  0.3366546735463646  0.6091212057654296  1.0000
  H   H467      1.0  0.9654825862223222  0.33713773582500883  0.5986365304129827  1.0000
  H   H468      1.0  0.030847068371686815  0.43548935980111403  0.5817244356988045  1.0000
  H   H469      1.0  0.046146353315114554  0.3909138047823902  0.5870649481101955  1.0000
  H   H470      1.0  0.006895040481532428  0.391802981421813  0.5770553124051092  1.0000
  H   H471      1.0  0.021177399709511456  0.4410930909314427  0.6101258745126716  1.0000
  H   H472      1.0  0.03621680753060707  0.3963230276692934  0.6155587942516478  1.0000
  H   H473      1.0  0.9902586847936317  0.40135131471899044  0.6257960261534152  1.0000
  H   H474      1.0  0.9361950511437885  0.4023380669496276  0.6119326710327027  1.0000
  H   H475      1.0  0.9435148768615044  0.3986493381182871  0.5913771862592933  1.0000
  H   H476      1.0  0.9668888261154074  0.44212959515073114  0.5962840010297764  1.0000
  N   N22       1.0  0.06149756786701022  0.48979996330347236  0.22171296880576977  1.0000
  C   C421      1.0  0.060289244436445344  0.46866297400914725  0.20876928787671545  1.0000
  C   C422      1.0  0.06151574762640477  0.530971439332073  0.2154334509585592  1.0000
  C   C423      1.0  0.09722188130337428  0.48794783413341725  0.22756106399743442  1.0000
  C   C424      1.0  0.026957654100033812  0.47173928060026243  0.23508079318815273  1.0000
  H   H477      1.0  0.06006233242117531  0.43740818845575813  0.21305217242000216  1.0000
  H   H478      1.0  0.08594351767545239  0.481572576514043  0.198467221411304  1.0000
  H   H479      1.0  0.03377845672488222  0.46967769387975594  0.20402186751929505  1.0000
  H   H480      1.0  0.06309620873761679  0.5480097198739964  0.2247839289311231  1.0000
  H   H481      1.0  0.08684208613112632  0.5452915878505736  0.20514455650349614  1.0000
  H   H482      1.0  0.034794835748665154  0.5336289464222418  0.21105013440704112  1.0000
  H   H483      1.0  0.09898555755225269  0.5034835614114423  0.23740413151205017  1.0000
  H   H484      1.0  0.12392193396250706  0.5018906408019548  0.21782286998119568  1.0000
  H   H485      1.0  0.09843268894086243  0.4573286616412419  0.23230855296925715  1.0000
  H   H486      1.0  0.02679742259450446  0.48687267253711497  0.245102879289345  1.0000
  H   H487      1.0  0.025791154323226984  0.4405750202258866  0.2401494486183455  1.0000
  H   H488      1.0  0.9994034645995022  0.4726419468772151  0.2311222787773418  1.0000
  N   N23       1.0  0.8007694950773967  0.47989692900293973  0.291061733814086  1.0000
  C   C425      1.0  0.7711808540254096  0.4956557679442969  0.2839713125133641  1.0000
  C   C426      1.0  0.8000351831488545  0.4403552537624541  0.2884112956608972  1.0000
  C   C427      1.0  0.7920955419675219  0.4780384318427293  0.308475601743051  1.0000
  C   C428      1.0  0.8397971676312375  0.5055832927375955  0.28338877757213266  1.0000
  H   H489      1.0  0.7708310352597086  0.5254007074122865  0.2858421262884211  1.0000
  H   H490      1.0  0.7413971693960871  0.47692136130892443  0.28952534488871096  1.0000
  H   H491      1.0  0.7767489278924425  0.4974930864769269  0.27083187635772904  1.0000
  H   H492      1.0  0.8066829941952705  0.44075584680821017  0.27537074000237044  1.0000
  H   H493      1.0  0.8220158400650743  0.42759730301169535  0.29361493477474343  1.0000
  H   H494      1.0  0.7709908038490204  0.42009896857170026  0.29391362166027407  1.0000
  H   H495      1.0  0.8145003493836994  0.467356776832945  0.31412650363248806  1.0000
  H   H496      1.0  0.7629764638437748  0.4586558733243187  0.31470320690173686  1.0000
  H   H497      1.0  0.7918601625628635  0.5073739940167634  0.3108674163102561  1.0000
  H   H498      1.0  0.8629423686234715  0.49395115586516625  0.2881532948340443  1.0000
  H   H499      1.0  0.8420421957794377  0.5353181392318612  0.2856755025785889  1.0000
  H   H500      1.0  0.8470312733844683  0.5086075326719641  0.27017145421327016  1.0000
  N   N24       1.0  0.6455351155554705  0.20638263892014022  0.876886323575933  1.0000
  C   C429      1.0  0.6229389609784091  0.20606581310429092  0.8643932758153204  1.0000
  C   C430      1.0  0.6322567572693661  0.2311092355921395  0.8875203798095064  1.0000
  C   C431      1.0  0.6873788299361925  0.22211270629300017  0.8692407180872995  1.0000
  C   C432      1.0  0.6396618098348356  0.16613130051758818  0.8863818850492223  1.0000
  H   H501      1.0  0.631878859257821  0.18735000505844646  0.8562619341903593  1.0000
  H   H502      1.0  0.627003990013727  0.2358313530869699  0.8568367574880346  1.0000
  H   H503      1.0  0.5912003565997924  0.19473417969080437  0.8697550797536697  1.0000
  H   H504      1.0  0.6489989354694228  0.23247305834886084  0.8969794546173654  1.0000
  H   H505      1.0  0.6358756049864775  0.2615829700058728  0.880692038563354  1.0000
  H   H506      1.0  0.6009655551596086  0.2197401213993817  0.893705194029089  1.0000
  H   H507      1.0  0.7051227147641695  0.22185882892380376  0.8784165924222297  1.0000
  H   H508      1.0  0.6930996016463565  0.25262441516438217  0.8621615981302858  1.0000
  H   H509      1.0  0.6981819057438021  0.20436782126262384  0.8609882491815031  1.0000
  H   H510      1.0  0.649739891056855  0.14690839147118165  0.8786518082494966  1.0000
  H   H511      1.0  0.608452156507983  0.1530974653560569  0.8923316129462686  1.0000
  H   H512      1.0  0.6562597543385424  0.16530501131481679  0.8959613283713943  1.0000
  N   N25       1.0  0.7271121884055114  0.22761662792748186  0.745818617022123  1.0000
  C   C433      1.0  0.7574677961495446  0.2628348350713657  0.7367625731979087  1.0000
  C   C434      1.0  0.7150600183585115  0.20397646608677483  0.734687058443793  1.0000
  C   C435      1.0  0.6930160155340062  0.23932686980385176  0.7541154251912677  1.0000
  C   C436      1.0  0.7429469286755307  0.2042895253231058  0.7577374107888389  1.0000
  H   H513      1.0  0.7469920465324544  0.2807420445705007  0.7273704378836388  1.0000
  H   H514      1.0  0.7840440109728014  0.25507998555330713  0.7306900321243766  1.0000
  H   H515      1.0  0.7665554762279568  0.2815466955560148  0.7448636261752186  1.0000
  H   H516      1.0  0.6917663828351763  0.17746951962208057  0.7411497006427197  1.0000
  H   H517      1.0  0.70343868393076  0.22076169837335202  0.7253619237000346  1.0000
  H   H518      1.0  0.7399164384268601  0.19416817114717638  0.7283754978550455  1.0000
  H   H519      1.0  0.6696018225172237  0.213465235614074  0.761170802306059  1.0000
  H   H520      1.0  0.680127941766001  0.25670146071225425  0.7454758367198491  1.0000
  H   H521      1.0  0.7009859073313727  0.2573844404377555  0.7625762087331165  1.0000
  H   H522      1.0  0.7688824715469138  0.19525152531616463  0.7518425808030413  1.0000
  H   H523      1.0  0.720917823747609  0.1773971413057456  0.7648117552047893  1.0000
  H   H524      1.0  0.7522534238822028  0.22122723431016128  0.766371286023689  1.0000
  N   N26       1.0  0.6635205070144111  0.3512434932934676  0.09913607427734974  1.0000
  C   C437      1.0  0.679420355094244  0.34520873550653325  0.11359408398333093  1.0000
  C   C438      1.0  0.6562633005150272  0.3907052690524697  0.09582326151686947  1.0000
  C   C439      1.0  0.6265356024545298  0.3219507944596431  0.10187537250933222  1.0000
  C   C440      1.0  0.6918894798629224  0.3472298482656265  0.08525892090073274  1.0000
  H   H525      1.0  0.6853496690056952  0.31562517757652675  0.1163418679760696  1.0000
  H   H526      1.0  0.6584233471020808  0.34750805847383526  0.12432423655496615  1.0000
  H   H527      1.0  0.7070686701926073  0.3671201924867536  0.11195838842720489  1.0000
  H   H528      1.0  0.6837800158171263  0.4137339971123706  0.09264743554046578  1.0000
  H   H529      1.0  0.6416518113373141  0.3952471140684399  0.08569977170221887  1.0000
  H   H530      1.0  0.6371481449718299  0.3960726131850517  0.10630211089687788  1.0000
  H   H531      1.0  0.6037200499499522  0.3260981520005165  0.11152199961447011  1.0000
  H   H532      1.0  0.6302192772129361  0.29183878772223926  0.10565501572881554  1.0000
  H   H533      1.0  0.615022746614421  0.32373708674607576  0.09085266332653115  1.0000
  H   H534      1.0  0.7191277393347704  0.3706431749706879  0.08211435042900712  1.0000
  H   H535      1.0  0.6798740082100678  0.3487084488963046  0.07435518076792681  1.0000
  H   H536      1.0  0.7002351391213595  0.3189323578300504  0.08776858316615735  1.0000
  N   N27       1.0  0.7369393288597392  0.43884081346411097  0.421003229683022  1.0000
  C   C441      1.0  0.7246900759172614  0.4235003948803275  0.43859420203582206  1.0000
  C   C442      1.0  0.7233388244622106  0.40780199558716773  0.4130269963949738  1.0000
  C   C443      1.0  0.7798944020676322  0.4516482344846373  0.4160986085473465  1.0000
  C   C444      1.0  0.7197213748058918  0.47224831726111355  0.41632268866814987  1.0000
  H   H537      1.0  0.7347221247087892  0.4460272839982411  0.4450298943808131  1.0000
  H   H538      1.0  0.7369774008271576  0.39800551151516006  0.4424520791378482  1.0000
  H   H539      1.0  0.6924084899666121  0.4136736660130024  0.4426969873772848  1.0000
  H   H540      1.0  0.7323634678830158  0.4181841282406685  0.3997268414084027  1.0000
  H   H541      1.0  0.7356643709809647  0.38211026990475416  0.4163141741288872  1.0000
  H   H542      1.0  0.6910667802576786  0.39763688002085346  0.41644219994512427  1.0000
  H   H543      1.0  0.7903735866189516  0.461133829511957  0.4027961821491249  1.0000
  H   H544      1.0  0.7938567184326474  0.4276326964535279  0.42012222937775845  1.0000
  H   H545      1.0  0.7911180773635942  0.47649475034676486  0.4211674676519018  1.0000
  H   H546      1.0  0.7291460540157879  0.48500195676345925  0.40315743779890484  1.0000
  H   H547      1.0  0.7286801294333664  0.49600894555471053  0.4223342093905674  1.0000
  H   H548      1.0  0.6873163590071307  0.4634140125285137  0.419399472069671  1.0000
  N   N28       1.0  0.29273411243768843  0.09652971381286458  0.7379219492476157  1.0000
  C   C445      1.0  0.3068271170684446  0.08504764730927673  0.7228752724113957  1.0000
  C   C446      1.0  0.3261312197689318  0.11091172636557602  0.7445593839216281  1.0000
  C   C447      1.0  0.26601176433843665  0.06234280550518148  0.7496488155222429  1.0000
  C   C448      1.0  0.2718363478718951  0.12770432449032448  0.734667740257749  1.0000
  H   H549      1.0  0.3235293510222443  0.0622285170457098  0.7249212520413838  1.0000
  H   H550      1.0  0.3262978347783082  0.11027456560064415  0.7135510986189961  1.0000
  H   H551      1.0  0.28220555212653425  0.07286836060265113  0.7178382701633057  1.0000
  H   H552      1.0  0.3422373298325109  0.08799476676770311  0.7473952676360529  1.0000
  H   H553      1.0  0.3471179567978853  0.13653199167991217  0.7360048713281432  1.0000
  H   H554      1.0  0.3164687915216691  0.1198885019503773  0.7558940801089779  1.0000
  H   H555      1.0  0.28055204337208745  0.03797138535806926  0.7523522940999017  1.0000
  H   H556      1.0  0.24011408549155858  0.050921987778030024  0.7451791562131975  1.0000
  H   H557      1.0  0.2549982656879238  0.06971524198526316  0.7612402043105447  1.0000
  H   H558      1.0  0.2912253495080148  0.15427080881474706  0.726076387074923  1.0000
  H   H559      1.0  0.26015289197102043  0.13640360677548424  0.7458895891399255  1.0000
  H   H560      1.0  0.24674793946917728  0.11801196645194692  0.7294539486769069  1.0000
  N   N29       1.0  0.832120975220164  0.12361144624021358  0.6179364176049006  1.0000
  C   C449      1.0  0.7925645226615797  0.09956430722660792  0.625827824488288  1.0000
  C   C450      1.0  0.8516424591764455  0.13622658630945672  0.6301766520582414  1.0000
  C   C451      1.0  0.8295293204748712  0.15823715897001933  0.6063342405103989  1.0000
  C   C452      1.0  0.8546865057811055  0.10032653344030429  0.6094009190839212  1.0000
  H   H561      1.0  0.7739388624087777  0.11665440394375248  0.6316919895591019  1.0000
  H   H562      1.0  0.7931450588314345  0.07416892428019639  0.6352281170015848  1.0000
  H   H563      1.0  0.7777983746427775  0.08773880436950443  0.6170663615976745  1.0000
  H   H564      1.0  0.8811808840184566  0.15542338724541693  0.6245498308289281  1.0000
  H   H565      1.0  0.8346206739097378  0.15257173209968022  0.6372731836498895  1.0000
  H   H566      1.0  0.8553739445620754  0.11080259037834073  0.6387512093841522  1.0000
  H   H567      1.0  0.8125021686947447  0.17640965860042956  0.61230195455398  1.0000
  H   H568      1.0  0.8150226225993025  0.14977474763370435  0.5968791272098753  1.0000
  H   H569      1.0  0.8589368535952071  0.17696905903565052  0.6000976337984947  1.0000
  H   H570      1.0  0.8858844717420017  0.11577592338085907  0.6048550768855014  1.0000
  H   H571      1.0  0.8432168716434627  0.0937985434683688  0.5989680768834236  1.0000
  H   H572      1.0  0.8536170772042637  0.07194930684548195  0.61741093022033  1.0000
  N   N30       1.0  0.07327519710569713  0.7577104089503762  0.7315153780461263  1.0000
  C   C453      1.0  0.03591412321700853  0.7308419457510958  0.7323174578230236  1.0000
  C   C454      1.0  0.07007007015960663  0.7738762968643821  0.7459505099664742  1.0000
  C   C455      1.0  0.08265972867710009  0.7899521192411256  0.7170514390150423  1.0000
  C   C456      1.0  0.10449277657858173  0.7362239930899371  0.7306618545361984  1.0000
  H   H573      1.0  0.011836059882657795  0.7461949035225238  0.732535220623199  1.0000
  H   H574      1.0  0.02744328786261603  0.7067114785732187  0.7433045303802038  1.0000
  H   H575      1.0  0.03777116053322463  0.7171815778710829  0.7218265076531014  1.0000
  H   H576      1.0  0.09776389561731935  0.7944428283255308  0.7456721113640769  1.0000
  H   H577      1.0  0.0467271502283658  0.7901749263731408  0.7469859157999563  1.0000
  H   H578      1.0  0.06297541440408051  0.7504451442809523  0.7571390274446055  1.0000
  H   H579      1.0  0.06071561910020709  0.8079510233072401  0.7175717939262619  1.0000
  H   H580      1.0  0.0833138342863227  0.7786273112238444  0.7060282264962636  1.0000
  H   H581      1.0  0.11167697231840018  0.8097355967822268  0.7156167748741125  1.0000
  H   H582      1.0  0.13331624658905936  0.7556908510018223  0.7297131379595795  1.0000
  H   H583      1.0  0.10711236748982397  0.7231098483935157  0.7200507659505305  1.0000
  H   H584      1.0  0.09864874242656012  0.7118630199520605  0.7414299974247526  1.0000
  N   N31       1.0  0.8318131117755784  0.16076793595417072  0.44233934926434637  1.0000
  C   C457      1.0  0.8515130614637944  0.1751859924547467  0.4251331171075369  1.0000
  C   C458      1.0  0.8449845113191788  0.18989126696391054  0.4512766876532552  1.0000
  C   C459      1.0  0.8413436231389418  0.12359007106261587  0.4487848681860805  1.0000
  C   C460      1.0  0.7892543455055987  0.15434200308856819  0.4441781444914401  1.0000
  H   H585      1.0  0.8836796935951547  0.1801530670388186  0.4232013533943213  1.0000
  H   H586      1.0  0.8449600238946375  0.20327068602317766  0.4198989364439756  1.0000
  H   H587      1.0  0.8416060722018008  0.15429764199405693  0.4179639845072631  1.0000
  H   H588      1.0  0.8769383339790383  0.1955171184242458  0.4502375304840461  1.0000
  H   H589      1.0  0.8380789023705132  0.2182878815376553  0.44676502575648624  1.0000
  H   H590      1.0  0.830190731745769  0.18023864758964983  0.46427566642773893  1.0000
  H   H591      1.0  0.8316481840697953  0.10099539469741314  0.4423100541788826  1.0000
  H   H592      1.0  0.8268021379937115  0.11198396745571373  0.46174659031237264  1.0000
  H   H593      1.0  0.8732552729739441  0.1273094006471671  0.44760192672663196  1.0000
  H   H594      1.0  0.7812319598439502  0.1818099469216438  0.43946607580782515  1.0000
  H   H595      1.0  0.7732668662104981  0.14391528289993516  0.45701388627039763  1.0000
  H   H596      1.0  0.7781644420868895  0.1329371144002191  0.4374368895418694  1.0000
  N   N32       1.0  0.09543308561048815  0.06721787239548385  0.6673935410449787  1.0000
  C   C461      1.0  0.1224014179725917  0.04114805483645351  0.6688833710523839  1.0000
  C   C462      1.0  0.10655624985445962  0.09268081068502733  0.6510212992721419  1.0000
  C   C463      1.0  0.09728243045896681  0.09148912414964755  0.6792759690612191  1.0000
  C   C464      1.0  0.055294224933297165  0.04349959198063275  0.6703820133192423  1.0000
  H   H597      1.0  0.12327997073858574  0.024058344523201453  0.6595108685976229  1.0000
  H   H598      1.0  0.113315898032296  0.019670196898776793  0.6806720051892198  1.0000
  H   H599      1.0  0.15270259507483994  0.057748650093944955  0.6676732236452385  1.0000
  H   H600      1.0  0.08687942875249148  0.11288283900519588  0.6494985855720289  1.0000
  H   H601      1.0  0.1368290108662552  0.11073286113157085  0.6483175614267815  1.0000
  H   H602      1.0  0.10505527974372507  0.07528735880704648  0.6417563748104654  1.0000
  H   H603      1.0  0.1274837072832558  0.10848175581178417  0.6779475130681588  1.0000
  H   H604      1.0  0.08729349977947252  0.07334365983733736  0.6917927541072483  1.0000
  H   H605      1.0  0.07843744146456848  0.11261435020957444  0.67801026839599  1.0000
  H   H606      1.0  0.03413685770081298  0.062299751697810796  0.6695904559836888  1.0000
  H   H607      1.0  0.04616490602148817  0.023479630327394658  0.6825382883641302  1.0000
  H   H608      1.0  0.052709431450074534  0.025137878455164964  0.6615185586212682  1.0000
  N   N33       1.0  0.06536592290070489  0.1957667282675825  0.8022001478576395  1.0000
  C   C465      1.0  0.10212089515379101  0.19366051561027595  0.791888455595436  1.0000
  C   C466      1.0  0.05758822281600687  0.2346165139150053  0.7971744575516005  1.0000
  C   C467      1.0  0.06877588464608435  0.18922703594581164  0.8190681897408215  1.0000
  C   C468      1.0  0.03316940922289795  0.16538829863734766  0.8006479715490006  1.0000
  H   H609      1.0  0.1088447114911928  0.16466174910742665  0.7954176243762865  1.0000
  H   H610      1.0  0.1273698751467034  0.2159800027428511  0.7926876633418228  1.0000
  H   H611      1.0  0.10090105880367203  0.1981474811549477  0.779030440611194  1.0000
  H   H612      1.0  0.029927557176100093  0.2370693820487714  0.8047125474707131  1.0000
  H   H613      1.0  0.08134507752901683  0.25819707685563675  0.7982301268883921  1.0000
  H   H614      1.0  0.055060049662934596  0.24051631450070918  0.7844671047271975  1.0000
  H   H615      1.0  0.041285532786362926  0.18954641334457137  0.8273351896065494  1.0000
  H   H616      1.0  0.09244340647003713  0.2119437457149405  0.8207228792781728  1.0000
  H   H617      1.0  0.07544510622822287  0.1604948241329769  0.8231243358641307  1.0000
  H   H618      1.0  0.005028295999611703  0.16494058351803595  0.8086962726451477  1.0000
  H   H619      1.0  0.03895554376697378  0.13593057192569  0.8037986444140766  1.0000
  H   H620      1.0  0.02921531288920622  0.1698552723709315  0.7881388285032195  1.0000
  N   N34       1.0  0.6164883612738759  0.21727120956756224  0.3848275490655266  1.0000
  C   C469      1.0  0.6351321416880066  0.2593385962466832  0.3790952362741515  1.0000
  C   C470      1.0  0.642265233211708  0.19713667067915452  0.3928688233486812  1.0000
  C   C471      1.0  0.609650834699608  0.20080232761630046  0.3710318366920575  1.0000
  C   C472      1.0  0.5788947117085467  0.2119004383574036  0.39630372831493743  1.0000
  H   H621      1.0  0.6415703641904269  0.27244883944007187  0.3891417192507001  1.0000
  H   H622      1.0  0.6159958226356437  0.2755945571846967  0.3733373838782347  1.0000
  H   H623      1.0  0.662880268376766  0.26454433176906295  0.36998863132176546  1.0000
  H   H624      1.0  0.6289232166252231  0.1653913002147464  0.39753194780463813  1.0000
  H   H625      1.0  0.6707520385166942  0.20029847346262566  0.3844968061361397  1.0000
  H   H626      1.0  0.6482893833411679  0.20910008514313635  0.40326873741961305  1.0000
  H   H627      1.0  0.5956726963504485  0.16907079733877103  0.374859749140413  1.0000
  H   H628      1.0  0.6373881568666779  0.20467509385139807  0.36203004466996114  1.0000
  H   H629      1.0  0.5904532930879188  0.2155260491891736  0.3646367007254175  1.0000
  H   H630      1.0  0.5589935988804459  0.22726693082188054  0.3906790249537637  1.0000
  H   H631      1.0  0.5830308409664637  0.22372863400823262  0.40692122097382244  1.0000
  H   H632      1.0  0.5638091303472734  0.18053409984578908  0.40082893331979974  1.0000
  N   N35       1.0  0.14148853813970375  0.6668849613523207  0.24913366490015876  1.0000
  C   C473      1.0  0.12338552471179765  0.6246480441732937  0.2546977038810472  1.0000
  C   C474      1.0  0.17802028288381888  0.6732761451195008  0.23688857028214916  1.0000
  C   C475      1.0  0.1503195990478834  0.6825272358927722  0.2628338187801952  1.0000
  C   C476      1.0  0.11434221531887112  0.6871795282189677  0.24217697440610275  1.0000
  H   H633      1.0  0.11638334449586396  0.6117941499583273  0.24464493673231202  1.0000
  H   H634      1.0  0.09605952060379774  0.6185898763337523  0.26416416706704743  1.0000
  H   H635      1.0  0.14321473457357725  0.6084950408805198  0.2599031085404578  1.0000
  H   H636      1.0  0.19149164239300198  0.7048969742850498  0.2318296597126741  1.0000
  H   H637      1.0  0.19980814758251086  0.6598516343697409  0.24194414889964844  1.0000
  H   H638      1.0  0.17275184951550338  0.6602178115489306  0.226715765945242  1.0000
  H   H639      1.0  0.16428775334183943  0.7142548113711722  0.25908864110130886  1.0000
  H   H640      1.0  0.17055288386405376  0.6676212393134997  0.2684014786604611  1.0000
  H   H641      1.0  0.1234699567168751  0.6782728288413661  0.27236416805460734  1.0000
  H   H642      1.0  0.1077555584743608  0.6768367783760426  0.2315395071875487  1.0000
  H   H643      1.0  0.12696016976450264  0.719187193139023  0.23800321657079265  1.0000
  H   H644      1.0  0.08627641838394462  0.6825059084459187  0.25104267202713076  1.0000
  N   N36       1.0  0.7507214423800943  0.2661696986282107  0.6369608932365861  1.0000
  C   C477      1.0  0.7671692501794829  0.2850762830083943  0.6486149042236644  1.0000
  C   C478      1.0  0.7532001146223629  0.224936186545517  0.6400575959250778  1.0000
  C   C479      1.0  0.7728857505846565  0.28653808839152956  0.620490133780864  1.0000
  C   C480      1.0  0.7095399864511077  0.26814687393266123  0.6387253894576174  1.0000
  H   H645      1.0  0.766121649376756  0.3163657732729851  0.6465784542496585  1.0000
  H   H646      1.0  0.7981806915112057  0.2840264432070535  0.647798219580225  1.0000
  H   H647      1.0  0.7507334774412593  0.2705928760072675  0.6611037858840748  1.0000
  H   H648      1.0  0.7417779633987368  0.21003850898702753  0.6312513487180241  1.0000
  H   H649      1.0  0.7837919055309005  0.2224233710047698  0.6392533556304245  1.0000
  H   H650      1.0  0.7359511163331808  0.20851908406771147  0.6522791385118158  1.0000
  H   H651      1.0  0.7608670169964471  0.27347740386405534  0.6113667012766456  1.0000
  H   H652      1.0  0.8038990698598798  0.28503770569625186  0.6186518935994132  1.0000
  H   H653      1.0  0.7721059740949617  0.3178703513942317  0.6178199411647872  1.0000
  H   H654      1.0  0.7065665992965613  0.29882806511847854  0.6370034273584207  1.0000
  H   H655      1.0  0.6916538326206725  0.25177042599565097  0.6508639867584985  1.0000
  H   H656      1.0  0.6966629317961474  0.2555850003131775  0.6296677224501234  1.0000
  N   N37       1.0  0.8933109601493525  0.5075718402256592  0.05773005421386035  1.0000
  C   C481      1.0  0.8956766712326796  0.5467099686386403  0.06101296190608174  1.0000
  C   C482      1.0  0.9262270078841406  0.49231015331936584  0.062063146148019  1.0000
  C   C483      1.0  0.8951696327872344  0.5101485867644691  0.04048237050581083  1.0000
  C   C484      1.0  0.8561361670357606  0.48110237780196535  0.0673597811761053  1.0000
  H   H657      1.0  0.9227582597309124  0.567866666294707  0.05363652302084243  1.0000
  H   H658      1.0  0.8953057128034948  0.5458656641336477  0.07385996566015529  1.0000
  H   H659      1.0  0.8704128491480743  0.5584386923700151  0.05843723144544888  1.0000
  H   H660      1.0  0.9547435660140265  0.5118064128128653  0.05519452543905068  1.0000
  H   H661      1.0  0.9255088677523157  0.48929573016375233  0.07506903247693253  1.0000
  H   H662      1.0  0.9256058963164464  0.46299639340920007  0.059522590498478634  1.0000
  H   H663      1.0  0.8936822106487968  0.4810605850142224  0.037596601652525985  1.0000
  H   H664      1.0  0.9225736401777132  0.5301721237831596  0.03279742022702825  1.0000
  H   H665      1.0  0.8703410304880236  0.5207948914421471  0.03682185822409667  1.0000
  H   H666      1.0  0.8524111186138587  0.4517343494029206  0.0646382451487082  1.0000
  H   H667      1.0  0.8307956027437424  0.4925648708763743  0.0648475774647228  1.0000
  H   H668      1.0  0.8541572802726216  0.4777074851686793  0.08044721987152847  1.0000
  N   N38       1.0  0.91782334490669  0.16185443823879545  0.7010078609806086  1.0000
  C   C485      1.0  0.9375080732791937  0.1936508928689287  0.7073219468933876  1.0000
  C   C486      1.0  0.9434114151700731  0.13483977390407473  0.6985278080633658  1.0000
  C   C487      1.0  0.9093422280418003  0.17850356816156818  0.6855560061960747  1.0000
  C   C488      1.0  0.881032404725199  0.14040344934285132  0.7126652016955864  1.0000
  H   H669      1.0  0.9188438062478763  0.2143360958492839  0.7095424816328457  1.0000
  H   H670      1.0  0.9649163527873881  0.21104374670119422  0.6987062545666761  1.0000
  H   H671      1.0  0.9448951946613183  0.18213505141777034  0.7188435226281995  1.0000
  H   H672      1.0  0.9498040016888174  0.1210420056441595  0.7099706222838501  1.0000
  H   H673      1.0  0.9301226617884087  0.11115414777365827  0.6932827059515815  1.0000
  H   H674      1.0  0.9718149250364201  0.15030350010967805  0.6901593638641526  1.0000
  H   H675      1.0  0.8904993369994441  0.1994317306020007  0.6869582303344458  1.0000
  H   H676      1.0  0.8940883473694993  0.1553704315067125  0.6805310514794203  1.0000
  H   H677      1.0  0.9365076484922744  0.1945336393920334  0.6764119424469679  1.0000
  H   H678      1.0  0.8621239327104261  0.16047515056250178  0.7155235887196322  1.0000
  H   H679      1.0  0.886476358051711  0.12587281115501714  0.7241983295634178  1.0000
  H   H680      1.0  0.8642371070129247  0.11754234246074388  0.7079310568162254  1.0000
  N   N39       1.0  0.2822985246764534  0.8378789582600146  0.6407826395997998  1.0000
  C   C489      1.0  0.28303194026320533  0.8686801827679631  0.6267680680872602  1.0000
  C   C490      1.0  0.30842158089956206  0.8131655863038048  0.6356713347863211  1.0000
  C   C491      1.0  0.24217327927020543  0.8136945873062795  0.6473528594982049  1.0000
  C   C492      1.0  0.29560991629742717  0.8559257784330427  0.6532885509525572  1.0000
  H   H681      1.0  0.3128405350353008  0.8874403333772943  0.6215062983297707  1.0000
  H   H682      1.0  0.26412195396743393  0.8883243947882271  0.6301014232339669  1.0000
  H   H683      1.0  0.27279526067280196  0.8562225883744498  0.6171583269269347  1.0000
  H   H684      1.0  0.3002133623362776  0.8003209995051507  0.6258103608427563  1.0000
  H   H685      1.0  0.3392869526935711  0.8300706875677645  0.6314648236358993  1.0000
  H   H686      1.0  0.3074906486052825  0.7886727361695834  0.6457352054459117  1.0000
  H   H687      1.0  0.24053561461821168  0.7902803064540211  0.6580032592298403  1.0000
  H   H688      1.0  0.23101771335180746  0.7995391321661948  0.6383132376119407  1.0000
  H   H689      1.0  0.22176287339642556  0.8314001933362872  0.6513834816490461  1.0000
  H   H690      1.0  0.2783732318204213  0.8769497008225938  0.6566078935621051  1.0000
  H   H691      1.0  0.3267004339988377  0.8720253045663945  0.6492785651538728  1.0000
  H   H692      1.0  0.29274218609664315  0.8336453239594154  0.6644849621042894  1.0000
  N   N40       1.0  0.4368959404415131  0.7745396560229544  0.2680163604221466  1.0000
  C   C493      1.0  0.399014925654064  0.7774396715400343  0.2642939824146034  1.0000
  C   C494      1.0  0.4304915197069521  0.7441560038900112  0.2829086702491169  1.0000
  C   C495      1.0  0.4566996686554949  0.8124742734531354  0.27021580174865717  1.0000
  C   C496      1.0  0.46134887530808233  0.7642224630527464  0.25461462446416777  1.0000
  H   H693      1.0  0.4021994609154602  0.8029754134140124  0.25433102097657234  1.0000
  H   H694      1.0  0.37844999866747925  0.7812702647281677  0.27474206099818066  1.0000
  H   H695      1.0  0.38494923658542407  0.7509599943715639  0.2608216110216451  1.0000
  H   H696      1.0  0.45838940652387483  0.7413005637943041  0.2862051759475372  1.0000
  H   H697      1.0  0.41222457999414813  0.7510219217865488  0.293300819639072  1.0000
  H   H698      1.0  0.41545397890115904  0.715169319549673  0.2817049662255357  1.0000
  H   H699      1.0  0.483537925414978  0.8106396643316457  0.27453671497087795  1.0000
  H   H700      1.0  0.4376457597392199  0.8226195939833526  0.2792370422557379  1.0000
  H   H701      1.0  0.46474677437585205  0.8355134487398792  0.25886544620987506  1.0000
  H   H702      1.0  0.44700807274802107  0.7362052333979161  0.2523382240491017  1.0000
  H   H703      1.0  0.48973472083214675  0.7609191626428798  0.2571704911631499  1.0000
  H   H704      1.0  0.467608089762957  0.7871112750119281  0.24329696138095763  1.0000
  N   N41       1.0  0.9127521254903115  0.05246533500836237  0.8957417023869845  1.0000
  C   C497      1.0  0.8705753322422524  0.050104709304925166  0.8976690869002697  1.0000
  C   C498      1.0  0.9285246324596643  0.0430227827471632  0.880402717357825  1.0000
  C   C499      1.0  0.9190493366092235  0.02446400369397983  0.909203668419439  1.0000
  C   C500      1.0  0.9329427873214572  0.09235932988812778  0.8957209969567898  1.0000
  H   H705      1.0  0.8578852098542767  0.057926145791191264  0.9089561535569104  1.0000
  H   H706      1.0  0.8542038556170238  0.020358783924578683  0.8978932367357261  1.0000
  H   H707      1.0  0.8647252437578572  0.0707796424756888  0.8876844923960853  1.0000
  H   H708      1.0  0.960453510959274  0.045176110007196346  0.8784307129895847  1.0000
  H   H709      1.0  0.9141658102443202  0.013080334163911633  0.8799580324669856  1.0000
  H   H710      1.0  0.924306875461018  0.06360274480159611  0.8699757163246411  1.0000
  H   H711      1.0  0.950623647809421  0.025671320907812323  0.9081183430591407  1.0000
  H   H712      1.0  0.9042707681502421  0.9939989757077948  0.909585658778855  1.0000
  H   H713      1.0  0.9074676016668496  0.030822608092166748  0.9209496295647684  1.0000
  H   H714      1.0  0.9649399786192285  0.0955196980739823  0.8940925884868667  1.0000
  H   H715      1.0  0.9215986441358763  0.10076574997350352  0.9070281252519095  1.0000
  H   H716      1.0  0.9287157117718502  0.11407296451365401  0.8857407735889823  1.0000
  N   N42       1.0  0.08534325257232149  0.14446732164666864  0.5596579336945662  1.0000
  C   C501      1.0  0.11686180124604066  0.16368382068767215  0.5452139585633129  1.0000
  C   C502      1.0  0.0821522987022088  0.1019051513525041  0.5632714580818956  1.0000
  C   C503      1.0  0.048066672480895835  0.15245429523339307  0.5568418717381174  1.0000
  C   C504      1.0  0.094292034421008  0.15986978839629826  0.5734085176404825  1.0000
  H   H717      1.0  0.11105038057066056  0.15276907175413634  0.5345799586259652  1.0000
  H   H718      1.0  0.14536128413688093  0.15822577659526996  0.5470086433038883  1.0000
  H   H719      1.0  0.12003498929821804  0.19584187104713555  0.5422563562504016  1.0000
  H   H720      1.0  0.05864491162541354  0.08652406262550885  0.5741554014709846  1.0000
  H   H721      1.0  0.07561207700612746  0.08906479780103758  0.5531713581792338  1.0000
  H   H722      1.0  0.10952686468482253  0.09480747867549728  0.5658261100314578  1.0000
  H   H723      1.0  0.04030781688811452  0.14158403161660682  0.5464756810742735  1.0000
  H   H724      1.0  0.04907053348339854  0.1842632200102328  0.5544946525493849  1.0000
  H   H725      1.0  0.023712155643626987  0.13824742142305163  0.5675167213780202  1.0000
  H   H726      1.0  0.07124311579269207  0.1454827218750036  0.5844173072689337  1.0000
  H   H727      1.0  0.09604255887073489  0.19176376733318765  0.571399763495063  1.0000
  H   H728      1.0  0.12212320444774684  0.15431311548009818  0.576027666159044  1.0000
  N   N43       1.0  0.9020054548409782  0.28669088749647137  0.9037788551956237  1.0000
  C   C505      1.0  0.8685457522267048  0.25704610824826357  0.9026977130106312  1.0000
  C   C506      1.0  0.9230619757004538  0.26839418736153975  0.9149512354052142  1.0000
  C   C507      1.0  0.8878906779579663  0.31848452958853835  0.9097861020684769  1.0000
  C   C508      1.0  0.9285430453624134  0.3026535268179516  0.8877004259279172  1.0000
  H   H729      1.0  0.8475779742442946  0.24446905460835025  0.9145427439245806  1.0000
  H   H730      1.0  0.8781125778121691  0.2324852353050072  0.8983008713995934  1.0000
  H   H731      1.0  0.8521394492815914  0.26973463004041703  0.8942661834272897  1.0000
  H   H732      1.0  0.9038430292560587  0.256091024626733  0.9272020737523483  1.0000
  H   H733      1.0  0.9339061696147442  0.24413875184310022  0.9107971346198782  1.0000
  H   H734      1.0  0.9486338029802485  0.2898899010248217  0.916013005626437  1.0000
  H   H735      1.0  0.9123480744764134  0.3413265325414735  0.9108139657029949  1.0000
  H   H736      1.0  0.8673988055204488  0.3074095625663486  0.9218168985415726  1.0000
  H   H737      1.0  0.8720812973332949  0.3331104297302858  0.9015889121489254  1.0000
  H   H738      1.0  0.9540201100768949  0.325444866520977  0.8879120127211758  1.0000
  H   H739      1.0  0.9136213250710117  0.31627930903739204  0.8788409656163784  1.0000
  H   H740      1.0  0.9398639662723802  0.2795165506437881  0.8828118585092768  1.0000
  N   N44       1.0  0.9125695477790711  0.2864866827431131  0.3051491674574162  1.0000
  C   C509      1.0  0.9275669691107531  0.30915099882619007  0.28833266785048095  1.0000
  C   C510      1.0  0.8789368526482868  0.299901009189841  0.31280713226222273  1.0000
  C   C511      1.0  0.9435056464563891  0.2921625003530011  0.31405580732908345  1.0000
  C   C512      1.0  0.9001804233380546  0.2446470628939877  0.3054589253079327  1.0000
  H   H741      1.0  0.9526409839617686  0.2994795222337636  0.2821082655263104  1.0000
  H   H742      1.0  0.9377482928468469  0.3408364846347944  0.28765382737411493  1.0000
  H   H743      1.0  0.9046748834951014  0.30605814255451275  0.28135893860056577  1.0000
  H   H744      1.0  0.8545637110534721  0.29511447090553145  0.3066784776711057  1.0000
  H   H745      1.0  0.8674411382992606  0.28394997045318937  0.3256310951089774  1.0000
  H   H746      1.0  0.8870933159481142  0.33143463155536884  0.31261157194913625  1.0000
  H   H747      1.0  0.9690523233440788  0.28157885769615576  0.3088878922122979  1.0000
  H   H748      1.0  0.932661880639251  0.27652493255747557  0.3269373215739068  1.0000
  H   H749      1.0  0.9540086502931208  0.32348268014547277  0.3138450091781631  1.0000
  H   H750      1.0  0.924618174170948  0.23342826664901897  0.2996826450502127  1.0000
  H   H751      1.0  0.8762792114378267  0.23915719322673035  0.2991108440908714  1.0000
  H   H752      1.0  0.8888041610821287  0.22677292878887811  0.3180038271457211  1.0000
  N   N45       1.0  0.593737996890057  0.5496852308015875  0.15560963500062058  1.0000
  C   C513      1.0  0.5915214601055818  0.5263647710237811  0.1717915437807864  1.0000
  C   C514      1.0  0.5720916158202648  0.5802823553155566  0.1570342078246046  1.0000
  C   C515      1.0  0.5764285599009662  0.524135897551158  0.14610648287290678  1.0000
  C   C516      1.0  0.6348678138018429  0.5682028128073248  0.14750084463762786  1.0000
  H   H753      1.0  0.6071231574854307  0.5025737591604453  0.17116043021250946  1.0000
  H   H754      1.0  0.5607997419929304  0.5127315407197524  0.1783941734080552  1.0000
  H   H755      1.0  0.6046971225042204  0.5447533210698885  0.1792101521531472  1.0000
  H   H756      1.0  0.573185236362419  0.5983792833121214  0.14506309216683327  1.0000
  H   H757      1.0  0.5409399284557814  0.5675539735588561  0.16318537391826454  1.0000
  H   H758      1.0  0.5845912603769883  0.6001397590524615  0.16406100581351876  1.0000
  H   H759      1.0  0.5774378979953115  0.5409773651143085  0.13386001415194393  1.0000
  H   H760      1.0  0.5454399692885722  0.5096437903122641  0.15194934174126237  1.0000
  H   H761      1.0  0.5922446294017842  0.5007988875274481  0.14468897875066755  1.0000
  H   H762      1.0  0.6377268087098332  0.5849511248114874  0.1350677540845234  1.0000
  H   H763      1.0  0.6524488465160695  0.5461506104402584  0.14668759794853584  1.0000
  H   H764      1.0  0.6484445064393229  0.588807431073495  0.154013790942779  1.0000
  N   N46       1.0  0.844036846090969  0.2562119124969607  0.12451045677488337  1.0000
  C   C517      1.0  0.8631113607404949  0.23191438417203658  0.13466583570358925  1.0000
  C   C518      1.0  0.8614292386826663  0.297880744112137  0.12296645064343936  1.0000
  C   C519      1.0  0.8019757311961709  0.24737297359099492  0.13196877904163729  1.0000
  C   C520      1.0  0.8495240012291464  0.2475467792909202  0.10845335790963717  1.0000
  H   H765      1.0  0.8950033988109085  0.2381291224934638  0.1294708430661733  1.0000
  H   H766      1.0  0.8508251735007338  0.20028355526108763  0.13603507653304248  1.0000
  H   H767      1.0  0.8592435184834791  0.23752870917876961  0.1469138481796941  1.0000
  H   H768      1.0  0.8495846918868406  0.31713412472612185  0.11454619030013102  1.0000
  H   H769      1.0  0.8560187457295293  0.30584820494012677  0.13476654146987466  1.0000
  H   H770      1.0  0.8935541843631948  0.30491239136410364  0.11832862520078069  1.0000
  H   H771      1.0  0.7863403733541245  0.26431108265096653  0.12443567749871853  1.0000
  H   H772      1.0  0.7964602273031429  0.2542063979356437  0.143968153019832  1.0000
  H   H773      1.0  0.7881873205882108  0.21592331693066955  0.13364615909525646  1.0000
  H   H774      1.0  0.8351811751872236  0.26514757345329953  0.10051481260239026  1.0000
  H   H775      1.0  0.8368663844137884  0.2163364727423296  0.10913384260835657  1.0000
  H   H776      1.0  0.8809021452231535  0.2542724774086242  0.10229427374907396  1.0000
  N   N47       1.0  0.5514436662846317  0.003503287011894285  0.6544437292296656  1.0000
  C   C521      1.0  0.537767975419687  0.03360824425770503  0.6444176095304341  1.0000
  C   C522      1.0  0.536344481759684  0.0019378290010860777  0.6715926625229244  1.0000
  C   C523      1.0  0.5944919018052053  0.013471801447789922  0.6505643849479936  1.0000
  C   C524      1.0  0.537096169334946  0.9650729092005299  0.6511805822438342  1.0000
  H   H777      1.0  0.5479344611559591  0.06291509705805365  0.6466479106791915  1.0000
  H   H778      1.0  0.5053808871632497  0.027074204471728924  0.6469718017106562  1.0000
  H   H779      1.0  0.5484845982016016  0.035486205273847826  0.6314072749083753  1.0000
  H   H780      1.0  0.5476238837165904  0.02990175470253975  0.6747003517301065  1.0000
  H   H781      1.0  0.5039595642867627  0.9958094054430554  0.6747444074095457  1.0000
  H   H782      1.0  0.5445861883406095  0.9783786234761895  0.6795224361516957  1.0000
  H   H783      1.0  0.6060066456939653  0.9910649826175019  0.657575201694186  1.0000
  H   H784      1.0  0.6063577474093962  0.04193792108324046  0.6531805562589407  1.0000
  H   H785      1.0  0.6069392347900893  0.015756307764652533  0.637638120099007  1.0000
  H   H786      1.0  0.5461364969270093  0.9414251657318617  0.6587930698819815  1.0000
  H   H787      1.0  0.5482439146029456  0.9648333201249728  0.6384237869776683  1.0000
  H   H788      1.0  0.5047187784785796  0.9570919841508794  0.6537395976305964  1.0000
  N   N48       1.0  0.8226897076723901  0.29632694121688474  0.823565629528192  1.0000
  C   C525      1.0  0.7968957677132418  0.3223889278045884  0.8197181206434496  1.0000
  C   C526      1.0  0.7994726356949262  0.2599995805667479  0.8351200646049478  1.0000
  C   C527      1.0  0.8526187130463093  0.3160434591865722  0.830730073495295  1.0000
  C   C528      1.0  0.8417904750495458  0.2868951437982368  0.8087153974718572  1.0000
  H   H789      1.0  0.7746151717907466  0.30880534818797023  0.8138678787192971  1.0000
  H   H790      1.0  0.8137668695489306  0.35044243339456616  0.811324813655672  1.0000
  H   H791      1.0  0.7812869936773915  0.32932650905253835  0.8306996500644964  1.0000
  H   H792      1.0  0.7851674195610847  0.2658625721869827  0.8465869462244989  1.0000
  H   H793      1.0  0.7764489330539655  0.24440062937314444  0.8301430288474406  1.0000
  H   H794      1.0  0.8181363468063172  0.23960694111319847  0.8381021648822121  1.0000
  H   H795      1.0  0.8722267603626424  0.29699754386568555  0.8340571592211024  1.0000
  H   H796      1.0  0.83925300048205  0.32396924017557716  0.8418637128283956  1.0000
  H   H797      1.0  0.8712544161426562  0.34327828418552153  0.822257713905802  1.0000
  H   H798      1.0  0.8200075411960224  0.27214982300073554  0.8029281018147332  1.0000
  H   H799      1.0  0.8612579310114397  0.26695293828774114  0.811221946314887  1.0000
  H   H800      1.0  0.8598857994178667  0.313652264221826  0.7997715213403415  1.0000
  N   N49       1.0  0.39328111390838155  0.5816493826527861  0.24864823104123168  1.0000
  C   C529      1.0  0.35776767804961  0.5638582478904972  0.2615832722052749  1.0000
  C   C530      1.0  0.38226648915179057  0.596463290672614  0.23357588514508065  1.0000
  C   C531      1.0  0.4158485528217646  0.5520517374904881  0.24628557899427295  1.0000
  C   C532      1.0  0.4172924749040112  0.6142826188143541  0.2531062213583537  1.0000
  H   H801      1.0  0.36507757625371795  0.552281259088001  0.27312486837495226  1.0000
  H   H802      1.0  0.33872291734949467  0.5394287834328219  0.25853128573846196  1.0000
  H   H803      1.0  0.3401396626136772  0.5854963466494838  0.26368393584449423  1.0000
  H   H804      1.0  0.40836068137102816  0.6097621288387713  0.22352581994369639  1.0000
  H   H805      1.0  0.3637614371631112  0.572871794964265  0.22983601551469865  1.0000
  H   H806      1.0  0.3655158098023199  0.6191727628429977  0.23475166685798418  1.0000
  H   H807      1.0  0.442483751358116  0.564391742017285  0.23639350732387382  1.0000
  H   H808      1.0  0.39844780453636147  0.5267674446354411  0.24311102425346354  1.0000
  H   H809      1.0  0.4254350454766228  0.5407741679332473  0.25732640125880857  1.0000
  H   H810      1.0  0.44394806606506676  0.6288061624221043  0.24345442400249911  1.0000
  H   H811      1.0  0.4269684777549627  0.6039753122752897  0.2642428804268773  1.0000
  H   H812      1.0  0.400751690034559  0.6367644432431296  0.2552507547165061  1.0000
  N   N50       1.0  0.6682144752966797  0.2634474477351782  0.542183653489805  1.0000
  C   C533      1.0  0.627015061279257  0.24509518407521358  0.550247040898374  1.0000
  C   C534      1.0  0.6875833046032594  0.2819468557537103  0.5532760912722762  1.0000
  C   C535      1.0  0.6704188563026562  0.2933495726165881  0.5276228537546924  1.0000
  C   C536      1.0  0.6879241532001448  0.23335433639689354  0.5375953799620423  1.0000
  H   H813      1.0  0.6115779815240346  0.2305264741633864  0.5422737706284085  1.0000
  H   H814      1.0  0.6112047420762505  0.26702317630097183  0.5538047331242056  1.0000
  H   H815      1.0  0.6245258766366983  0.22263372097008288  0.5613589936788921  1.0000
  H   H816      1.0  0.7186131238931022  0.29648245784042976  0.5475078080681006  1.0000
  H   H817      1.0  0.6733602436522906  0.3045966222137847  0.5571367126457811  1.0000
  H   H818      1.0  0.6870901222764731  0.260168136706174  0.564298786011573  1.0000
  H   H819      1.0  0.7012215181515622  0.30770188570069457  0.5212954332379977  1.0000
  H   H820      1.0  0.6560445461060647  0.3166975200476798  0.5305934238407237  1.0000
  H   H821      1.0  0.6564210183586775  0.2804098024997328  0.518900539462273  1.0000
  H   H822      1.0  0.7191780293328058  0.24623313192713928  0.5316994752112087  1.0000
  H   H823      1.0  0.6746991164876124  0.21926603342054451  0.528960255472831  1.0000
  H   H824      1.0  0.6866701773398222  0.21009317043001738  0.548246662522721  1.0000
  N   N51       1.0  0.6965265435963977  0.25934476147595725  0.010218831710271381  1.0000
  C   C537      1.0  0.6726002475845853  0.22786614258060434  0.005111331557860144  1.0000
  C   C538      1.0  0.7052410486627427  0.29607719326071147  0.9978058641120437  1.0000
  C   C539      1.0  0.7332970287309438  0.2488963225152844  0.012365019634697383  1.0000
  C   C540      1.0  0.6750594767422988  0.26455383800573057  0.025566645008294753  1.0000
  H   H825      1.0  0.6882232829343418  0.22323462418340284  0.9935783594542662  1.0000
  H   H826      1.0  0.644738514883952  0.23491226305657378  0.003245633203784015  1.0000
  H   H827      1.0  0.6653703628065193  0.19973615995010938  0.014235569516345414  1.0000
  H   H828      1.0  0.723536278597847  0.32045100841874047  0.0011931578742259141  1.0000
  H   H829      1.0  0.7214287874958578  0.2932131332462852  0.9860514024028056  1.0000
  H   H830      1.0  0.6782751078482431  0.3050700055107045  0.9958435876528804  1.0000
  H   H831      1.0  0.7520270318113943  0.2719106828204912  0.01626128252402048  1.0000
  H   H832      1.0  0.7506980718152303  0.24531798361257243  0.0009744706477994303  1.0000
  H   H833      1.0  0.7280202912676459  0.2213276876790643  0.02163158264234788  1.0000
  H   H834      1.0  0.6690436395008648  0.23785480694869918  0.03539518842366496  1.0000
  H   H835      1.0  0.6467756145426043  0.27172481963689044  0.024541583764052577  1.0000
  H   H836      1.0  0.6920706891348924  0.28868156307453563  0.029552307578470494  1.0000
  N   N52       1.0  0.11570229427031314  0.9241609273888125  0.8172488462598705  1.0000
  C   C541      1.0  0.11028712385865191  0.8813368528309776  0.8212008185368312  1.0000
  C   C542      1.0  0.09067895770300541  0.9359361362718146  0.8300435060291356  1.0000
  C   C543      1.0  0.10500550594322425  0.9364781801398305  0.801849597979097  1.0000
  C   C544      1.0  0.15689125702702975  0.9428872759312116  0.815890816114603  1.0000
  H   H837      1.0  0.1290769506484352  0.871679984858481  0.8117692821907943  1.0000
  H   H838      1.0  0.07967448487031388  0.8659911588309877  0.8222563156852757  1.0000
  H   H839      1.0  0.11822275455229943  0.8708215159444632  0.8327177977537358  1.0000
  H   H840      1.0  0.09408234649283749  0.9681471007878041  0.8272710684698966  1.0000
  H   H841      1.0  0.05937500469183927  0.9222112322848738  0.8314726895825555  1.0000
  H   H842      1.0  0.0981982632949176  0.9272553975851939  0.8418060882821021  1.0000
  H   H843      1.0  0.11049685860419416  0.9688014601184458  0.7980613377072372  1.0000
  H   H844      1.0  0.07372511726270808  0.92414019509595  0.802622084346097  1.0000
  H   H845      1.0  0.12226396408093855  0.9266225505445247  0.7920819099680436  1.0000
  H   H846      1.0  0.17667574702555147  0.9343720175932575  0.8064799194236845  1.0000
  H   H847      1.0  0.16595295931242604  0.9344383954830162  0.8273110158473379  1.0000
  H   H848      1.0  0.1624949279690227  0.9752716246926516  0.8126123160451909  1.0000
  N   N53       1.0  0.5495797164107692  0.7974374965134979  0.3209935579470513  1.0000
  C   C545      1.0  0.5414642187190191  0.8039551137489799  0.3048317408352607  1.0000
  C   C546      1.0  0.5684725056945688  0.7643570028520338  0.3233369957459103  1.0000
  C   C547      1.0  0.512652170301455  0.7885673067422772  0.3332852895423109  1.0000
  C   C548      1.0  0.5757099290817891  0.8329918570962782  0.3225122127468095  1.0000
  H   H849      1.0  0.5214744044614052  0.7778831262678255  0.303345189705224  1.0000
  H   H850      1.0  0.5686019077964302  0.8106914948539855  0.2952249496648677  1.0000
  H   H851      1.0  0.5271004550380354  0.8285728817452995  0.3027162479876665  1.0000
  H   H852      1.0  0.5961655984819387  0.769828047273992  0.3141354113803208  1.0000
  H   H853      1.0  0.5752352007894797  0.7586580227302581  0.33537183717081104  1.0000
  H   H854      1.0  0.5493149257060526  0.7369859402367711  0.3224393975856509  1.0000
  H   H855      1.0  0.4916084498153195  0.7626887939504645  0.33219239888935204  1.0000
  H   H856      1.0  0.498054261714302  0.8132794513688789  0.33206751835924236  1.0000
  H   H857      1.0  0.5174366555904022  0.7824512702975143  0.3456443005059278  1.0000
  H   H858      1.0  0.582997137370507  0.8289188937534792  0.3344661834440724  1.0000
  H   H859      1.0  0.5618926767057446  0.8582775806750663  0.32116373047551505  1.0000
  H   H860      1.0  0.6035095772585644  0.8412060803567623  0.31317688970032875  1.0000
  N   N54       1.0  0.2632620713010986  0.5458736198153309  0.6766405540748321  1.0000
  C   C549      1.0  0.2904937562212248  0.5282761919890051  0.6671015843218382  1.0000
  C   C550      1.0  0.27444750751705654  0.5887546020012153  0.670656948328407  1.0000
  C   C551      1.0  0.26486760949986476  0.5355921751112711  0.6936924763960537  1.0000
  C   C552      1.0  0.2232122855815934  0.530876263813249  0.6751370963775198  1.0000
  H   H861      1.0  0.28285312915673955  0.49592056770180415  0.671299493860711  1.0000
  H   H862      1.0  0.32095060250651425  0.5390462255166072  0.6680312725150467  1.0000
  H   H863      1.0  0.28998757886937904  0.5354321810051572  0.6541689518415504  1.0000
  H   H864      1.0  0.3039442817667699  0.6013807101931807  0.6721699784432195  1.0000
  H   H865      1.0  0.2742953153204477  0.5976570433618363  0.6577516450201697  1.0000
  H   H866      1.0  0.2540327336177365  0.6028937601341526  0.6773740217430263  1.0000
  H   H867      1.0  0.24374362068413538  0.5473301543855456  0.7012956955978802  1.0000
  H   H868      1.0  0.29413274636933484  0.5480528983245094  0.6954667151710561  1.0000
  H   H869      1.0  0.25771696167463565  0.503474124422605  0.6985227919077147  1.0000
  H   H870      1.0  0.20202440259765114  0.5436024691654213  0.6822269891013382  1.0000
  H   H871      1.0  0.21339538538052014  0.49864735921678394  0.679663650355401  1.0000
  H   H872      1.0  0.220529938087999  0.5381381047733286  0.6624794547611993  1.0000
  N   N55       1.0  0.2745321855489705  0.9372088836166989  0.717834884989772  1.0000
  C   C553      1.0  0.23530004919923742  0.9368178084669856  0.7150834588061061  1.0000
  C   C554      1.0  0.3001342020850661  0.9763455898921052  0.710318893654463  1.0000
  C   C555      1.0  0.2903504020699494  0.9077227835191836  0.7106879091289724  1.0000
  C   C556      1.0  0.2720861149243885  0.9279189822268066  0.7352553892134905  1.0000
  H   H873      1.0  0.2155471026316801  0.9072471594198838  0.7195901137222382  1.0000
  H   H874      1.0  0.23668098507639282  0.9459370564661025  0.7021521029490968  1.0000
  H   H875      1.0  0.2217084600119042  0.957437234110067  0.7209467284522573  1.0000
  H   H876      1.0  0.3300418242644509  0.9779653891475374  0.7120255414430616  1.0000
  H   H877      1.0  0.30240465492259805  0.9841620421256402  0.697137513217773  1.0000
  H   H878      1.0  0.28877471869938304  0.9991650593942997  0.7154241454642684  1.0000
  H   H879      1.0  0.31952696567793915  0.9065672948602271  0.7129584937863278  1.0000
  H   H880      1.0  0.29344793079017734  0.9141004235343081  0.6974745598249957  1.0000
  H   H881      1.0  0.27084981555224413  0.8780940865765834  0.7157215331326862  1.0000
  H   H882      1.0  0.301060955939249  0.9279173662141378  0.7377876056281609  1.0000
  H   H883      1.0  0.25310522783222517  0.898423552923952  0.7411366007714825  1.0000
  H   H884      1.0  0.26013208066877436  0.9493942282322309  0.7411459963886732  1.0000
  N   N56       1.0  0.020855290472046484  0.5899851089797995  0.8210107106520481  1.0000
  C   C557      1.0  0.0201379585827266  0.5583165919381374  0.8347016769655443  1.0000
  C   C558      1.0  0.0595059433761953  0.6175622783876742  0.8160666910367063  1.0000
  C   C559      1.0  0.9905240787383979  0.6107856103461982  0.8258287354549865  1.0000
  C   C560      1.0  0.0130343639848578  0.5731016310287943  0.8074467677426282  1.0000
  H   H885      1.0  0.04251233582977321  0.5418400734905484  0.8314666947777204  1.0000
  H   H886      1.0  0.9912476916305182  0.5370360506656009  0.8386602078493933  1.0000
  H   H887      1.0  0.025829748108013417  0.5699381722598164  0.845195044406457  1.0000
  H   H888      1.0  0.06104599105715747  0.6414932365649483  0.8056136072190817  1.0000
  H   H889      1.0  0.06617101340059572  0.6314841236258424  0.8258975393024991  1.0000
  H   H890      1.0  0.08314320861869962  0.6027867558397686  0.8124727726177186  1.0000
  H   H891      1.0  0.9901938604864122  0.6348562784866377  0.815792691041999  1.0000
  H   H892      1.0  0.9954729930018289  0.6240039701496817  0.8360254127055563  1.0000
  H   H893      1.0  0.9609412935610079  0.5908179798667723  0.829529241134343  1.0000
  H   H894      1.0  0.013654018702750736  0.5960500013863613  0.7968475027320339  1.0000
  H   H895      1.0  0.9837804756004067  0.5528321926709207  0.8107259988530643  1.0000
  H   H896      1.0  0.03497516693873237  0.5566996205646274  0.8035554948948638  1.0000
