data_image0
_chemical_formula_structural       HCS2NH2CH2CH2CH2C2H5C3SH2C2H2CHCHS2H2NH4FeC2HCHFeSHCHCH4CHSH3FeC2SHC2HC2Fe2S2HCH4CNH2C2HCH2S2H2SFeCHCSHC3S2HCSH2SFeH5CN2CFeCHSHCSFeHSH2CH3C2S2H2C2H2CH3C2HC2FeHSC2H3S2CFeCHCHFeHCSFeH4FeCHCS4H3CFeS2HSFeNH4SHCH2CHCFeS2FeSFeSFeS3C6H4CSH3C7H4C6H4C3NHSH3C2HSCFeHCNC4H13CH2CHFeNCSC2HCSH2SH3CHCSCH3Fe2HCHNSH2CH2SCHSCHSCHFeH2CSNH5FeSHCHCSCH2CHC4HSC2H2FeH3SCHFeH2CSH4C2H2SHCSH2CHC2H2FeCH2CH2CSCSHSHCHCH5CHCH4CHCH3CH3SH2CHSCH2SNH2C4SNH2CH2C3HC2SCFeHC2HC2H4FeS2H2CHCHFeHSCH2SHCHC3H4SC2HSFeSHCH4FeSHFeHSCH6SNCFeHC3SNC4H2SH12CHCH5C2H4SFeSCHC3SCH2FeS2CHCH2CHC2HCHC2HC2H2C2HCHNHNCHCSCHCH3NHCH2FeNCH2C2H4FeCH4SCHC2HCFeHCSC3HFe2HC2HCH2SFeH2FeHNH2NS2CH4CSHCHCSC2H4CH10FeH2S2H2C4S2H3NHCH2CHCH2C2H4CSNH5C3S2NSHCSCHFeSHC4HC2SCNC4FeHCSFe2CFeHSHCFeH3SCHCH2CHC3HCH4FeH2CHFeHC2SH8CHCFe2HSHCH2SCH4SCNFeSH3SCNFeH6FeS2FeSFeSFeS3H2CH2SHSCSFeCH2C2HC4SH2FeC6H4CH3CH4NH2CHNC4H4SH3CH3CH6C2SHC2H2C3SH4CFeC2H2CHSHNHCHC2H2CH5CSH2CHCHC2SH2CHFeHFeS2FeS2Fe2S3FeCSFeSHFeSCSFeC2HSC6H4C4H3C3H2CNC2H4CH9NC4H8SC3NCHNH2CH3S2C2SH2C2FeHFeCSCHC2H2CNHCSCHCSC2H2CH2SCSC2SH2C3HSHFeH5C2H2FeH2CH2CH2C3HCH5CHCHCH2NH3C3HCHCH2CH4FeSNH2CHCH3FeH4CHSHCH2NHCHCFeHC3HCH8SC2HSH2CH3CH2SH3CHCSH2C3H2CH3FeCS2H2C2HSCNSHCNCHCH2SHCH2CFeH2CH2CHCHSC3SHCH2CH4CH2CH2C2H5C3SFeH2SC3HSH4SCHSH3C2H2CHFeCHCFeHFeHC2SCH3CHSHNS2C2H3FeH4NHCHCSHCSCHCFeC5HFeC2H4SCHCH4C2FeHSHCH2N2H5C2HFeH2CH3CH3SC2H3C2SHSCH5CH4NHCH3SHFeSCH3SFeS2FeS2FeSFeS3CHC7H3C6H9C6H4C6H3SHNFeH3CHCH2CNC4H6FeHSH4SHSHCSHCHSHFeHCHCFeNC4H13CHCNC2SFeHC2HSH2CHFe2CH3NSCFeSHCH5S2HC2SFeHSH2CFeHC2SH3SH3CFeHSC2H2C5HCH2C2HNHSH3SH3C2HFeHSFeCS2C2NCHNH2CSCHCHCHSC3H6CH2CHCHCH3SH3C2HCHCH2C2H3CS2H3S2CFeH2CSHSNFeC6NHSCHCH4SH4C2HFeS2CHCHCH2CHCHC3HNHSH2CFeHC2H2CHS2CH2SH2C2FeH3CHC3H2FeSH2CSH3FeC2HFeH5CHFeH8CHCH4CNH2C3H3C2H2FeSHFeHSFeS2FeSCFeHFeS3FeS2Fe2SFeS3HC6H5SC4SH3C6HCHC3HCH2C2HC3H2CH6C2HNC4H9CHSCSCHSCSH2SNCHCH2SH2CHSC2H5FeCFeH2CHFeH2FeCHSCNC2H2CSC2H5CH2CH2CHSH7SHNFeSH2SH2CH7CH4N2HCH2CSH3FeCH2CSH2S2HC2FeS3CFeHSHCHFeSH2SHCH2FeCH4NC6HCFeHC6H7FeCH2CFeC2HSHCHCHCFeSH3CS2CHSH3NCH2SH2CHSHSCS2HCHFeH5CHCH2C2SHCSHCS2HCFeH5CSC2NH2C3SH3CH2CHCSC2HNH3CHNC4H9CH2SFeCS2H4C2NCFeSFe2C2SCFeSH2C3HC3HCNH4CHC2NCHCHCHCH3SCH3S2CH2C2FeHCHSH5S2H3SH2C2HCHCH4SH3FeH2Fe2CHFeHCH2FeSFeS2Fe2CS2HSNFeHSH2C2SCHSH4CH2C2HC2HCHCHC2H2SNHCFe2C6HFeH5CH9SHCSCHCHCH2CHCH2FeHCHSCSHCHCH2NH3CH2NH3NSC2H5SHCHCNHCH2SC3H2CHCH2SC2HCH3FeC2HSHC2SCHCH3CHCH4FeHCH4CSHCH3FeCNC2HC2HC2Fe2HNSHCH4SHSH3CHFeC3H2FeCH5CSH5CHSFeNCHC3H2C2HCHSHSC2H4CHSCH3SH3C2HCHCHCHFeS2Fe2SFeSH2S2C2H3SHCHSCHCH2CH2C2HCH3NH3C2H3NH8CHC2H4SC4HCSC2HCHNC2H5C2H3SHC2H2C2HCH6CHCH2CHFeCH4SH2CHSHNH3FeCSH3CH2CHCH2CNC2NH4C2SCHC2HC2HFeCNFeCH6NH3CH2C2H3C3S2H2CH2C2HSHCH2FeCHC2HC3H6NC4SCH2CFeSCSHCHCH4CNH2CHS2CFe2CH4SCFeCSHC2H4CHCSNCSH5CH2SC2SHSHCH5C2Fe2CSH2CSC2FeS2CFeS2HCH2CSCH6NHNHCHCSHSFeH2CHCH2C3HSCHC2SHCHFeH2SH3SH2CNH4CHCHC2FeH2SCHC2H2CH5CFeH2CHC2HCSH4NC2H2C2HSCH3CHSCH2SCH4SFeCH3S2H3CHFeSH2CHSFe3CSH2C2HC2SHC2SNFeHCH2SH3CHCSC4SHCH2CHCHSHNCHCH4NH2FeCH9SFeCSCHCHSC2HCFeH4S2H4C2H2NH3NHSH2SCHSCH2C2H2SHFeCFeHCHC2HCHSH2CHSHCH2SHCHCH2C2HSCHC4H7FeH4CHS2HCH2CHNCHFeC2HN2H4SH2CHCH2SHCHSH2CH3NFeHSFeSH2CHSC2HCH2CH4C
_chemical_formula_sum              "H1664 C1040 S416 N104 Fe208"
_cell_length_a       59.1263
_cell_length_b       60.1337
_cell_length_c       64.5727
_cell_angle_alpha    76.6884
_cell_angle_beta     76.6004
_cell_angle_gamma    79.9307

_space_group_name_H-M_alt    "P 1"
_space_group_IT_number       1

loop_
  _space_group_symop_operation_xyz
  'x, y, z'

loop_
  _atom_site_type_symbol
  _atom_site_label
  _atom_site_symmetry_multiplicity
  _atom_site_fract_x
  _atom_site_fract_y
  _atom_site_fract_z
  _atom_site_occupancy
  H   H1        1.0  0.12738  0.14493  0.20715  1.0000
  C   C1        1.0  0.08896  0.26324  0.19642  1.0000
  S   S1        1.0  0.09552  0.28285  0.17201  1.0000
  S   S2        1.0  0.03337  0.13284  0.22297  1.0000
  N   N1        1.0  0.10001  0.17274  0.20104  1.0000
  H   H2        1.0  0.03560  0.09184  0.20630  1.0000
  H   H3        1.0  0.03679  0.05064  0.22447  1.0000
  C   C2        1.0  0.03543  0.08689  0.22354  1.0000
  H   H4        1.0  0.10251  0.19384  0.16893  1.0000
  H   H5        1.0  0.06280  0.24993  0.18614  1.0000
  C   C3        1.0  0.07185  0.24887  0.19919  1.0000
  H   H6        1.0  0.12992  0.15943  0.17922  1.0000
  H   H7        1.0  0.05269  0.22281  0.22094  1.0000
  C   C4        1.0  0.12464  0.16205  0.19628  1.0000
  H   H8        1.0  0.08867  0.15451  0.18097  1.0000
  H   H9        1.0  0.13680  0.17306  0.19863  1.0000
  C   C5        1.0  0.09386  0.17585  0.22380  1.0000
  C   C6        1.0  0.08438  0.15767  0.19784  1.0000
  H   H10       1.0  0.10772  0.20770  0.18899  1.0000
  H   H11       1.0  0.02998  0.29006  0.23233  1.0000
  H   H12       1.0  0.06568  0.16551  0.20094  1.0000
  H   H13       1.0  0.07850  0.20343  0.18881  1.0000
  H   H14       1.0  0.11343  0.27352  0.21132  1.0000
  C   C7        1.0  0.03594  0.06361  0.23383  1.0000
  C   C8        1.0  0.09711  0.19539  0.18629  1.0000
  C   C9        1.0  0.10031  0.26227  0.21340  1.0000
  S   S3        1.0  0.00887  0.01716  0.22143  1.0000
  H   H15       1.0  0.01426  0.31082  0.20174  1.0000
  H   H16       1.0  0.10478  0.18767  0.22681  1.0000
  C   C10       1.0  0.03461  0.10371  0.23558  1.0000
  C   C11       1.0  0.06611  0.23351  0.21894  1.0000
  H   H17       1.0  0.08547  0.14063  0.20915  1.0000
  H   H18       1.0  0.07524  0.18334  0.22812  1.0000
  C   C12       1.0  0.09484  0.24659  0.23302  1.0000
  H   H19       1.0  0.09627  0.15920  0.23540  1.0000
  C   C13       1.0  0.07769  0.23222  0.23584  1.0000
  H   H20       1.0  0.00572  0.25965  0.23688  1.0000
  S   S4        1.0  0.02100  0.19251  0.24029  1.0000
  S   S5        1.0  0.07070  0.21333  0.26083  1.0000
  H   H21       1.0  0.00578  0.25147  0.29576  1.0000
  H   H22       1.0  0.02666  0.04202  0.32914  1.0000
  N   N2        1.0  0.10096  0.99903  0.28509  1.0000
  H   H23       1.0  0.99539  0.30267  0.27228  1.0000
  H   H24       1.0  0.05012  0.27105  0.24727  1.0000
  H   H25       1.0  0.03370  0.11018  0.26717  1.0000
  H   H26       1.0  0.01354  0.04511  0.35656  1.0000
  Fe  Fe1       1.0  0.01806  0.00840  0.25438  1.0000
  C   C14       1.0  0.03564  0.07397  0.26797  1.0000
  C   C15       1.0  0.03576  0.08866  0.35147  1.0000
  H   H27       1.0  0.02426  0.09303  0.36603  1.0000
  C   C16       1.0  0.00958  0.25269  0.25340  1.0000
  H   H28       1.0  0.01512  0.98780  0.33282  1.0000
  Fe  Fe2       1.0  0.06951  0.00732  0.36080  1.0000
  S   S6        1.0  0.08374  0.03579  0.33452  1.0000
  H   H29       1.0  0.01168  0.01960  0.34783  1.0000
  C   C17       1.0  0.06583  0.06227  0.33384  1.0000
  H   H30       1.0  0.10374  0.24582  0.24610  1.0000
  C   C18       1.0  0.05038  0.09809  0.31273  1.0000
  H   H31       1.0  0.05144  0.05641  0.36817  1.0000
  H   H32       1.0  0.07521  0.99053  0.27049  1.0000
  H   H33       1.0  0.03596  0.06903  0.28511  1.0000
  H   H34       1.0  0.03622  0.24815  0.28307  1.0000
  C   C19       1.0  0.01124  0.03856  0.34253  1.0000
  H   H35       1.0  0.07711  0.07318  0.29930  1.0000
  S   S7        1.0  0.05146  0.15229  0.27060  1.0000
  H   H36       1.0  0.03647  0.29761  0.25533  1.0000
  H   H37       1.0  0.99831  0.01403  0.48736  1.0000
  H   H38       1.0  0.02511  0.23934  0.25187  1.0000
  Fe  Fe3       1.0  0.04286  0.19072  0.26483  1.0000
  C   C20       1.0  0.06570  0.07749  0.31392  1.0000
  C   C21       1.0  0.05103  0.06792  0.35268  1.0000
  S   S8        1.0  0.01261  0.19064  0.29314  1.0000
  H   H39       1.0  0.05003  0.10943  0.29727  1.0000
  C   C22       1.0  0.03605  0.05718  0.25606  1.0000
  C   C23       1.0  0.08237  0.98521  0.28566  1.0000
  H   H40       1.0  0.13435  0.00656  0.26532  1.0000
  C   C24       1.0  0.03536  0.10373  0.33144  1.0000
  C   C25       1.0  0.03346  0.28292  0.24893  1.0000
  Fe  Fe4       1.0  0.01902  0.15211  0.29687  1.0000
  Fe  Fe5       1.0  0.02658  0.15400  0.24867  1.0000
  S   S9        1.0  0.03641  0.02833  0.26933  1.0000
  S   S10       1.0  0.04034  0.00932  0.38988  1.0000
  H   H41       1.0  0.00380  0.07967  0.31652  1.0000
  C   C26       1.0  0.03451  0.09724  0.25781  1.0000
  H   H42       1.0  0.12420  0.00134  0.30554  1.0000
  H   H43       1.0  0.08551  0.03062  0.26723  1.0000
  H   H44       1.0  0.10390  0.03442  0.28452  1.0000
  H   H45       1.0  0.00166  0.04477  0.30278  1.0000
  C   C27       1.0  0.11025  0.99118  0.30531  1.0000
  N   N3        1.0  0.01388  0.27109  0.26321  1.0000
  H   H46       1.0  0.07527  0.02617  0.29597  1.0000
  H   H47       1.0  0.02324  0.27424  0.29255  1.0000
  C   C28       1.0  0.09109  0.02362  0.28305  1.0000
  C   C29       1.0  0.02001  0.26082  0.28462  1.0000
  H   H48       1.0  0.11375  0.00172  0.25075  1.0000
  C   C30       1.0  0.12017  0.99614  0.26629  1.0000
  H   H49       1.0  0.01812  0.03538  0.47796  1.0000
  H   H50       1.0  0.09634  0.99338  0.31977  1.0000
  S   S11       1.0  0.01511  0.12883  0.32989  1.0000
  S   S12       1.0  0.99479  0.15087  0.27527  1.0000
  H   H51       1.0  0.06730  0.98752  0.29934  1.0000
  H   H52       1.0  0.99447  0.24381  0.26346  1.0000
  S   S13       1.0  0.04614  0.99844  0.70708  1.0000
  Fe  Fe6       1.0  0.07910  0.00989  0.71035  1.0000
  C   C31       1.0  0.08705  0.09073  0.71478  1.0000
  H   H53       1.0  0.08288  0.00729  0.58166  1.0000
  C   C32       1.0  0.08613  0.01239  0.59615  1.0000
  S   S14       1.0  0.02671  0.03845  0.65527  1.0000
  H   H54       1.0  0.07522  0.06110  0.61705  1.0000
  C   C33       1.0  0.00811  0.02512  0.49277  1.0000
  C   C34       1.0  0.99499  0.03113  0.69376  1.0000
  C   C35       1.0  0.05111  0.03999  0.59829  1.0000
  S   S15       1.0  0.13859  0.99604  0.64123  1.0000
  S   S16       1.0  0.03651  0.99416  0.54652  1.0000
  H   H55       1.0  0.03715  0.08596  0.71893  1.0000
  C   C36       1.0  0.08786  0.05173  0.57686  1.0000
  S   S17       1.0  0.03309  0.98455  0.59939  1.0000
  H   H56       1.0  0.09541  0.05846  0.70386  1.0000
  H   H57       1.0  0.07770  0.00062  0.61077  1.0000
  S   S18       1.0  0.08621  0.03104  0.67651  1.0000
  Fe  Fe7       1.0  0.05458  0.01773  0.67284  1.0000
  H   H58       1.0  0.04651  0.03626  0.58379  1.0000
  H   H59       1.0  0.04219  0.02842  0.61281  1.0000
  H   H60       1.0  0.02029  0.10394  0.70015  1.0000
  H   H61       1.0  0.09541  0.10047  0.69948  1.0000
  H   H62       1.0  0.07363  0.03210  0.63126  1.0000
  C   C37       1.0  0.08692  0.06692  0.71718  1.0000
  N   N4        1.0  0.00079  0.09448  0.73276  1.0000
  N   N5        1.0  0.07678  0.03674  0.59682  1.0000
  C   C38       1.0  0.00801  0.25517  0.72726  1.0000
  Fe  Fe8       1.0  0.10655  0.99802  0.66777  1.0000
  C   C39       1.0  0.08202  0.04285  0.61596  1.0000
  H   H63       1.0  0.10122  0.04025  0.61567  1.0000
  S   S19       1.0  0.00148  0.04469  0.57031  1.0000
  H   H64       1.0  0.10539  0.00919  0.59552  1.0000
  C   C40       1.0  0.00595  0.05416  0.51373  1.0000
  S   S20       1.0  0.07678  0.13199  0.72812  1.0000
  Fe  Fe9       1.0  0.01319  0.00689  0.57495  1.0000
  H   H65       1.0  0.00904  0.03203  0.70148  1.0000
  S   S21       1.0  0.01525  0.16357  0.73525  1.0000
  H   H66       1.0  0.04319  0.05792  0.59973  1.0000
  H   H67       1.0  0.10722  0.04979  0.57532  1.0000
  C   C41       1.0  0.99813  0.27685  0.71761  1.0000
  H   H68       1.0  0.08436  0.04748  0.56208  1.0000
  H   H69       1.0  0.08103  0.07022  0.57681  1.0000
  H   H70       1.0  0.00828  0.05850  0.73121  1.0000
  C   C42       1.0  0.00254  0.29682  0.72287  1.0000
  C   C43       1.0  0.99859  0.03497  0.67112  1.0000
  S   S22       1.0  0.00197  0.23036  0.72075  1.0000
  S   S23       1.0  0.07569  0.98728  0.66028  1.0000
  H   H71       1.0  0.99486  0.31347  0.71530  1.0000
  H   H72       1.0  0.01583  0.06543  0.49962  1.0000
  C   C44       1.0  0.07642  0.10202  0.73200  1.0000
  C   C45       1.0  0.01719  0.29519  0.73749  1.0000
  H   H73       1.0  0.02113  0.01343  0.50157  1.0000
  H   H74       1.0  0.01891  0.04317  0.52305  1.0000
  C   C46       1.0  0.02260  0.10033  0.71727  1.0000
  H   H75       1.0  0.99451  0.06537  0.52458  1.0000
  H   H76       1.0  0.02858  0.11581  0.72003  1.0000
  H   H77       1.0  0.18338  0.98819  0.61446  1.0000
  C   C47       1.0  0.07659  0.05407  0.73700  1.0000
  C   C48       1.0  0.99422  0.07333  0.72897  1.0000
  H   H78       1.0  0.99549  0.14199  0.84064  1.0000
  C   C49       1.0  0.03610  0.21518  0.81722  1.0000
  C   C50       1.0  0.06640  0.06526  0.75441  1.0000
  Fe  Fe10      1.0  0.99776  0.15461  0.77002  1.0000
  H   H79       1.0  0.01814  0.07551  0.75849  1.0000
  S   S24       1.0  0.05636  0.28601  0.81513  1.0000
  C   C51       1.0  0.03612  0.24633  0.83574  1.0000
  C   C52       1.0  0.04863  0.25854  0.81664  1.0000
  H   H80       1.0  0.06480  0.25819  0.78318  1.0000
  H   H81       1.0  0.03153  0.25339  0.85036  1.0000
  H   H82       1.0  0.05324  0.22041  0.78353  1.0000
  S   S25       1.0  0.03084  0.14173  0.78255  1.0000
  S   S26       1.0  0.01708  0.29883  0.87340  1.0000
  C   C53       1.0  0.04831  0.22757  0.79809  1.0000
  Fe  Fe11      1.0  0.02964  0.17853  0.78580  1.0000
  C   C54       1.0  0.03004  0.22461  0.83606  1.0000
  H   H83       1.0  0.06144  0.31041  0.77102  1.0000
  C   C55       1.0  0.06597  0.08924  0.75183  1.0000
  H   H84       1.0  0.05812  0.09771  0.76532  1.0000
  Fe  Fe12      1.0  0.01575  0.19827  0.74214  1.0000
  H   H85       1.0  0.05873  0.05538  0.76990  1.0000
  C   C56       1.0  0.05485  0.24899  0.79792  1.0000
  S   S27       1.0  0.02856  0.18778  0.81808  1.0000
  Fe  Fe13      1.0  0.04856  0.15339  0.74796  1.0000
  H   H86       1.0  0.00854  0.27335  0.79592  1.0000
  H   H87       1.0  0.03861  0.27226  0.75822  1.0000
  H   H88       1.0  0.01067  0.10580  0.75830  1.0000
  H   H89       1.0  0.01081  0.31344  0.79406  1.0000
  Fe  Fe14      1.0  0.04230  0.30667  0.84160  1.0000
  C   C57       1.0  0.02244  0.25353  0.74208  1.0000
  H   H90       1.0  0.02080  0.21502  0.85097  1.0000
  C   C58       1.0  0.02729  0.27356  0.74694  1.0000
  S   S28       1.0  0.07623  0.02409  0.74048  1.0000
  S   S29       1.0  0.05074  0.18927  0.75210  1.0000
  S   S30       1.0  0.04518  0.30957  0.92012  1.0000
  S   S31       1.0  0.99503  0.19023  0.77588  1.0000
  H   H91       1.0  0.03005  0.23687  0.74966  1.0000
  H   H92       1.0  0.09258  0.30859  0.76177  1.0000
  H   H93       1.0  0.00489  0.28768  0.83046  1.0000
  C   C59       1.0  0.00464  0.09053  0.75521  1.0000
  Fe  Fe15      1.0  0.21543  0.45079  0.19106  1.0000
  S   S32       1.0  0.18554  0.47911  0.18812  1.0000
  S   S33       1.0  0.22918  0.42710  0.16729  1.0000
  H   H94       1.0  0.06422  0.50026  0.02185  1.0000
  S   S34       1.0  0.23841  0.47271  0.19837  1.0000
  Fe  Fe16      1.0  0.04308  0.38293  0.03176  1.0000
  N   N6        1.0  0.12156  0.41885  0.04618  1.0000
  H   H95       1.0  0.13878  0.38497  0.05709  1.0000
  H   H96       1.0  0.11130  0.42712  0.01514  1.0000
  H   H97       1.0  0.09792  0.40394  0.03408  1.0000
  H   H98       1.0  0.14151  0.58133  0.15103  1.0000
  S   S35       1.0  0.01213  0.34196  0.23056  1.0000
  H   H99       1.0  0.22732  0.36840  0.22974  1.0000
  C   C60       1.0  0.23257  0.63741  0.19385  1.0000
  H   H100      1.0  0.08445  0.55915  0.16905  1.0000
  H   H101      1.0  0.08524  0.56684  0.20499  1.0000
  C   C61       1.0  0.25610  0.64079  0.19004  1.0000
  H   H102      1.0  0.27593  0.46623  0.21975  1.0000
  C   C62       1.0  0.13113  0.43537  0.22341  1.0000
  Fe  Fe17      1.0  0.15899  0.47570  0.08028  1.0000
  S   S36       1.0  0.13569  0.49471  0.10479  1.0000
  S   S37       1.0  0.17878  0.44042  0.08822  1.0000
  Fe  Fe18      1.0  0.14523  0.51186  0.04192  1.0000
  S   S38       1.0  0.12057  0.53408  0.06344  1.0000
  Fe  Fe19      1.0  0.14923  0.52638  0.08283  1.0000
  S   S39       1.0  0.16602  0.54865  0.09722  1.0000
  Fe  Fe20      1.0  0.10949  0.50028  0.08334  1.0000
  S   S40       1.0  0.07424  0.48811  0.09697  1.0000
  S   S41       1.0  0.17476  0.50668  0.05971  1.0000
  S   S42       1.0  0.13202  0.47901  0.06045  1.0000
  C   C63       1.0  0.06271  0.48262  0.07610  1.0000
  C   C64       1.0  0.06895  0.49471  0.05482  1.0000
  C   C65       1.0  0.05976  0.49038  0.03817  1.0000
  C   C66       1.0  0.04497  0.47332  0.04250  1.0000
  C   C67       1.0  0.03901  0.46088  0.06373  1.0000
  C   C68       1.0  0.04754  0.46584  0.08059  1.0000
  H   H103      1.0  0.08043  0.50786  0.05126  1.0000
  H   H104      1.0  0.02725  0.44798  0.06728  1.0000
  H   H105      1.0  0.04247  0.45665  0.09710  1.0000
  H   H106      1.0  0.05295  0.41722  0.09208  1.0000
  C   C69       1.0  0.15691  0.56686  0.21774  1.0000
  S   S43       1.0  0.04985  0.33610  0.17490  1.0000
  H   H107      1.0  0.07972  0.33472  0.09028  1.0000
  H   H108      1.0  0.08557  0.42983  0.05973  1.0000
  H   H109      1.0  0.22478  0.62682  0.20889  1.0000
  C   C70       1.0  0.07415  0.35279  0.09063  1.0000
  C   C71       1.0  0.13114  0.61931  0.11073  1.0000
  C   C72       1.0  0.15424  0.61129  0.11301  1.0000
  C   C73       1.0  0.16483  0.58981  0.10832  1.0000
  C   C74       1.0  0.15239  0.57613  0.10129  1.0000
  C   C75       1.0  0.12944  0.58428  0.09846  1.0000
  C   C76       1.0  0.11887  0.60593  0.10309  1.0000
  H   H110      1.0  0.16397  0.62158  0.11844  1.0000
  H   H111      1.0  0.18261  0.58360  0.11048  1.0000
  H   H112      1.0  0.11979  0.57387  0.09288  1.0000
  H   H113      1.0  0.10103  0.61214  0.10107  1.0000
  C   C77       1.0  0.21386  0.42991  0.14631  1.0000
  C   C78       1.0  0.22334  0.41760  0.12969  1.0000
  C   C79       1.0  0.21217  0.42046  0.11214  1.0000
  C   C80       1.0  0.19169  0.43597  0.11095  1.0000
  C   C81       1.0  0.18188  0.44785  0.12782  1.0000
  C   C82       1.0  0.19278  0.44458  0.14561  1.0000
  H   H114      1.0  0.23955  0.40607  0.13018  1.0000
  H   H115      1.0  0.21974  0.41110  0.09919  1.0000
  H   H116      1.0  0.16593  0.45958  0.12714  1.0000
  H   H117      1.0  0.18487  0.45353  0.15862  1.0000
  C   C83       1.0  0.19344  0.55606  0.19383  1.0000
  C   C84       1.0  0.19713  0.57917  0.18744  1.0000
  C   C85       1.0  0.18053  0.59609  0.19590  1.0000
  N   N7        1.0  0.25252  0.55861  0.22552  1.0000
  H   H118      1.0  0.14159  0.44505  0.02527  1.0000
  S   S44       1.0  0.06995  0.35856  0.04805  1.0000
  H   H119      1.0  0.21261  0.58409  0.17568  1.0000
  H   H120      1.0  0.18334  0.61389  0.19089  1.0000
  H   H121      1.0  0.24689  0.49159  0.14240  1.0000
  C   C86       1.0  0.30104  0.48334  0.22740  1.0000
  C   C87       1.0  0.16002  0.59011  0.21039  1.0000
  H   H122      1.0  0.01262  0.39656  0.12053  1.0000
  S   S45       1.0  0.11721  0.64563  0.11793  1.0000
  C   C88       1.0  0.06173  0.39136  0.07248  1.0000
  Fe  Fe21      1.0  0.13992  0.64233  0.18872  1.0000
  H   H123      1.0  0.10815  0.56573  0.14647  1.0000
  C   C89       1.0  0.25524  0.57088  0.20262  1.0000
  N   N8        1.0  0.10296  0.43583  0.14720  1.0000
  C   C90       1.0  0.07790  0.44548  0.14999  1.0000
  C   C91       1.0  0.11563  0.44933  0.15615  1.0000
  C   C92       1.0  0.11296  0.43677  0.12385  1.0000
  C   C93       1.0  0.10528  0.41163  0.15890  1.0000
  H   H124      1.0  0.06948  0.44425  0.16744  1.0000
  H   H125      1.0  0.06793  0.43624  0.14273  1.0000
  H   H126      1.0  0.07558  0.46394  0.14179  1.0000
  H   H127      1.0  0.13454  0.44239  0.15448  1.0000
  H   H128      1.0  0.11429  0.46771  0.14773  1.0000
  H   H129      1.0  0.10844  0.44880  0.17379  1.0000
  H   H130      1.0  0.11071  0.45466  0.11438  1.0000
  H   H131      1.0  0.10398  0.42622  0.11693  1.0000
  H   H132      1.0  0.13204  0.43031  0.12099  1.0000
  H   H133      1.0  0.12396  0.40379  0.15724  1.0000
  H   H134      1.0  0.09599  0.40092  0.15256  1.0000
  H   H135      1.0  0.09778  0.41020  0.17654  1.0000
  H   H136      1.0  0.07521  0.34893  0.12452  1.0000
  C   C94       1.0  0.21882  0.64836  0.17851  1.0000
  H   H137      1.0  0.28817  0.54188  0.22173  1.0000
  H   H138      1.0  0.09731  0.39177  0.23488  1.0000
  C   C95       1.0  0.22858  0.55201  0.23324  1.0000
  H   H139      1.0  0.26748  0.52578  0.21715  1.0000
  Fe  Fe22      1.0  0.17346  0.46517  0.22350  1.0000
  N   N9        1.0  0.20132  0.36695  0.21178  1.0000
  C   C96       1.0  0.07149  0.36080  0.10999  1.0000
  S   S46       1.0  0.10351  0.34893  0.16309  1.0000
  C   C97       1.0  0.99664  0.31962  0.20485  1.0000
  C   C98       1.0  0.99797  0.38635  0.12264  1.0000
  H   H140      1.0  0.24240  0.58676  0.20078  1.0000
  C   C99       1.0  0.05892  0.39928  0.09170  1.0000
  S   S47       1.0  0.27279  0.62809  0.20985  1.0000
  H   H141      1.0  0.25240  0.55986  0.19198  1.0000
  H   H142      1.0  0.10318  0.61182  0.17755  1.0000
  S   S48       1.0  0.16103  0.63614  0.15653  1.0000
  H   H143      1.0  0.27304  0.57635  0.19635  1.0000
  H   H144      1.0  0.25316  0.49786  0.09251  1.0000
  H   H145      1.0  0.14616  0.55964  0.17434  1.0000
  C   C100      1.0  0.12659  0.39656  0.20802  1.0000
  H   H146      1.0  0.11283  0.54230  0.16862  1.0000
  C   C101      1.0  0.10366  0.56007  0.16447  1.0000
  S   S49       1.0  0.13684  0.61170  0.21630  1.0000
  C   C102      1.0  0.24458  0.51231  0.10088  1.0000
  H   H147      1.0  0.24289  0.47096  0.12769  1.0000
  H   H148      1.0  0.25820  0.51818  0.10700  1.0000
  H   H149      1.0  0.23830  0.52679  0.08847  1.0000
  Fe  Fe23      1.0  0.08525  0.31811  0.17958  1.0000
  Fe  Fe24      1.0  0.20705  0.49953  0.19904  1.0000
  H   H150      1.0  0.21972  0.47997  0.14839  1.0000
  C   C103      1.0  0.23409  0.48612  0.13497  1.0000
  H   H151      1.0  0.21474  0.48130  0.10337  1.0000
  N   N10       1.0  0.22501  0.50513  0.11875  1.0000
  S   S50       1.0  0.01536  0.40607  0.04978  1.0000
  H   H152      1.0  0.00591  0.36907  0.11913  1.0000
  H   H153      1.0  0.07878  0.59964  0.17449  1.0000
  C   C104      1.0  0.20754  0.49725  0.10992  1.0000
  H   H154      1.0  0.20167  0.51055  0.09647  1.0000
  H   H155      1.0  0.11290  0.49338  0.02229  1.0000
  S   S51       1.0  0.05522  0.41100  0.00423  1.0000
  C   C105      1.0  0.09813  0.59936  0.16959  1.0000
  H   H156      1.0  0.19160  0.49360  0.12257  1.0000
  S   S52       1.0  0.21379  0.53534  0.18212  1.0000
  C   C106      1.0  0.13610  0.57662  0.16892  1.0000
  H   H157      1.0  0.10229  0.60600  0.15176  1.0000
  S   S53       1.0  0.03337  0.46900  0.02116  1.0000
  C   C107      1.0  0.21386  0.52487  0.12920  1.0000
  H   H158      1.0  0.20650  0.53942  0.11752  1.0000
  Fe  Fe25      1.0  0.02586  0.43360  0.02092  1.0000
  H   H159      1.0  0.20060  0.64611  0.18168  1.0000
  H   H160      1.0  0.15564  0.40656  0.18243  1.0000
  C   C108      1.0  0.11442  0.41200  0.02829  1.0000
  S   S54       1.0  0.06190  0.37795  0.19425  1.0000
  N   N11       1.0  0.11054  0.57598  0.17560  1.0000
  H   H161      1.0  0.12806  0.39930  0.02092  1.0000
  H   H162      1.0  0.10651  0.43988  0.07014  1.0000
  H   H163      1.0  0.10890  0.57997  0.20816  1.0000
  H   H164      1.0  0.14169  0.58960  0.17581  1.0000
  H   H165      1.0  0.19534  0.39446  0.18504  1.0000
  Fe  Fe26      1.0  0.06759  0.36763  0.16215  1.0000
  S   S55       1.0  0.05891  0.39477  0.13425  1.0000
  H   H166      1.0  0.13076  0.40290  0.07706  1.0000
  C   C109      1.0  0.06359  0.38407  0.11047  1.0000
  H   H167      1.0  0.10878  0.39031  0.07035  1.0000
  C   C110      1.0  0.12514  0.39836  0.06341  1.0000
  S   S56       1.0  0.01863  0.37245  0.01498  1.0000
  C   C111      1.0  0.17355  0.54982  0.20931  1.0000
  H   H168      1.0  0.31075  0.48670  0.21083  1.0000
  H   H169      1.0  0.05876  0.40347  0.05791  1.0000
  C   C112      1.0  0.06879  0.36808  0.07197  1.0000
  H   H170      1.0  0.10128  0.45249  0.04339  1.0000
  C   C113      1.0  0.12050  0.49058  0.00609  1.0000
  C   C114      1.0  0.10435  0.56795  0.19938  1.0000
  C   C115      1.0  0.11108  0.47594  0.99719  1.0000
  C   C116      1.0  0.14623  0.42990  0.20464  1.0000
  H   H171      1.0  0.09622  0.46744  0.00661  1.0000
  S   S57       1.0  0.08147  0.32415  0.21327  1.0000
  C   C117      1.0  0.19700  0.37532  0.18948  1.0000
  C   C118      1.0  0.14374  0.41076  0.19683  1.0000
  H   H172      1.0  0.22656  0.53144  0.13590  1.0000
  H   H173      1.0  0.19918  0.52001  0.14296  1.0000
  Fe  Fe27      1.0  0.04697  0.34442  0.20746  1.0000
  H   H174      1.0  0.11390  0.55062  0.20466  1.0000
  H   H175      1.0  0.16024  0.44003  0.19645  1.0000
  H   H176      1.0  0.18620  0.33577  0.21630  1.0000
  S   S58       1.0  0.15249  0.51916  0.00529  1.0000
  C   C119      1.0  0.14374  0.42905  0.03779  1.0000
  H   H177      1.0  0.15013  0.43362  0.05101  1.0000
  Fe  Fe28      1.0  0.09688  0.35697  0.19642  1.0000
  H   H178      1.0  0.15789  0.41690  0.03019  1.0000
  H   H179      1.0  0.17053  0.53201  0.21426  1.0000
  C   C120      1.0  0.10302  0.43596  0.05526  1.0000
  S   S59       1.0  0.99994  0.42812  0.00255  1.0000
  H   H180      1.0  0.21161  0.36869  0.17724  1.0000
  H   H181      1.0  0.18055  0.36991  0.18775  1.0000
  H   H182      1.0  0.21499  0.56734  0.23166  1.0000
  H   H183      1.0  0.20279  0.63174  0.09585  1.0000
  C   C121      1.0  0.13943  0.50197  0.99385  1.0000
  C   C122      1.0  0.26982  0.53765  0.22721  1.0000
  H   H184      1.0  0.23865  0.36696  0.20158  1.0000
  H   H185      1.0  0.01309  0.38117  0.15968  1.0000
  S   S60       1.0  0.12874  0.36930  0.20155  1.0000
  H   H186      1.0  0.20603  0.33461  0.23394  1.0000
  C   C123      1.0  0.11054  0.40273  0.22605  1.0000
  S   S61       1.0  0.20243  0.43576  0.22606  1.0000
  H   H187      1.0  0.22531  0.54002  0.22374  1.0000
  H   H188      1.0  0.14118  0.56209  0.22920  1.0000
  C   C124      1.0  0.28110  0.47201  0.23237  1.0000
  H   H189      1.0  0.08930  0.35784  0.99259  1.0000
  C   C125      1.0  0.20282  0.34155  0.21719  1.0000
  C   C126      1.0  0.25644  0.57387  0.23897  1.0000
  H   H190      1.0  0.17976  0.39601  0.22346  1.0000
  H   H191      1.0  0.21726  0.33348  0.20574  1.0000
  Fe  Fe29      1.0  0.22252  0.46057  0.23337  1.0000
  C   C127      1.0  0.18184  0.37684  0.22732  1.0000
  H   H192      1.0  0.24388  0.59003  0.23785  1.0000
  H   H193      1.0  0.16482  0.37150  0.22701  1.0000
  C   C128      1.0  0.22355  0.37409  0.21309  1.0000
  H   H194      1.0  0.22297  0.39319  0.20877  1.0000
  H   H195      1.0  0.00446  0.35439  0.15848  1.0000
  C   C129      1.0  0.99769  0.37228  0.16088  1.0000
  S   S62       1.0  0.19205  0.48870  0.23448  1.0000
  C   C130      1.0  0.11273  0.42226  0.23364  1.0000
  S   S63       1.0  0.13606  0.45768  0.23471  1.0000
  H   H196      1.0  0.27439  0.57912  0.23356  1.0000
  S   S64       1.0  0.24345  0.45310  0.25999  1.0000
  H   H197      1.0  0.25448  0.56526  0.25638  1.0000
  C   C131      1.0  0.29594  0.48584  0.26510  1.0000
  H   H198      1.0  0.31935  0.42973  0.31964  1.0000
  C   C132      1.0  0.27598  0.47430  0.27011  1.0000
  H   H199      1.0  0.31505  0.41118  0.29048  1.0000
  H   H200      1.0  0.31462  0.43824  0.27166  1.0000
  H   H201      1.0  0.10092  0.42649  0.24812  1.0000
  H   H202      1.0  0.26615  0.47094  0.28663  1.0000
  H   H203      1.0  0.30132  0.49165  0.27764  1.0000
  C   C133      1.0  0.30851  0.49030  0.24369  1.0000
  H   H204      1.0  0.22574  0.54308  0.25059  1.0000
  C   C134      1.0  0.26840  0.46754  0.25368  1.0000
  H   H205      1.0  0.26812  0.52786  0.24426  1.0000
  H   H206      1.0  0.32020  0.62081  0.26437  1.0000
  H   H207      1.0  0.31798  0.45706  0.30123  1.0000
  H   H208      1.0  0.18470  0.37131  0.24428  1.0000
  C   C135      1.0  0.32530  0.61542  0.27994  1.0000
  H   H209      1.0  0.32558  0.57932  0.28090  1.0000
  C   C136      1.0  0.32639  0.42319  0.27856  1.0000
  H   H210      1.0  0.18669  0.59000  0.67654  1.0000
  H   H211      1.0  0.16160  0.56658  0.66614  1.0000
  H   H212      1.0  0.23253  0.53991  0.67114  1.0000
  C   C137      1.0  0.27085  0.58813  0.69857  1.0000
  H   H213      1.0  0.21665  0.57886  0.67786  1.0000
  H   H214      1.0  0.22361  0.59084  0.71133  1.0000
  H   H215      1.0  0.19334  0.56697  0.69819  1.0000
  S   S65       1.0  0.06630  0.49941  0.73494  1.0000
  H   H216      1.0  0.21477  0.52312  0.66318  1.0000
  H   H217      1.0  0.17308  0.53795  0.66206  1.0000
  C   C138      1.0  0.23169  0.60673  0.70969  1.0000
  H   H218      1.0  0.16738  0.54435  0.68869  1.0000
  S   S66       1.0  0.16814  0.61726  0.71499  1.0000
  C   C139      1.0  0.14538  0.57906  0.72768  1.0000
  H   H219      1.0  0.23194  0.61678  0.69286  1.0000
  H   H220      1.0  0.28902  0.58364  0.70170  1.0000
  S   S67       1.0  0.10547  0.54814  0.70220  1.0000
  N   N12       1.0  0.19818  0.55711  0.66727  1.0000
  H   H221      1.0  0.30530  0.64242  0.66432  1.0000
  H   H222      1.0  0.19390  0.58345  0.63912  1.0000
  C   C140      1.0  0.14913  0.59922  0.71206  1.0000
  C   C141      1.0  0.13860  0.60409  0.69395  1.0000
  C   C142      1.0  0.12457  0.58866  0.69142  1.0000
  C   C143      1.0  0.12118  0.56825  0.70685  1.0000
  S   S68       1.0  0.29418  0.53397  0.73335  1.0000
  N   N13       1.0  0.25551  0.60112  0.71453  1.0000
  H   H223      1.0  0.14135  0.61966  0.68185  1.0000
  H   H224      1.0  0.11659  0.59236  0.67731  1.0000
  C   C144      1.0  0.02698  0.45298  0.70649  1.0000
  H   H225      1.0  0.20892  0.52756  0.69050  1.0000
  H   H226      1.0  0.05372  0.46994  0.71185  1.0000
  C   C145      1.0  0.01938  0.43183  0.70776  1.0000
  C   C146      1.0  0.04799  0.45359  0.71285  1.0000
  C   C147      1.0  0.06161  0.43306  0.72014  1.0000
  H   H227      1.0  0.21969  0.61709  0.72100  1.0000
  C   C148      1.0  0.03317  0.41129  0.71474  1.0000
  C   C149      1.0  0.20561  0.56735  0.64403  1.0000
  S   S69       1.0  0.22877  0.53398  0.72693  1.0000
  C   C150      1.0  0.13142  0.56365  0.72510  1.0000
  Fe  Fe30      1.0  0.09869  0.51680  0.72878  1.0000
  H   H228      1.0  0.06522  0.39609  0.72563  1.0000
  C   C151      1.0  0.19877  0.57395  0.68052  1.0000
  C   C152      1.0  0.17408  0.55123  0.67119  1.0000
  H   H229      1.0  0.01648  0.46890  0.70086  1.0000
  C   C153      1.0  0.26517  0.62258  0.71330  1.0000
  C   C154      1.0  0.21432  0.53602  0.67320  1.0000
  H   H230      1.0  0.20515  0.55525  0.63347  1.0000
  H   H231      1.0  0.26627  0.63370  0.69685  1.0000
  H   H232      1.0  0.22378  0.57189  0.64044  1.0000
  H   H233      1.0  0.24709  0.57068  0.73818  1.0000
  Fe  Fe31      1.0  0.17780  0.64619  0.68681  1.0000
  S   S70       1.0  0.12322  0.48365  0.72938  1.0000
  S   S71       1.0  0.08701  0.43311  0.72983  1.0000
  H   H234      1.0  0.02762  0.39491  0.71532  1.0000
  H   H235      1.0  0.28322  0.61883  0.71679  1.0000
  C   C155      1.0  0.05443  0.41194  0.72056  1.0000
  H   H236      1.0  0.27207  0.59839  0.68168  1.0000
  C   C156      1.0  0.18397  0.52216  0.73632  1.0000
  H   H237      1.0  0.26416  0.57172  0.69919  1.0000
  Fe  Fe32      1.0  0.09061  0.46624  0.73888  1.0000
  H   H238      1.0  0.18112  0.53409  0.72169  1.0000
  S   S72       1.0  0.26031  0.64563  0.65337  1.0000
  C   C157      1.0  0.25439  0.58696  0.73662  1.0000
  H   H239      1.0  0.09073  0.35638  0.73052  1.0000
  H   H240      1.0  0.12891  0.54806  0.73705  1.0000
  S   S73       1.0  0.19666  0.63912  0.65424  1.0000
  H   H241      1.0  0.25407  0.63280  0.72513  1.0000
  C   C158      1.0  0.02200  0.44455  0.80403  1.0000
  H   H242      1.0  0.01120  0.40435  0.91487  1.0000
  C   C159      1.0  0.03659  0.50033  0.82017  1.0000
  C   C160      1.0  0.05747  0.48855  0.82597  1.0000
  C   C161      1.0  0.06085  0.48613  0.84718  1.0000
  H   H243      1.0  0.07093  0.48102  0.81422  1.0000
  H   H244      1.0  0.07657  0.47626  0.85163  1.0000
  H   H245      1.0  0.22572  0.53603  0.83405  1.0000
  H   H246      1.0  0.22793  0.45881  0.86242  1.0000
  S   S74       1.0  0.13154  0.40605  0.87968  1.0000
  C   C162      1.0  0.27021  0.51679  0.83587  1.0000
  C   C163      1.0  0.13876  0.48475  0.96335  1.0000
  H   H247      1.0  0.02015  0.51780  0.93441  1.0000
  S   S75       1.0  0.10338  0.49685  0.91125  1.0000
  Fe  Fe33      1.0  0.08425  0.47940  0.89466  1.0000
  S   S76       1.0  0.11499  0.47310  0.86818  1.0000
  H   H248      1.0  0.28130  0.55976  0.82641  1.0000
  C   C164      1.0  0.03570  0.51058  0.94192  1.0000
  H   H249      1.0  0.09319  0.40731  0.96461  1.0000
  H   H250      1.0  0.04443  0.42833  0.90763  1.0000
  H   H251      1.0  0.18160  0.52361  0.82131  1.0000
  H   H252      1.0  0.14600  0.48243  0.94688  1.0000
  Fe  Fe34      1.0  0.13481  0.48765  0.88632  1.0000
  S   S77       1.0  0.10989  0.45250  0.96601  1.0000
  H   H253      1.0  0.03100  0.41607  0.76259  1.0000
  Fe  Fe35      1.0  0.06575  0.49724  0.77014  1.0000
  H   H254      1.0  0.01439  0.45746  0.75181  1.0000
  S   S78       1.0  0.29434  0.57139  0.77710  1.0000
  C   C165      1.0  0.07713  0.39506  0.84421  1.0000
  H   H255      1.0  0.07879  0.35854  0.78930  1.0000
  H   H256      1.0  0.26011  0.51947  0.87800  1.0000
  H   H257      1.0  0.24310  0.59624  0.74913  1.0000
  H   H258      1.0  0.05561  0.41820  0.88261  1.0000
  H   H259      1.0  0.08778  0.55046  0.84905  1.0000
  H   H260      1.0  0.21948  0.50600  0.80311  1.0000
  S   S79       1.0  0.14636  0.45340  0.90615  1.0000
  N   N14       1.0  0.01711  0.43956  0.78425  1.0000
  C   C166      1.0  0.01159  0.40897  0.89707  1.0000
  Fe  Fe36      1.0  0.11320  0.46137  0.92982  1.0000
  H   H261      1.0  0.22094  0.54917  0.85722  1.0000
  C   C167      1.0  0.04411  0.33492  0.92973  1.0000
  C   C168      1.0  0.08414  0.41696  0.84063  1.0000
  C   C169      1.0  0.04336  0.43169  0.89019  1.0000
  S   S80       1.0  0.01766  0.35258  0.87754  1.0000
  N   N15       1.0  0.10968  0.53819  0.82130  1.0000
  C   C170      1.0  0.09766  0.53426  0.84437  1.0000
  C   C171      1.0  0.09213  0.54727  0.80741  1.0000
  C   C172      1.0  0.12256  0.51625  0.81583  1.0000
  C   C173      1.0  0.12644  0.55497  0.81755  1.0000
  H   H262      1.0  0.11037  0.52741  0.85532  1.0000
  H   H263      1.0  0.08495  0.52164  0.84781  1.0000
  S   S81       1.0  0.15651  0.51429  0.86512  1.0000
  H   H264      1.0  0.10066  0.55093  0.78989  1.0000
  H   H265      1.0  0.07953  0.53475  0.80946  1.0000
  H   H266      1.0  0.08174  0.56361  0.81134  1.0000
  H   H267      1.0  0.11057  0.50309  0.81826  1.0000
  H   H268      1.0  0.13600  0.50886  0.82596  1.0000
  H   H269      1.0  0.13186  0.51873  0.79853  1.0000
  H   H270      1.0  0.13978  0.54862  0.82798  1.0000
  H   H271      1.0  0.11739  0.57184  0.82130  1.0000
  H   H272      1.0  0.13605  0.55810  0.80033  1.0000
  H   H273      1.0  0.26524  0.51667  0.82033  1.0000
  H   H274      1.0  0.25421  0.55034  0.87393  1.0000
  H   H275      1.0  0.04804  0.35759  0.74534  1.0000
  C   C174      1.0  0.10334  0.37753  0.93790  1.0000
  H   H276      1.0  0.00681  0.47544  0.77177  1.0000
  C   C175      1.0  0.20830  0.50436  0.76244  1.0000
  H   H277      1.0  0.00935  0.51537  0.86847  1.0000
  H   H278      1.0  0.09339  0.37254  0.74983  1.0000
  H   H279      1.0  0.01138  0.47818  0.93881  1.0000
  H   H280      1.0  0.06583  0.33225  0.79823  1.0000
  H   H281      1.0  0.10605  0.43745  0.84878  1.0000
  C   C176      1.0  0.01844  0.43773  0.86416  1.0000
  C   C177      1.0  0.23156  0.53496  0.84948  1.0000
  H   H282      1.0  0.12754  0.33997  0.95780  1.0000
  H   H283      1.0  0.02079  0.42926  0.81754  1.0000
  H   H284      1.0  0.02674  0.32153  0.96231  1.0000
  H   H285      1.0  0.08788  0.39068  0.93575  1.0000
  S   S82       1.0  0.09076  0.44476  0.91576  1.0000
  Fe  Fe37      1.0  0.12305  0.43979  0.89044  1.0000
  S   S83       1.0  0.04805  0.49428  0.88890  1.0000
  C   C178      1.0  0.04377  0.49619  0.86246  1.0000
  H   H286      1.0  0.07693  0.43107  0.82927  1.0000
  C   C179      1.0  0.02275  0.50770  0.85672  1.0000
  C   C180      1.0  0.01908  0.50959  0.83566  1.0000
  C   C181      1.0  0.00334  0.44935  0.89871  1.0000
  S   S84       1.0  0.03203  0.50335  0.79378  1.0000
  C   C182      1.0  0.16932  0.49389  0.76790  1.0000
  H   H287      1.0  0.18540  0.45401  0.83699  1.0000
  H   H288      1.0  0.06892  0.47721  0.95332  1.0000
  Fe  Fe38      1.0  0.03865  0.31823  0.88597  1.0000
  S   S85       1.0  0.14760  0.47666  0.78273  1.0000
  S   S86       1.0  0.08793  0.46308  0.77460  1.0000
  C   C183      1.0  0.19017  0.49210  0.77516  1.0000
  H   H289      1.0  0.19253  0.48108  0.79044  1.0000
  C   C184      1.0  0.21323  0.49964  0.82003  1.0000
  H   H290      1.0  0.00048  0.43788  0.86149  1.0000
  H   H291      1.0  0.07035  0.37431  0.97518  1.0000
  C   C185      1.0  0.10051  0.42062  0.85183  1.0000
  H   H292      1.0  0.18918  0.47584  0.88077  1.0000
  C   C186      1.0  0.18298  0.50099  0.85228  1.0000
  C   C187      1.0  0.19578  0.48236  0.86376  1.0000
  H   H293      1.0  0.22465  0.50199  0.76770  1.0000
  C   C188      1.0  0.01190  0.49277  0.97521  1.0000
  H   H294      1.0  0.20151  0.39209  0.83380  1.0000
  C   C189      1.0  0.19161  0.50947  0.83037  1.0000
  C   C190      1.0  0.19369  0.40813  0.83997  1.0000
  H   H295      1.0  0.00286  0.51867  0.83122  1.0000
  C   C191      1.0  0.21769  0.47278  0.85340  1.0000
  C   C192      1.0  0.03202  0.35705  0.95859  1.0000
  H   H296      1.0  0.20940  0.41607  0.79740  1.0000
  H   H297      1.0  0.18084  0.40316  0.85532  1.0000
  C   C193      1.0  0.22658  0.48170  0.83156  1.0000
  C   C194      1.0  0.19996  0.43153  0.80384  1.0000
  H   H298      1.0  0.22703  0.51838  0.86032  1.0000
  C   C195      1.0  0.12051  0.47262  0.97600  1.0000
  H   H299      1.0  0.20793  0.41516  0.84414  1.0000
  N   N16       1.0  0.18232  0.42519  0.82382  1.0000
  H   H300      1.0  0.21332  0.44083  0.80676  1.0000
  N   N17       1.0  0.10698  0.37272  0.96049  1.0000
  C   C196      1.0  0.05181  0.35609  0.76178  1.0000
  H   H301      1.0  0.25696  0.55934  0.81452  1.0000
  C   C197      1.0  0.11025  0.40228  0.86623  1.0000
  S   S87       1.0  0.25302  0.53082  0.77749  1.0000
  C   C198      1.0  0.08672  0.37696  0.85877  1.0000
  H   H302      1.0  0.02321  0.35819  0.97498  1.0000
  C   C199      1.0  0.26219  0.55823  0.83027  1.0000
  H   H303      1.0  0.02401  0.45498  0.85642  1.0000
  H   H304      1.0  0.19157  0.44286  0.79070  1.0000
  H   H305      1.0  0.08150  0.36011  0.86168  1.0000
  N   N18       1.0  0.03198  0.48864  0.95745  1.0000
  H   H306      1.0  0.17102  0.39993  0.81098  1.0000
  C   C200      1.0  0.16372  0.41520  0.81851  1.0000
  H   H307      1.0  0.03687  0.46518  0.76228  1.0000
  H   H308      1.0  0.04210  0.46788  0.93302  1.0000
  Fe  Fe39      1.0  0.99831  0.33388  0.86256  1.0000
  N   N19       1.0  0.25696  0.53644  0.84547  1.0000
  C   C201      1.0  0.17186  0.44590  0.83300  1.0000
  H   H309      1.0  0.16298  0.45917  0.82142  1.0000
  H   H310      1.0  0.16267  0.50840  0.96265  1.0000
  C   C202      1.0  0.14822  0.49940  0.97229  1.0000
  C   C203      1.0  0.10343  0.38045  0.86953  1.0000
  H   H311      1.0  0.10035  0.36178  0.93314  1.0000
  H   H312      1.0  0.15049  0.40958  0.83327  1.0000
  H   H313      1.0  0.14421  0.36383  0.95118  1.0000
  H   H314      1.0  0.15857  0.44161  0.84813  1.0000
  Fe  Fe40      1.0  0.04325  0.35598  0.84589  1.0000
  C   C204      1.0  0.04088  0.37630  0.94435  1.0000
  H   H315      1.0  0.15421  0.42798  0.80694  1.0000
  H   H316      1.0  0.05173  0.46243  0.97746  1.0000
  H   H317      1.0  0.03998  0.44943  0.80107  1.0000
  H   H318      1.0  0.12428  0.40276  0.95565  1.0000
  S   S88       1.0  0.25476  0.47115  0.81914  1.0000
  C   C205      1.0  0.31591  0.58590  0.75806  1.0000
  H   H319      1.0  0.08402  0.34633  0.97096  1.0000
  C   C206      1.0  0.01882  0.46030  0.76676  1.0000
  C   C207      1.0  0.10908  0.39453  0.96634  1.0000
  H   H320      1.0  0.05006  0.44836  0.88242  1.0000
  C   C208      1.0  0.03445  0.42047  0.77729  1.0000
  Fe  Fe41      1.0  0.28967  0.53924  0.76747  1.0000
  H   H321      1.0  0.00953  0.45918  0.80954  1.0000
  C   C209      1.0  0.02708  0.47171  0.94622  1.0000
  S   S89       1.0  0.03808  0.40303  0.95240  1.0000
  C   C210      1.0  0.08686  0.36230  0.97545  1.0000
  C   C211      1.0  0.03391  0.33629  0.95136  1.0000
  C   C212      1.0  0.31743  0.60883  0.75820  1.0000
  H   H322      1.0  0.05092  0.50817  0.92845  1.0000
  Fe  Fe42      1.0  0.26895  0.49440  0.78770  1.0000
  Fe  Fe43      1.0  0.25865  0.52218  0.74466  1.0000
  H   H323      1.0  0.11088  0.36618  0.88059  1.0000
  C   C213      1.0  0.16610  0.50921  0.74863  1.0000
  C   C214      1.0  0.05212  0.37442  0.92308  1.0000
  H   H324      1.0  0.26673  0.49996  0.84681  1.0000
  C   C215      1.0  0.05334  0.47951  0.96642  1.0000
  H   H325      1.0  0.05714  0.49116  0.97597  1.0000
  H   H326      1.0  0.06010  0.38865  0.91222  1.0000
  S   S90       1.0  0.05607  0.39043  0.83086  1.0000
  Fe  Fe44      1.0  0.30744  0.49744  0.74741  1.0000
  H   H327      1.0  0.03039  0.42493  0.85537  1.0000
  H   H328      1.0  0.25276  0.57352  0.83699  1.0000
  Fe  Fe45      1.0  0.11805  0.48368  0.76487  1.0000
  H   H329      1.0  0.06167  0.35285  0.89916  1.0000
  N   N20       1.0  0.07507  0.34290  0.76359  1.0000
  H   H330      1.0  0.28945  0.51744  0.83228  1.0000
  H   H331      1.0  0.28296  0.53679  0.86372  1.0000
  N   N21       1.0  0.01916  0.43195  0.88753  1.0000
  S   S91       1.0  0.30548  0.50367  0.78079  1.0000
  S   S92       1.0  0.27223  0.48501  0.75546  1.0000
  C   C216      1.0  0.05333  0.35401  0.91569  1.0000
  H   H332      1.0  0.03409  0.40471  0.79033  1.0000
  H   H333      1.0  0.11867  0.38442  0.92610  1.0000
  H   H334      1.0  0.03756  0.34745  0.77371  1.0000
  H   H335      1.0  0.02372  0.39531  0.88957  1.0000
  C   C217      1.0  0.12866  0.35654  0.96223  1.0000
  S   S93       1.0  0.09558  0.51780  0.76382  1.0000
  H   H336      1.0  0.05263  0.42513  0.77317  1.0000
  C   C218      1.0  0.20539  0.51932  0.74293  1.0000
  H   H337      1.0  0.30549  0.61744  0.77021  1.0000
  C   C219      1.0  0.26387  0.53574  0.86621  1.0000
  S   S94       1.0  0.02183  0.34053  0.82983  1.0000
  C   C220      1.0  0.07928  0.34123  0.78563  1.0000
  C   C221      1.0  0.07571  0.31950  0.75962  1.0000
  H   H338      1.0  0.99562  0.50027  0.96898  1.0000
  H   H339      1.0  0.07321  0.32006  0.74292  1.0000
  H   H340      1.0  0.05065  0.37379  0.76467  1.0000
  H   H341      1.0  0.03926  0.52369  0.95003  1.0000
  C   C222      1.0  0.09341  0.35478  0.74734  1.0000
  H   H342      1.0  0.13192  0.35250  0.97908  1.0000
  H   H343      1.0  0.11118  0.34524  0.74824  1.0000
  H   H344      1.0  0.14991  0.51099  0.74308  1.0000
  H   H345      1.0  0.11119  0.39185  0.98345  1.0000
  H   H346      1.0  0.00869  0.46686  0.89202  1.0000
  H   H347      1.0  0.00354  0.44532  0.91640  1.0000
  H   H348      1.0  0.27211  0.58228  0.74070  1.0000
  H   H349      1.0  0.15365  0.57512  0.74163  1.0000
  H   H350      1.0  0.09658  0.33119  0.78768  1.0000
  H   H351      1.0  0.02402  0.45502  0.95759  1.0000
  Fe  Fe46      1.0  0.02848  0.40264  0.98854  1.0000
  H   H352      1.0  0.01542  0.50469  0.98466  1.0000
  H   H353      1.0  0.00825  0.47651  0.98697  1.0000
  S   S95       1.0  0.06594  0.32271  0.85507  1.0000
  S   S96       1.0  0.02187  0.32010  0.74479  1.0000
  H   H354      1.0  0.10443  0.92906  0.17322  1.0000
  H   H355      1.0  0.12517  0.94500  0.17777  1.0000
  C   C223      1.0  0.27829  0.78024  0.21225  1.0000
  C   C224      1.0  0.20981  0.66546  0.06063  1.0000
  C   C225      1.0  0.13504  0.89152  0.16575  1.0000
  C   C226      1.0  0.12386  0.73900  0.19301  1.0000
  S   S97       1.0  0.15565  0.67405  0.18753  1.0000
  S   S98       1.0  0.29907  0.68704  0.19001  1.0000
  H   H356      1.0  0.18164  0.72741  0.18364  1.0000
  H   H357      1.0  0.29191  0.81219  0.20878  1.0000
  H   H358      1.0  0.14667  0.94540  0.13965  1.0000
  N   N22       1.0  0.14053  0.91498  0.16418  1.0000
  H   H359      1.0  0.17760  0.90369  0.16134  1.0000
  C   C227      1.0  0.16293  0.91344  0.17124  1.0000
  H   H360      1.0  0.05554  0.77213  0.20765  1.0000
  H   H361      1.0  0.28027  0.86787  0.19931  1.0000
  C   C228      1.0  0.30388  0.75206  0.19329  1.0000
  H   H362      1.0  0.11819  0.89193  0.16066  1.0000
  C   C229      1.0  0.07378  0.89194  0.19952  1.0000
  H   H363      1.0  0.16193  0.90426  0.18843  1.0000
  H   H364      1.0  0.16793  0.93076  0.16998  1.0000
  C   C230      1.0  0.12851  0.76190  0.18729  1.0000
  C   C231      1.0  0.13729  0.77134  0.20131  1.0000
  H   H365      1.0  0.19801  0.69960  0.18144  1.0000
  H   H366      1.0  0.12515  0.77239  0.17201  1.0000
  H   H367      1.0  0.14071  0.78901  0.19678  1.0000
  H   H368      1.0  0.11915  0.91802  0.19551  1.0000
  C   C232      1.0  0.12154  0.92733  0.17827  1.0000
  S   S99       1.0  0.20010  0.86573  0.19213  1.0000
  N   N23       1.0  0.21110  0.71858  0.19958  1.0000
  H   H369      1.0  0.18907  0.72874  0.22835  1.0000
  H   H370      1.0  0.17885  0.70402  0.20660  1.0000
  H   H371      1.0  0.06482  0.89378  0.16863  1.0000
  H   H372      1.0  0.04690  0.93450  0.16519  1.0000
  H   H373      1.0  0.23524  0.71605  0.16942  1.0000
  C   C233      1.0  0.22787  0.72860  0.18031  1.0000
  C   C234      1.0  0.22861  0.66233  0.15918  1.0000
  C   C235      1.0  0.28290  0.75836  0.20701  1.0000
  S   S100      1.0  0.27585  0.89033  0.23540  1.0000
  S   S101      1.0  0.04064  0.96711  0.19229  1.0000
  N   N24       1.0  0.19564  0.66786  0.08227  1.0000
  S   S102      1.0  0.21120  0.67603  0.14016  1.0000
  H   H374      1.0  0.19215  0.70496  0.07460  1.0000
  C   C236      1.0  0.21399  0.88160  0.22335  1.0000
  S   S103      1.0  0.11015  0.72845  0.17654  1.0000
  C   C237      1.0  0.14141  0.75792  0.22117  1.0000
  H   H375      1.0  0.13321  0.88159  0.18269  1.0000
  Fe  Fe47      1.0  0.13095  0.65734  0.14298  1.0000
  S   S104      1.0  0.14814  0.83190  0.20299  1.0000
  H   H376      1.0  0.14910  0.88153  0.15556  1.0000
  C   C238      1.0  0.22317  0.69785  0.21183  1.0000
  C   C239      1.0  0.22099  0.87137  0.20508  1.0000
  C   C240      1.0  0.06416  0.90295  0.18138  1.0000
  C   C241      1.0  0.08171  0.77909  0.23380  1.0000
  H   H377      1.0  0.04624  0.82960  0.22310  1.0000
  C   C242      1.0  0.07280  0.90389  0.21602  1.0000
  C   C243      1.0  0.08210  0.80628  0.19977  1.0000
  S   S105      1.0  0.26394  0.73774  0.21934  1.0000
  C   C244      1.0  0.32079  0.76713  0.18560  1.0000
  N   N25       1.0  0.06729  0.79690  0.22070  1.0000
  C   C245      1.0  0.23090  0.88770  0.23243  1.0000
  C   C246      1.0  0.05258  0.93793  0.19597  1.0000
  C   C247      1.0  0.24492  0.86653  0.19643  1.0000
  C   C248      1.0  0.20179  0.73570  0.21363  1.0000
  Fe  Fe48      1.0  0.29279  0.65444  0.21458  1.0000
  H   H378      1.0  0.15683  0.91871  0.13039  1.0000
  C   C249      1.0  0.14261  0.92758  0.14143  1.0000
  S   S106      1.0  0.14565  0.69064  0.13744  1.0000
  Fe  Fe49      1.0  0.12629  0.69294  0.17127  1.0000
  Fe  Fe50      1.0  0.28660  0.70391  0.21885  1.0000
  C   C250      1.0  0.05400  0.92598  0.17944  1.0000
  Fe  Fe51      1.0  0.17391  0.66967  0.15397  1.0000
  H   H379      1.0  0.12599  0.92897  0.13562  1.0000
  S   S107      1.0  0.13670  0.87535  0.22831  1.0000
  H   H380      1.0  0.18747  0.69262  0.10307  1.0000
  C   C251      1.0  0.12883  0.72528  0.21248  1.0000
  Fe  Fe52      1.0  0.16845  0.85255  0.21515  1.0000
  H   H381      1.0  0.07224  0.82095  0.19014  1.0000
  H   H382      1.0  0.19554  0.88542  0.23007  1.0000
  H   H383      1.0  0.12511  0.70761  0.21708  1.0000
  S   S108      1.0  0.08719  0.86336  0.20070  1.0000
  C   C252      1.0  0.29537  0.79533  0.20467  1.0000
  H   H384      1.0  0.25987  0.67635  0.14029  1.0000
  C   C253      1.0  0.26184  0.87179  0.20603  1.0000
  H   H385      1.0  0.08871  0.79297  0.18964  1.0000
  H   H386      1.0  0.25042  0.85858  0.18234  1.0000
  C   C254      1.0  0.31684  0.78850  0.19175  1.0000
  H   H387      1.0  0.21597  0.74106  0.21935  1.0000
  C   C255      1.0  0.13759  0.73474  0.22652  1.0000
  C   C256      1.0  0.25486  0.88274  0.22381  1.0000
  C   C257      1.0  0.05705  0.81573  0.23261  1.0000
  H   H388      1.0  0.23063  0.68468  0.20163  1.0000
  C   C258      1.0  0.25220  0.66556  0.15524  1.0000
  H   H389      1.0  0.15957  0.66821  0.09883  1.0000
  H   H390      1.0  0.20398  0.67950  0.04766  1.0000
  H   H391      1.0  0.30729  0.73540  0.18876  1.0000
  H   H392      1.0  0.21103  0.68968  0.22639  1.0000
  Fe  Fe53      1.0  0.31112  0.86941  0.22787  1.0000
  H   H393      1.0  0.26186  0.78527  0.22261  1.0000
  H   H394      1.0  0.09757  0.81283  0.20227  1.0000
  C   C259      1.0  0.19156  0.71211  0.19248  1.0000
  H   H395      1.0  0.06102  0.93609  0.22710  1.0000
  Fe  Fe54      1.0  0.11634  0.85228  0.21920  1.0000
  H   H396      1.0  0.23791  0.70215  0.21759  1.0000
  C   C260      1.0  0.17074  0.66685  0.08263  1.0000
  C   C261      1.0  0.06187  0.92684  0.21438  1.0000
  S   S109      1.0  0.10853  0.66155  0.17543  1.0000
  H   H397      1.0  0.16363  0.68113  0.07056  1.0000
  H   H398      1.0  0.19258  0.75161  0.20494  1.0000
  H   H399      1.0  0.08931  0.76440  0.22546  1.0000
  H   H400      1.0  0.24287  0.73369  0.18508  1.0000
  H   H401      1.0  0.21656  0.69134  0.08733  1.0000
  H   H402      1.0  0.21935  0.74429  0.17071  1.0000
  H   H403      1.0  0.08014  0.89538  0.23012  1.0000
  H   H404      1.0  0.03671  0.77929  0.23198  1.0000
  C   C262      1.0  0.19807  0.69020  0.08691  1.0000
  H   H405      1.0  0.03721  0.79941  0.20653  1.0000
  C   C263      1.0  0.04831  0.78649  0.21655  1.0000
  Fe  Fe55      1.0  0.14655  0.80846  0.23547  1.0000
  Fe  Fe56      1.0  0.01880  0.97915  0.22205  1.0000
  H   H406      1.0  0.28423  0.65714  0.16752  1.0000
  S   S110      1.0  0.32230  0.70136  0.22570  1.0000
  H   H407      1.0  0.22871  0.66611  0.05984  1.0000
  C   C264      1.0  0.26592  0.65486  0.17072  1.0000
  H   H408      1.0  0.09663  0.78613  0.23682  1.0000
  H   H409      1.0  0.07097  0.82401  0.23580  1.0000
  S   S111      1.0  0.30978  0.83141  0.23788  1.0000
  C   C265      1.0  0.20400  0.64891  0.09894  1.0000
  H   H410      1.0  0.19348  0.65009  0.11542  1.0000
  H   H411      1.0  0.16819  0.65034  0.07898  1.0000
  H   H412      1.0  0.22253  0.64952  0.09962  1.0000
  H   H413      1.0  0.20834  0.64877  0.05664  1.0000
  S   S112      1.0  0.15085  0.76969  0.23977  1.0000
  C   C266      1.0  0.28900  0.74517  0.26504  1.0000
  N   N26       1.0  0.19204  0.87732  0.47258  1.0000
  Fe  Fe57      1.0  0.13615  0.84857  0.25898  1.0000
  S   S113      1.0  0.12824  0.86130  0.29029  1.0000
  H   H414      1.0  0.11876  0.90694  0.45763  1.0000
  H   H415      1.0  0.13749  0.91711  0.41773  1.0000
  H   H416      1.0  0.21289  0.90036  0.44795  1.0000
  S   S114      1.0  0.16976  0.82745  0.24651  1.0000
  C   C267      1.0  0.10059  0.91609  0.46057  1.0000
  N   N27       1.0  0.08302  0.90045  0.46301  1.0000
  Fe  Fe58      1.0  0.06345  0.98078  0.40720  1.0000
  H   H417      1.0  0.27942  0.76202  0.25847  1.0000
  H   H418      1.0  0.03028  0.90478  0.31152  1.0000
  H   H419      1.0  0.18390  0.90035  0.44366  1.0000
  H   H420      1.0  0.04545  0.90207  0.46914  1.0000
  H   H421      1.0  0.05087  0.86549  0.32350  1.0000
  H   H422      1.0  0.22010  0.84940  0.46991  1.0000
  Fe  Fe59      1.0  0.19976  0.81114  0.37766  1.0000
  S   S115      1.0  0.20294  0.84879  0.37070  1.0000
  S   S116      1.0  0.18794  0.79488  0.35464  1.0000
  Fe  Fe60      1.0  0.22116  0.80142  0.41776  1.0000
  S   S117      1.0  0.22657  0.83825  0.41383  1.0000
  Fe  Fe61      1.0  0.19043  0.84592  0.40660  1.0000
  S   S118      1.0  0.16468  0.87269  0.42167  1.0000
  Fe  Fe62      1.0  0.23870  0.83736  0.37834  1.0000
  S   S119      1.0  0.26726  0.85668  0.35605  1.0000
  S   S120      1.0  0.18396  0.80909  0.41313  1.0000
  S   S121      1.0  0.23657  0.79975  0.38280  1.0000
  H   H423      1.0  0.05198  0.91737  0.34528  1.0000
  H   H424      1.0  0.10999  0.93655  0.39380  1.0000
  C   C268      1.0  0.20985  0.79885  0.47666  1.0000
  H   H425      1.0  0.09500  0.90539  0.29585  1.0000
  H   H426      1.0  0.03739  0.89251  0.34911  1.0000
  S   S122      1.0  0.03124  0.97139  0.25348  1.0000
  H   H427      1.0  0.10449  0.88156  0.43936  1.0000
  S   S123      1.0  0.04867  0.95207  0.40019  1.0000
  C   C269      1.0  0.05464  0.89917  0.34312  1.0000
  S   S124      1.0  0.23270  0.77429  0.44497  1.0000
  Fe  Fe63      1.0  0.31466  0.66767  0.24714  1.0000
  C   C270      1.0  0.05794  0.96995  0.48295  1.0000
  H   H428      1.0  0.12410  0.87874  0.36219  1.0000
  H   H429      1.0  0.31377  0.71637  0.29252  1.0000
  C   C271      1.0  0.31711  0.84560  0.30373  1.0000
  C   C272      1.0  0.19907  0.88925  0.44981  1.0000
  H   H430      1.0  0.27767  0.73726  0.28033  1.0000
  C   C273      1.0  0.30110  0.85602  0.31949  1.0000
  C   C274      1.0  0.28785  0.84264  0.33727  1.0000
  C   C275      1.0  0.29112  0.81864  0.33952  1.0000
  C   C276      1.0  0.30753  0.80814  0.32391  1.0000
  S   S125      1.0  0.05568  0.98071  0.34968  1.0000
  H   H431      1.0  0.11763  0.97263  0.30762  1.0000
  H   H432      1.0  0.28129  0.80815  0.35341  1.0000
  Fe  Fe64      1.0  0.02841  0.98049  0.38001  1.0000
  C   C277      1.0  0.17034  0.81327  0.33763  1.0000
  C   C278      1.0  0.16110  0.83558  0.34081  1.0000
  C   C279      1.0  0.14793  0.85026  0.32635  1.0000
  C   C280      1.0  0.14396  0.84263  0.30875  1.0000
  C   C281      1.0  0.15291  0.82023  0.30577  1.0000
  C   C282      1.0  0.16607  0.80559  0.32018  1.0000
  H   H433      1.0  0.16403  0.84150  0.35440  1.0000
  H   H434      1.0  0.14116  0.86762  0.32859  1.0000
  H   H435      1.0  0.14948  0.81402  0.29252  1.0000
  H   H436      1.0  0.17301  0.78829  0.31775  1.0000
  C   C283      1.0  0.08667  0.89133  0.44293  1.0000
  H   H437      1.0  0.25973  0.76100  0.47801  1.0000
  H   H438      1.0  0.05598  0.92075  0.48188  1.0000
  H   H439      1.0  0.10358  0.87139  0.47920  1.0000
  C   C284      1.0  0.11907  0.91978  0.39198  1.0000
  H   H440      1.0  0.07589  0.97067  0.48372  1.0000
  H   H441      1.0  0.29085  0.73386  0.25316  1.0000
  H   H442      1.0  0.15803  0.87307  0.46863  1.0000
  H   H443      1.0  0.15089  0.85862  0.38704  1.0000
  N   N28       1.0  0.06428  0.89744  0.32020  1.0000
  H   H444      1.0  0.20881  0.87005  0.28789  1.0000
  H   H445      1.0  0.08549  0.92465  0.31485  1.0000
  C   C285      1.0  0.17386  0.86265  0.47409  1.0000
  H   H446      1.0  0.06677  0.88927  0.35389  1.0000
  N   N29       1.0  0.23630  0.84402  0.29775  1.0000
  C   C286      1.0  0.23982  0.82557  0.31672  1.0000
  C   C287      1.0  0.21198  0.85568  0.30166  1.0000
  C   C288      1.0  0.24055  0.83391  0.27816  1.0000
  C   C289      1.0  0.25285  0.86091  0.29446  1.0000
  H   H447      1.0  0.22710  0.81287  0.32016  1.0000
  H   H448      1.0  0.23742  0.83268  0.33167  1.0000
  H   H449      1.0  0.25781  0.81604  0.31415  1.0000
  H   H450      1.0  0.20606  0.87673  0.43883  1.0000
  S   S126      1.0  0.09373  0.98152  0.37878  1.0000
  H   H451      1.0  0.19911  0.84350  0.30362  1.0000
  H   H452      1.0  0.23801  0.84739  0.26357  1.0000
  H   H453      1.0  0.22835  0.82107  0.28009  1.0000
  C   C290      1.0  0.21270  0.86278  0.47995  1.0000
  H   H454      1.0  0.25039  0.87538  0.28056  1.0000
  H   H455      1.0  0.27137  0.85282  0.29084  1.0000
  H   H456      1.0  0.25064  0.86841  0.30918  1.0000
  C   C291      1.0  0.05158  0.97313  0.46282  1.0000
  H   H457      1.0  0.04579  0.80937  0.24853  1.0000
  H   H458      1.0  0.05438  0.91017  0.28909  1.0000
  H   H459      1.0  0.25882  0.82517  0.27460  1.0000
  H   H460      1.0  0.18035  0.84953  0.46366  1.0000
  H   H461      1.0  0.29880  0.87457  0.31777  1.0000
  H   H462      1.0  0.04478  0.92955  0.30777  1.0000
  C   C292      1.0  0.00317  0.96529  0.31755  1.0000
  C   C293      1.0  0.13447  0.90863  0.40575  1.0000
  S   S127      1.0  0.09659  0.92349  0.35852  1.0000
  H   H463      1.0  0.20792  0.86290  0.31672  1.0000
  C   C294      1.0  0.11558  0.90923  0.37600  1.0000
  C   C295      1.0  0.32420  0.72504  0.27701  1.0000
  H   H464      1.0  0.08899  0.96652  0.28762  1.0000
  H   H465      1.0  0.19729  0.80619  0.46632  1.0000
  C   C296      1.0  0.22899  0.78309  0.46975  1.0000
  C   C297      1.0  0.12711  0.88718  0.37420  1.0000
  C   C298      1.0  0.04778  0.91107  0.30652  1.0000
  S   S128      1.0  0.07325  0.97821  0.43930  1.0000
  H   H466      1.0  0.07373  0.87947  0.44416  1.0000
  H   H467      1.0  0.07127  0.77193  0.24990  1.0000
  H   H468      1.0  0.10004  0.89632  0.32298  1.0000
  H   H469      1.0  0.07496  0.87117  0.30097  1.0000
  C   C299      1.0  0.08715  0.90645  0.31307  1.0000
  Fe  Fe65      1.0  0.07712  0.95494  0.37047  1.0000
  C   C300      1.0  0.06766  0.87305  0.31810  1.0000
  C   C301      1.0  0.14608  0.88666  0.40387  1.0000
  H   H470      1.0  0.12815  0.97781  0.26742  1.0000
  H   H471      1.0  0.08036  0.86240  0.32795  1.0000
  C   C302      1.0  0.14233  0.87584  0.38819  1.0000
  H   H472      1.0  0.09822  0.92343  0.47539  1.0000
  S   S129      1.0  0.11296  0.82729  0.25099  1.0000
  H   H473      1.0  0.22691  0.87320  0.47877  1.0000
  N   N30       1.0  0.31209  0.74789  0.26861  1.0000
  H   H474      1.0  0.29757  0.75577  0.30029  1.0000
  C   C303      1.0  0.18250  0.89458  0.48643  1.0000
  H   H475      1.0  0.31014  0.78958  0.32579  1.0000
  C   C304      1.0  0.05924  0.91330  0.46701  1.0000
  C   C305      1.0  0.08560  0.88108  0.48149  1.0000
  H   H476      1.0  0.09920  0.93087  0.44667  1.0000
  H   H477      1.0  0.14080  0.72424  0.24186  1.0000
  C   C306      1.0  0.00433  0.97438  0.33533  1.0000
  H   H478      1.0  0.01332  0.97160  0.30170  1.0000
  H   H479      1.0  0.08481  0.90549  0.42864  1.0000
  H   H480      1.0  0.05677  0.92789  0.45319  1.0000
  H   H481      1.0  0.16666  0.90557  0.48146  1.0000
  H   H482      1.0  0.02350  0.97403  0.44638  1.0000
  C   C307      1.0  0.30879  0.76287  0.28458  1.0000
  S   S130      1.0  0.27756  0.67196  0.24286  1.0000
  H   H483      1.0  0.19562  0.90609  0.48564  1.0000
  H   H484      1.0  0.22545  0.89619  0.24616  1.0000
  C   C308      1.0  0.32036  0.82167  0.30585  1.0000
  H   H485      1.0  0.30047  0.78055  0.27850  1.0000
  C   C309      1.0  0.24496  0.77322  0.48330  1.0000
  H   H486      1.0  0.07292  0.86869  0.48361  1.0000
  C   C310      1.0  0.01157  0.96782  0.48128  1.0000
  C   C311      1.0  0.02843  0.97180  0.46193  1.0000
  S   S131      1.0  0.32576  0.66118  0.27906  1.0000
  H   H487      1.0  0.32716  0.71326  0.26539  1.0000
  H   H488      1.0  0.32586  0.76473  0.28810  1.0000
  C   C312      1.0  0.32637  0.75850  0.24784  1.0000
  H   H489      1.0  0.31780  0.77585  0.24117  1.0000
  Fe  Fe66      1.0  0.99413  0.96555  0.26837  1.0000
  H   H490      1.0  0.27492  0.69246  0.69750  1.0000
  Fe  Fe67      1.0  0.18377  0.81773  0.54948  1.0000
  S   S132      1.0  0.15084  0.81482  0.53933  1.0000
  S   S133      1.0  0.21956  0.80138  0.53635  1.0000
  Fe  Fe68      1.0  0.15866  0.84734  0.58216  1.0000
  S   S134      1.0  0.12345  0.84677  0.57529  1.0000
  S   S135      1.0  0.16546  0.87048  0.60203  1.0000
  Fe  Fe69      1.0  0.13586  0.80929  0.57510  1.0000
  Fe  Fe70      1.0  0.14185  0.85243  0.54040  1.0000
  S   S136      1.0  0.16957  0.80933  0.58534  1.0000
  S   S137      1.0  0.17635  0.85571  0.54719  1.0000
  S   S138      1.0  0.25049  0.79864  0.66762  1.0000
  Fe  Fe71      1.0  0.17752  0.67317  0.64077  1.0000
  C   C313      1.0  0.31224  0.67741  0.65984  1.0000
  S   S139      1.0  0.16031  0.67950  0.61206  1.0000
  Fe  Fe72      1.0  0.22255  0.66056  0.65737  1.0000
  S   S140      1.0  0.20505  0.66562  0.69085  1.0000
  H   H491      1.0  0.11174  0.92057  0.59724  1.0000
  Fe  Fe73      1.0  0.18513  0.69700  0.67409  1.0000
  S   S141      1.0  0.17522  0.73025  0.68612  1.0000
  C   C314      1.0  0.30857  0.77887  0.71811  1.0000
  S   S142      1.0  0.20534  0.69410  0.64072  1.0000
  Fe  Fe74      1.0  0.23375  0.82973  0.68184  1.0000
  C   C315      1.0  0.16117  0.97272  0.64374  1.0000
  C   C316      1.0  0.14096  0.84089  0.66472  1.0000
  H   H492      1.0  0.23420  0.74235  0.73351  1.0000
  S   S143      1.0  0.20559  0.85274  0.66700  1.0000
  C   C317      1.0  0.22922  0.78040  0.67076  1.0000
  C   C318      1.0  0.23501  0.76010  0.66247  1.0000
  C   C319      1.0  0.21832  0.74475  0.66641  1.0000
  C   C320      1.0  0.19590  0.74979  0.67871  1.0000
  C   C321      1.0  0.18992  0.77054  0.68615  1.0000
  C   C322      1.0  0.20646  0.78584  0.68207  1.0000
  H   H493      1.0  0.25253  0.75602  0.65347  1.0000
  H   H494      1.0  0.22301  0.72882  0.66045  1.0000
  H   H495      1.0  0.17258  0.77462  0.69555  1.0000
  H   H496      1.0  0.20156  0.80169  0.68807  1.0000
  C   C323      1.0  0.12604  0.75379  0.59576  1.0000
  C   C324      1.0  0.11432  0.73543  0.59596  1.0000
  C   C325      1.0  0.12506  0.71267  0.60073  1.0000
  C   C326      1.0  0.14720  0.70811  0.60615  1.0000
  H   H497      1.0  0.22229  0.81363  0.57921  1.0000
  H   H498      1.0  0.09702  0.73881  0.59210  1.0000
  H   H499      1.0  0.11603  0.69855  0.60055  1.0000
  C   C327      1.0  0.15579  0.86527  0.63027  1.0000
  C   C328      1.0  0.15981  0.88101  0.64146  1.0000
  C   C329      1.0  0.14568  0.84547  0.64182  1.0000
  H   H500      1.0  0.16813  0.89606  0.63263  1.0000
  H   H501      1.0  0.14265  0.83321  0.63316  1.0000
  C   C330      1.0  0.20030  0.95561  0.62906  1.0000
  N   N31       1.0  0.10607  0.93274  0.62709  1.0000
  C   C331      1.0  0.30426  0.70072  0.65319  1.0000
  C   C332      1.0  0.22296  0.79486  0.51055  1.0000
  H   H502      1.0  0.27603  0.95379  0.69789  1.0000
  H   H503      1.0  0.18599  0.74767  0.56493  1.0000
  H   H504      1.0  0.10202  0.93660  0.66005  1.0000
  H   H505      1.0  0.19158  0.81613  0.50277  1.0000
  C   C333      1.0  0.08053  0.93777  0.62784  1.0000
  H   H506      1.0  0.18782  0.69853  0.53874  1.0000
  H   H507      1.0  0.23870  0.83764  0.56981  1.0000
  H   H508      1.0  0.15100  0.73497  0.55736  1.0000
  H   H509      1.0  0.21499  0.93059  0.68964  1.0000
  H   H510      1.0  0.20808  0.84222  0.58157  1.0000
  H   H511      1.0  0.14958  0.90006  0.54017  1.0000
  H   H512      1.0  0.18553  0.70702  0.56410  1.0000
  H   H513      1.0  0.20911  0.79945  0.61924  1.0000
  H   H514      1.0  0.17600  0.72301  0.61038  1.0000
  N   N32       1.0  0.23018  0.82695  0.60459  1.0000
  C   C334      1.0  0.25233  0.81127  0.60549  1.0000
  C   C335      1.0  0.23274  0.84947  0.60876  1.0000
  C   C336      1.0  0.21105  0.81684  0.62129  1.0000
  C   C337      1.0  0.22456  0.83024  0.58286  1.0000
  H   H515      1.0  0.25095  0.79406  0.60256  1.0000
  H   H516      1.0  0.25713  0.80840  0.62167  1.0000
  H   H517      1.0  0.26717  0.81834  0.59312  1.0000
  H   H518      1.0  0.21599  0.86141  0.60906  1.0000
  H   H519      1.0  0.23783  0.84748  0.62471  1.0000
  H   H520      1.0  0.24642  0.85806  0.59607  1.0000
  H   H521      1.0  0.19395  0.82789  0.62061  1.0000
  H   H522      1.0  0.21433  0.81505  0.63790  1.0000
  S   S144      1.0  0.11209  0.78206  0.58968  1.0000
  C   C338      1.0  0.15473  0.87667  0.66411  1.0000
  C   C339      1.0  0.19313  0.71112  0.54636  1.0000
  C   C340      1.0  0.15924  0.73854  0.53980  1.0000
  N   N33       1.0  0.32340  0.79681  0.71661  1.0000
  C   C341      1.0  0.14615  0.85626  0.67583  1.0000
  H   H523      1.0  0.15973  0.88814  0.67241  1.0000
  N   N34       1.0  0.18510  0.73512  0.53655  1.0000
  H   H524      1.0  0.00857  0.97394  0.64883  1.0000
  H   H525      1.0  0.13488  0.82482  0.67373  1.0000
  C   C342      1.0  0.01604  0.95733  0.65684  1.0000
  H   H526      1.0  0.08403  0.93052  0.73560  1.0000
  H   H527      1.0  0.28177  0.69335  0.73384  1.0000
  H   H528      1.0  0.10808  0.92100  0.70123  1.0000
  S   S145      1.0  0.25148  0.85938  0.68277  1.0000
  S   S146      1.0  0.22320  0.91521  0.64733  1.0000
  C   C343      1.0  0.19266  0.75113  0.54709  1.0000
  C   C344      1.0  0.20660  0.80440  0.49726  1.0000
  S   S147      1.0  0.12577  0.87990  0.51614  1.0000
  H   H529      1.0  0.08396  0.91312  0.51888  1.0000
  H   H530      1.0  0.07659  0.94430  0.61132  1.0000
  C   C345      1.0  0.14836  0.74928  0.60089  1.0000
  C   C346      1.0  0.15880  0.72643  0.60637  1.0000
  Fe  Fe75      1.0  0.22021  0.88230  0.67212  1.0000
  H   H531      1.0  0.08260  0.88725  0.49699  1.0000
  Fe  Fe76      1.0  0.18575  0.85150  0.70122  1.0000
  C   C347      1.0  0.09573  0.91737  0.52748  1.0000
  S   S148      1.0  0.21325  0.82632  0.71601  1.0000
  C   C348      1.0  0.18170  0.97351  0.62779  1.0000
  H   H532      1.0  0.21488  0.73752  0.50995  1.0000
  C   C349      1.0  0.24216  0.77936  0.50347  1.0000
  C   C350      1.0  0.27553  0.73391  0.70624  1.0000
  H   H533      1.0  0.21212  0.74976  0.54426  1.0000
  H   H534      1.0  0.29337  0.72445  0.70200  1.0000
  C   C351      1.0  0.02972  0.95621  0.67219  1.0000
  N   N35       1.0  0.11480  0.76067  0.66415  1.0000
  H   H535      1.0  0.15742  0.76332  0.60103  1.0000
  C   C352      1.0  0.11767  0.90429  0.52816  1.0000
  S   S149      1.0  0.14804  0.84789  0.70333  1.0000
  C   C353      1.0  0.19856  0.93652  0.64617  1.0000
  H   H536      1.0  0.13252  0.72643  0.67224  1.0000
  C   C354      1.0  0.03977  0.93489  0.68245  1.0000
  S   S150      1.0  0.05916  0.93363  0.69976  1.0000
  C   C355      1.0  0.15915  0.95354  0.66090  1.0000
  C   C356      1.0  0.17786  0.93541  0.66211  1.0000
  H   H537      1.0  0.07168  0.92207  0.63506  1.0000
  H   H538      1.0  0.17642  0.92082  0.67545  1.0000
  C   C357      1.0  0.11034  0.92404  0.64938  1.0000
  H   H539      1.0  0.17698  0.88619  0.50372  1.0000
  H   H540      1.0  0.11006  0.96765  0.62700  1.0000
  S   S151      1.0  0.03091  0.94175  0.57553  1.0000
  C   C358      1.0  0.03492  0.91460  0.67821  1.0000
  S   S152      1.0  0.19885  0.88267  0.70548  1.0000
  C   C359      1.0  0.02046  0.91569  0.66344  1.0000
  C   C360      1.0  0.19536  0.73976  0.51303  1.0000
  S   S153      1.0  0.31929  0.72204  0.65613  1.0000
  H   H541      1.0  0.27136  0.74493  0.69081  1.0000
  H   H542      1.0  0.10979  0.89830  0.62115  1.0000
  C   C361      1.0  0.23461  0.73119  0.72183  1.0000
  C   C362      1.0  0.13256  0.90989  0.53965  1.0000
  C   C363      1.0  0.26210  0.92514  0.67838  1.0000
  H   H543      1.0  0.07215  0.95098  0.63773  1.0000
  S   S154      1.0  0.15586  0.67818  0.67321  1.0000
  H   H544      1.0  0.13087  0.75890  0.69123  1.0000
  Fe  Fe77      1.0  0.05393  0.96914  0.57121  1.0000
  H   H545      1.0  0.31710  0.81436  0.68504  1.0000
  H   H546      1.0  0.25359  0.69509  0.63972  1.0000
  H   H547      1.0  0.14329  0.95281  0.67320  1.0000
  H   H548      1.0  0.07115  0.94480  0.53912  1.0000
  H   H549      1.0  0.12661  0.78192  0.63306  1.0000
  C   C364      1.0  0.11727  0.95393  0.61748  1.0000
  C   C365      1.0  0.24513  0.92356  0.71643  1.0000
  H   H550      1.0  0.13698  0.93244  0.55960  1.0000
  H   H551      1.0  0.13652  0.95066  0.61693  1.0000
  Fe  Fe78      1.0  0.00851  0.95915  0.60189  1.0000
  H   H552      1.0  0.28007  0.91941  0.68176  1.0000
  H   H553      1.0  0.03220  0.97196  0.67620  1.0000
  C   C366      1.0  0.22379  0.94568  0.68911  1.0000
  H   H554      1.0  0.19012  0.72803  0.50444  1.0000
  H   H555      1.0  0.09987  0.77046  0.63554  1.0000
  C   C367      1.0  0.12542  0.92829  0.55067  1.0000
  H   H556      1.0  0.11700  0.78704  0.68095  1.0000
  H   H557      1.0  0.24754  0.96913  0.70589  1.0000
  C   C368      1.0  0.10307  0.94067  0.55078  1.0000
  C   C369      1.0  0.08836  0.93530  0.53904  1.0000
  C   C370      1.0  0.11624  0.91521  0.61363  1.0000
  H   H558      1.0  0.04620  0.96362  0.51753  1.0000
  C   C371      1.0  0.12198  0.91177  0.71026  1.0000
  H   H559      1.0  0.31371  0.76273  0.72943  1.0000
  H   H560      1.0  0.08266  0.74621  0.66961  1.0000
  H   H561      1.0  0.04246  0.89804  0.68620  1.0000
  H   H562      1.0  0.14458  0.77552  0.66619  1.0000
  H   H563      1.0  0.08081  0.76964  0.68318  1.0000
  C   C372      1.0  0.11007  0.77747  0.64451  1.0000
  H   H564      1.0  0.11483  0.96083  0.60054  1.0000
  C   C373      1.0  0.32331  0.86489  0.72808  1.0000
  H   H565      1.0  0.25320  0.71309  0.68607  1.0000
  C   C374      1.0  0.12940  0.73980  0.65776  1.0000
  H   H566      1.0  0.31837  0.88035  0.69562  1.0000
  H   H567      1.0  0.27567  0.87863  0.70438  1.0000
  N   N36       1.0  0.11188  0.90237  0.73314  1.0000
  H   H568      1.0  0.09535  0.74167  0.69319  1.0000
  H   H569      1.0  0.14694  0.74367  0.64803  1.0000
  H   H570      1.0  0.12102  0.73200  0.64784  1.0000
  C   C375      1.0  0.30988  0.87341  0.71203  1.0000
  C   C376      1.0  0.26984  0.69010  0.64544  1.0000
  C   C377      1.0  0.09238  0.75430  0.67817  1.0000
  H   H571      1.0  0.21220  0.95603  0.70063  1.0000
  C   C378      1.0  0.27766  0.66680  0.65233  1.0000
  H   H572      1.0  0.27737  0.72501  0.64003  1.0000
  C   C379      1.0  0.12730  0.77105  0.67615  1.0000
  H   H573      1.0  0.15288  0.72688  0.53191  1.0000
  H   H574      1.0  0.22961  0.74268  0.70707  1.0000
  C   C380      1.0  0.28333  0.70703  0.64553  1.0000
  H   H575      1.0  0.31008  0.77444  0.70198  1.0000
  H   H576      1.0  0.08129  0.89401  0.72539  1.0000
  H   H577      1.0  0.01670  0.89998  0.66020  1.0000
  H   H578      1.0  0.25482  0.77187  0.51368  1.0000
  Fe  Fe79      1.0  0.01143  0.96825  0.55302  1.0000
  S   S155      1.0  0.09302  0.96196  0.56655  1.0000
  N   N37       1.0  0.25799  0.71788  0.71666  1.0000
  H   H579      1.0  0.26373  0.93556  0.66156  1.0000
  H   H580      1.0  0.26252  0.91779  0.72114  1.0000
  C   C381      1.0  0.29905  0.66043  0.65921  1.0000
  H   H581      1.0  0.18611  0.76933  0.54067  1.0000
  C   C382      1.0  0.25823  0.95879  0.69393  1.0000
  H   H582      1.0  0.13444  0.92413  0.70901  1.0000
  H   H583      1.0  0.09976  0.79379  0.64855  1.0000
  H   H584      1.0  0.23726  0.90773  0.71736  1.0000
  Fe  Fe80      1.0  0.06949  0.96892  0.69483  1.0000
  H   H585      1.0  0.26013  0.97026  0.67757  1.0000
  H   H586      1.0  0.12942  0.92105  0.64947  1.0000
  H   H587      1.0  0.13161  0.89777  0.70178  1.0000
  H   H588      1.0  0.18967  0.75776  0.50516  1.0000
  C   C383      1.0  0.01790  0.96533  0.50141  1.0000
  H   H589      1.0  0.10304  0.90752  0.65690  1.0000
  S   S156      1.0  0.10199  0.97761  0.70191  1.0000
  H   H590      1.0  0.21616  0.95665  0.61670  1.0000
  C   C384      1.0  0.09587  0.88572  0.73393  1.0000
  H   H591      1.0  0.13569  0.91242  0.61106  1.0000
  H   H592      1.0  0.25440  0.90952  0.67845  1.0000
  N   N38       1.0  0.24731  0.93829  0.69448  1.0000
  H   H593      1.0  0.21256  0.70801  0.54441  1.0000
  C   C385      1.0  0.01130  0.93709  0.65250  1.0000
  H   H594      1.0  0.28976  0.78474  0.72422  1.0000
  C   C386      1.0  0.28571  0.87220  0.71690  1.0000
  Fe  Fe81      1.0  0.22905  0.85774  0.71610  1.0000
  H   H595      1.0  0.15251  0.75659  0.53294  1.0000
  C   C387      1.0  0.27464  0.86294  0.73796  1.0000
  C   C388      1.0  0.25754  0.70281  0.70165  1.0000
  C   C389      1.0  0.31600  0.81786  0.70146  1.0000
  H   H596      1.0  0.24426  0.69068  0.70868  1.0000
  C   C390      1.0  0.04116  0.96598  0.50214  1.0000
  H   H597      1.0  0.20813  0.85366  0.49716  1.0000
  H   H598      1.0  0.23386  0.93277  0.72901  1.0000
  H   H599      1.0  0.22073  0.71970  0.72896  1.0000
  H   H600      1.0  0.27646  0.74546  0.71712  1.0000
  H   H601      1.0  0.22481  0.95632  0.67240  1.0000
  H   H602      1.0  0.10524  0.87116  0.72599  1.0000
  H   H603      1.0  0.29758  0.82513  0.70739  1.0000
  H   H604      1.0  0.14123  0.87608  0.73684  1.0000
  S   S157      1.0  0.99659  0.96331  0.52552  1.0000
  C   C391      1.0  0.32081  0.80216  0.73833  1.0000
  C   C392      1.0  0.26425  0.70365  0.73696  1.0000
  H   H605      1.0  0.16803  0.85347  0.49106  1.0000
  S   S158      1.0  0.32719  0.68075  0.70919  1.0000
  H   H606      1.0  0.27938  0.84851  0.77070  1.0000
  H   H607      1.0  0.32513  0.78654  0.75049  1.0000
  C   C393      1.0  0.28786  0.85543  0.75428  1.0000
  H   H608      1.0  0.09095  0.91500  0.76109  1.0000
  H   H609      1.0  0.26506  0.71451  0.74855  1.0000
  H   H610      1.0  0.29738  0.72726  0.79702  1.0000
  C   C394      1.0  0.13100  0.89055  0.74452  1.0000
  H   H611      1.0  0.12407  0.88315  0.76183  1.0000
  H   H612      1.0  0.11017  0.93448  0.74320  1.0000
  S   S159      1.0  0.31345  0.71231  0.75645  1.0000
  H   H613      1.0  0.14352  0.90255  0.74416  1.0000
  H   H614      1.0  0.08791  0.87825  0.75094  1.0000
  H   H615      1.0  0.25133  0.69143  0.74530  1.0000
  C   C395      1.0  0.31374  0.73395  0.78913  1.0000
  H   H616      1.0  0.31407  0.75110  0.81490  1.0000
  C   C396      1.0  0.32558  0.72891  0.76903  1.0000
  S   S160      1.0  0.24442  0.86058  0.74406  1.0000
  H   H617      1.0  0.32237  0.84984  0.76189  1.0000
  H   H618      1.0  0.30254  0.80961  0.74452  1.0000
  C   C397      1.0  0.31220  0.85621  0.74932  1.0000
  C   C398      1.0  0.32317  0.74743  0.79922  1.0000
  C   C399      1.0  0.09872  0.92140  0.74375  1.0000
  H   H619      1.0  0.45965  0.00698  0.14971  1.0000
  H   H620      1.0  0.56559  0.10907  0.22549  1.0000
  C   C400      1.0  0.46012  0.98802  0.15185  1.0000
  H   H621      1.0  0.54261  0.00697  0.19578  1.0000
  H   H622      1.0  0.60856  0.00352  0.16112  1.0000
  H   H623      1.0  0.61431  0.02749  0.21065  1.0000
  Fe  Fe82      1.0  0.62083  0.07680  0.19914  1.0000
  C   C401      1.0  0.55836  0.01141  0.19877  1.0000
  S   S161      1.0  0.63397  0.10841  0.17686  1.0000
  S   S162      1.0  0.65194  0.98934  0.05851  1.0000
  H   H624      1.0  0.56580  0.01233  0.14132  1.0000
  H   H625      1.0  0.59540  0.01461  0.10591  1.0000
  C   C402      1.0  0.61091  0.00693  0.14309  1.0000
  C   C403      1.0  0.65411  0.07563  0.12995  1.0000
  H   H626      1.0  0.43710  0.00417  0.18823  1.0000
  S   S163      1.0  0.63998  0.03940  0.09015  1.0000
  C   C404      1.0  0.58194  0.04059  0.19965  1.0000
  N   N39       1.0  0.59907  0.99113  0.13596  1.0000
  S   S164      1.0  0.58557  0.06985  0.19588  1.0000
  H   H627      1.0  0.64418  0.08568  0.14164  1.0000
  C   C405      1.0  0.64106  0.18566  0.22847  1.0000
  N   N40       1.0  0.56523  0.14009  0.20081  1.0000
  C   C406      1.0  0.59883  0.02314  0.20707  1.0000
  H   H628      1.0  0.54311  0.15921  0.22386  1.0000
  C   C407      1.0  0.56173  0.03468  0.19542  1.0000
  H   H629      1.0  0.59796  0.15155  0.18282  1.0000
  H   H630      1.0  0.54856  0.04813  0.18977  1.0000
  S   S165      1.0  0.63219  0.15261  0.20977  1.0000
  H   H631      1.0  0.62329  0.06823  0.12169  1.0000
  C   C408      1.0  0.64295  0.16196  0.22907  1.0000
  H   H632      1.0  0.59352  0.98496  0.10606  1.0000
  H   H633      1.0  0.60845  0.98654  0.21651  1.0000
  C   C409      1.0  0.64225  0.06574  0.11864  1.0000
  Fe  Fe83      1.0  0.64319  0.11563  0.20623  1.0000
  H   H634      1.0  0.60390  0.02528  0.13769  1.0000
  H   H635      1.0  0.65140  0.99921  0.01416  1.0000
  C   C410      1.0  0.57521  0.99399  0.20640  1.0000
  H   H636      1.0  0.63281  0.19783  0.21639  1.0000
  H   H637      1.0  0.62126  0.99414  0.10427  1.0000
  C   C411      1.0  0.57374  0.99409  0.14550  1.0000
  H   H638      1.0  0.41609  0.00970  0.15832  1.0000
  C   C412      1.0  0.60239  0.99642  0.11201  1.0000
  H   H639      1.0  0.57248  0.17159  0.17807  1.0000
  S   S166      1.0  0.65522  0.05475  0.19224  1.0000
  C   C413      1.0  0.65491  0.05239  0.10366  1.0000
  C   C414      1.0  0.54183  0.15010  0.21106  1.0000
  C   C415      1.0  0.59544  0.99994  0.21047  1.0000
  S   S167      1.0  0.62778  0.08531  0.22903  1.0000
  H   H640      1.0  0.63006  0.00521  0.13610  1.0000
  C   C416      1.0  0.58016  0.15860  0.19070  1.0000
  H   H641      1.0  0.58031  0.12024  0.17602  1.0000
  H   H642      1.0  0.57878  0.13192  0.23032  1.0000
  C   C417      1.0  0.56289  0.12804  0.18402  1.0000
  H   H643      1.0  0.55462  0.13990  0.17111  1.0000
  H   H644      1.0  0.59363  0.11561  0.21019  1.0000
  H   H645      1.0  0.56407  0.98333  0.13956  1.0000
  H   H646      1.0  0.57052  0.98896  0.16352  1.0000
  C   C418      1.0  0.57615  0.12350  0.21754  1.0000
  H   H647      1.0  0.55217  0.11359  0.19116  1.0000
  H   H648      1.0  0.53025  0.13648  0.21888  1.0000
  C   C419      1.0  0.65724  0.99780  0.99737  1.0000
  H   H649      1.0  0.58278  0.16772  0.20300  1.0000
  H   H650      1.0  0.53305  0.16273  0.19891  1.0000
  C   C420      1.0  0.43954  0.98524  0.18911  1.0000
  C   C421      1.0  0.41784  0.99061  0.16053  1.0000
  H   H651      1.0  0.46091  0.98412  0.13564  1.0000
  H   H652      1.0  0.62222  0.00387  0.99106  1.0000
  H   H653      1.0  0.40214  0.98466  0.17247  1.0000
  H   H654      1.0  0.41734  0.98645  0.14471  1.0000
  H   H655      1.0  0.65769  0.26037  0.38387  1.0000
  C   C422      1.0  0.62649  0.27890  0.32720  1.0000
  C   C423      1.0  0.62628  0.30038  0.31312  1.0000
  C   C424      1.0  0.62331  0.27749  0.34965  1.0000
  S   S168      1.0  0.63058  0.30229  0.28499  1.0000
  Fe  Fe84      1.0  0.65867  0.27475  0.27412  1.0000
  H   H656      1.0  0.62831  0.26339  0.32087  1.0000
  H   H657      1.0  0.64854  0.21200  0.24262  1.0000
  S   S169      1.0  0.61760  0.29512  0.38612  1.0000
  C   C425      1.0  0.65353  0.14630  0.24478  1.0000
  C   C426      1.0  0.62043  0.29750  0.35805  1.0000
  C   C427      1.0  0.65002  0.19373  0.24329  1.0000
  H   H658      1.0  0.62294  0.26086  0.36053  1.0000
  S   S170      1.0  0.66011  0.25434  0.24866  1.0000
  H   H659      1.0  0.65498  0.12797  0.24540  1.0000
  H   H660      1.0  0.62705  0.29945  0.62712  1.0000
  H   H661      1.0  0.59030  0.29923  0.58562  1.0000
  H   H662      1.0  0.62143  0.19716  0.71368  1.0000
  S   S171      1.0  0.61461  0.28110  0.69660  1.0000
  C   C428      1.0  0.64553  0.29284  0.62861  1.0000
  H   H663      1.0  0.57354  0.28179  0.62368  1.0000
  S   S172      1.0  0.56644  0.29785  0.66356  1.0000
  H   H664      1.0  0.64316  0.26653  0.72745  1.0000
  H   H665      1.0  0.64858  0.27436  0.62743  1.0000
  H   H666      1.0  0.64702  0.29369  0.64526  1.0000
  C   C429      1.0  0.57840  0.29903  0.61986  1.0000
  C   C430      1.0  0.62191  0.19365  0.73126  1.0000
  H   H667      1.0  0.64148  0.31033  0.58764  1.0000
  H   H668      1.0  0.63958  0.18445  0.73327  1.0000
  C   C431      1.0  0.58786  0.30890  0.59836  1.0000
  H   H669      1.0  0.60372  0.16129  0.71978  1.0000
  Fe  Fe85      1.0  0.60065  0.29119  0.72899  1.0000
  C   C432      1.0  0.64450  0.25036  0.73881  1.0000
  H   H670      1.0  0.62024  0.21065  0.73593  1.0000
  C   C433      1.0  0.57594  0.31115  0.63651  1.0000
  Fe  Fe86      1.0  0.58575  0.30731  0.68571  1.0000
  H   H671      1.0  0.57789  0.19785  0.72501  1.0000
  Fe  Fe87      1.0  0.63509  0.31074  0.68981  1.0000
  H   H672      1.0  0.62249  0.14777  0.73868  1.0000
  C   C434      1.0  0.60526  0.15828  0.73708  1.0000
  C   C435      1.0  0.65971  0.30438  0.59008  1.0000
  S   S173      1.0  0.56964  0.31508  0.71880  1.0000
  C   C436      1.0  0.64168  0.03009  0.79279  1.0000
  H   H673      1.0  0.56537  0.18410  0.75211  1.0000
  H   H674      1.0  0.65289  0.07716  0.92239  1.0000
  H   H675      1.0  0.61746  0.99792  0.82133  1.0000
  C   C437      1.0  0.58002  0.19368  0.74222  1.0000
  H   H676      1.0  0.57795  0.21037  0.74769  1.0000
  S   S174      1.0  0.64214  0.02629  0.88355  1.0000
  H   H677      1.0  0.62810  0.04545  0.79230  1.0000
  N   N41       1.0  0.63327  0.01042  0.78802  1.0000
  S   S175      1.0  0.59997  0.26397  0.75935  1.0000
  S   S176      1.0  0.62659  0.00088  0.94677  1.0000
  C   C438      1.0  0.64071  0.00049  0.98421  1.0000
  C   C439      1.0  0.64795  0.99864  0.96236  1.0000
  H   H678      1.0  0.62253  0.16578  0.76980  1.0000
  H   H679      1.0  0.64854  0.07574  0.87615  1.0000
  H   H680      1.0  0.61136  0.03152  0.76673  1.0000
  Fe  Fe88      1.0  0.65255  0.11844  0.77960  1.0000
  H   H681      1.0  0.57557  0.08853  0.79344  1.0000
  H   H682      1.0  0.56595  0.05386  0.82158  1.0000
  H   H683      1.0  0.59176  0.16402  0.77793  1.0000
  H   H684      1.0  0.65761  0.03527  0.78073  1.0000
  N   N42       1.0  0.60305  0.18019  0.74452  1.0000
  H   H685      1.0  0.65042  0.19275  0.78003  1.0000
  C   C440      1.0  0.62626  0.01735  0.76667  1.0000
  H   H686      1.0  0.64611  0.02591  0.80922  1.0000
  C   C441      1.0  0.58154  0.06142  0.82073  1.0000
  S   S177      1.0  0.59092  0.02538  0.85319  1.0000
  H   H687      1.0  0.63699  0.08880  0.81807  1.0000
  C   C442      1.0  0.65803  0.08893  0.87883  1.0000
  S   S178      1.0  0.61519  0.11361  0.78232  1.0000
  C   C443      1.0  0.65227  0.99088  0.78758  1.0000
  H   H688      1.0  0.64094  0.02365  0.75362  1.0000
  C   C444      1.0  0.59661  0.05123  0.83508  1.0000
  Fe  Fe89      1.0  0.62075  0.00848  0.86957  1.0000
  C   C445      1.0  0.58694  0.08104  0.80487  1.0000
  C   C446      1.0  0.60728  0.09060  0.80353  1.0000
  C   C447      1.0  0.62179  0.08098  0.81848  1.0000
  C   C448      1.0  0.61664  0.06112  0.83406  1.0000
  C   C449      1.0  0.62659  0.24568  0.75699  1.0000
  H   H689      1.0  0.65645  0.05166  0.91146  1.0000
  Fe  Fe90      1.0  0.63844  0.99671  0.91199  1.0000
  C   C450      1.0  0.62922  0.22524  0.77229  1.0000
  C   C451      1.0  0.60501  0.17513  0.76759  1.0000
  H   H690      1.0  0.62828  0.05343  0.84511  1.0000
  H   H691      1.0  0.61573  0.22191  0.78673  1.0000
  H   H692      1.0  0.64483  0.10119  0.88730  1.0000
  H   H693      1.0  0.59827  0.01779  0.80604  1.0000
  S   S179      1.0  0.65122  0.98718  0.85260  1.0000
  C   C452      1.0  0.64877  0.20866  0.76842  1.0000
  H   H694      1.0  0.60242  0.19116  0.77409  1.0000
  C   C453      1.0  0.61287  0.00338  0.80498  1.0000
  H   H695      1.0  0.62087  0.00266  0.76199  1.0000
  H   H696      1.0  0.65795  0.98523  0.80346  1.0000
  H   H697      1.0  0.59153  0.14748  0.74699  1.0000
  H   H698      1.0  0.60596  0.98869  0.80178  1.0000
  C   C454      1.0  0.64453  0.54405  0.18273  1.0000
  C   C455      1.0  0.61636  0.57669  0.17255  1.0000
  Fe  Fe91      1.0  0.56459  0.58241  0.22394  1.0000
  H   H699      1.0  0.60174  0.32024  0.23776  1.0000
  S   S180      1.0  0.56109  0.60359  0.19100  1.0000
  H   H700      1.0  0.65546  0.47629  0.21637  1.0000
  C   C456      1.0  0.40037  0.62922  0.21670  1.0000
  H   H701      1.0  0.65205  0.57049  0.20848  1.0000
  H   H702      1.0  0.41187  0.64286  0.21392  1.0000
  N   N43       1.0  0.63851  0.56929  0.18056  1.0000
  N   N44       1.0  0.62442  0.34655  0.22501  1.0000
  H   H703      1.0  0.42933  0.59501  0.23415  1.0000
  H   H704      1.0  0.40888  0.61728  0.20545  1.0000
  H   H705      1.0  0.64254  0.37513  0.20680  1.0000
  H   H706      1.0  0.61105  0.59563  0.17098  1.0000
  H   H707      1.0  0.61270  0.37783  0.20416  1.0000
  C   C457      1.0  0.64594  0.32989  0.22586  1.0000
  C   C458      1.0  0.47316  0.54895  0.23706  1.0000
  H   H708      1.0  0.53846  0.63962  0.23772  1.0000
  Fe  Fe92      1.0  0.66024  0.41208  0.23837  1.0000
  H   H709      1.0  0.62186  0.56654  0.21412  1.0000
  H   H710      1.0  0.47136  0.56354  0.22390  1.0000
  C   C459      1.0  0.56001  0.63334  0.18928  1.0000
  H   H711      1.0  0.65194  0.32274  0.21077  1.0000
  H   H712      1.0  0.65343  0.60003  0.16313  1.0000
  H   H713      1.0  0.63478  0.35850  0.19048  1.0000
  C   C460      1.0  0.63563  0.57551  0.20195  1.0000
  H   H714      1.0  0.61778  0.57244  0.15638  1.0000
  H   H715      1.0  0.60164  0.56818  0.18384  1.0000
  H   H716      1.0  0.36430  0.60564  0.23827  1.0000
  S   S181      1.0  0.33317  0.50513  0.23625  1.0000
  C   C461      1.0  0.57407  0.64163  0.19973  1.0000
  C   C462      1.0  0.65749  0.58095  0.16506  1.0000
  H   H717      1.0  0.58623  0.62981  0.20846  1.0000
  H   H718      1.0  0.58869  0.34651  0.22288  1.0000
  H   H719      1.0  0.38357  0.63768  0.21179  1.0000
  C   C463      1.0  0.64527  0.50517  0.23266  1.0000
  C   C464      1.0  0.62872  0.36528  0.20578  1.0000
  S   S182      1.0  0.57774  0.54449  0.22959  1.0000
  H   H720      1.0  0.63059  0.53476  0.19446  1.0000
  S   S183      1.0  0.32932  0.64698  0.22117  1.0000
  C   C465      1.0  0.60527  0.33455  0.22346  1.0000
  H   H721      1.0  0.63040  0.59435  0.20116  1.0000
  H   H722      1.0  0.60980  0.32694  0.20862  1.0000
  H   H723      1.0  0.64674  0.53865  0.16694  1.0000
  H   H724      1.0  0.39021  0.58588  0.23172  1.0000
  H   H725      1.0  0.62701  0.50253  0.23759  1.0000
  C   C466      1.0  0.65307  0.52295  0.23878  1.0000
  H   H726      1.0  0.66013  0.57667  0.14872  1.0000
  H   H727      1.0  0.50996  0.55008  0.23425  1.0000
  H   H728      1.0  0.53424  0.64263  0.16899  1.0000
  H   H729      1.0  0.64314  0.31509  0.23970  1.0000
  N   N45       1.0  0.39649  0.61683  0.23958  1.0000
  H   H730      1.0  0.34121  0.59589  0.33690  1.0000
  C   C467      1.0  0.62427  0.39215  0.30617  1.0000
  H   H731      1.0  0.37045  0.45211  0.27949  1.0000
  H   H732      1.0  0.53720  0.55903  0.37538  1.0000
  H   H733      1.0  0.48019  0.49608  0.28362  1.0000
  S   S184      1.0  0.39195  0.52026  0.29716  1.0000
  H   H734      1.0  0.57643  0.49922  0.27619  1.0000
  Fe  Fe93      1.0  0.38174  0.48710  0.29458  1.0000
  S   S185      1.0  0.39123  0.45309  0.31587  1.0000
  C   C468      1.0  0.65061  0.42087  0.29027  1.0000
  H   H735      1.0  0.62258  0.33713  0.31070  1.0000
  H   H736      1.0  0.50742  0.61902  0.36055  1.0000
  H   H737      1.0  0.36680  0.43936  0.25817  1.0000
  S   S186      1.0  0.56682  0.39005  0.43023  1.0000
  Fe  Fe94      1.0  0.46229  0.53929  0.37826  1.0000
  S   S187      1.0  0.43779  0.52461  0.40836  1.0000
  S   S188      1.0  0.45154  0.57497  0.36093  1.0000
  Fe  Fe95      1.0  0.49964  0.49794  0.38310  1.0000
  S   S189      1.0  0.47803  0.48007  0.41378  1.0000
  S   S190      1.0  0.53482  0.48133  0.36780  1.0000
  Fe  Fe96      1.0  0.44840  0.49161  0.39597  1.0000
  S   S191      1.0  0.42385  0.46594  0.39867  1.0000
  Fe  Fe97      1.0  0.47003  0.51481  0.42280  1.0000
  S   S192      1.0  0.46995  0.52200  0.45551  1.0000
  S   S193      1.0  0.47042  0.50711  0.36455  1.0000
  S   S194      1.0  0.49389  0.53194  0.39342  1.0000
  C   C469      1.0  0.49501  0.54146  0.24305  1.0000
  H   H738      1.0  0.50396  0.60107  0.40935  1.0000
  C   C470      1.0  0.49311  0.53749  0.45361  1.0000
  C   C471      1.0  0.48993  0.55488  0.46559  1.0000
  C   C472      1.0  0.50841  0.56737  0.46410  1.0000
  C   C473      1.0  0.52998  0.56267  0.45039  1.0000
  C   C474      1.0  0.53334  0.54488  0.43887  1.0000
  C   C475      1.0  0.51494  0.53227  0.44051  1.0000
  C   C476      1.0  0.38450  0.63306  0.25394  1.0000
  H   H739      1.0  0.34603  0.46283  0.26628  1.0000
  H   H740      1.0  0.55018  0.54081  0.42867  1.0000
  H   H741      1.0  0.51770  0.51842  0.43171  1.0000
  C   C477      1.0  0.56033  0.41665  0.41324  1.0000
  C   C478      1.0  0.57085  0.42081  0.39117  1.0000
  C   C479      1.0  0.56370  0.44124  0.37737  1.0000
  C   C480      1.0  0.54625  0.45766  0.38568  1.0000
  C   C481      1.0  0.53700  0.45421  0.40799  1.0000
  C   C482      1.0  0.54373  0.43358  0.42170  1.0000
  H   H742      1.0  0.58406  0.40810  0.38459  1.0000
  H   H743      1.0  0.57130  0.44401  0.36022  1.0000
  H   H744      1.0  0.52466  0.46740  0.41473  1.0000
  H   H745      1.0  0.53594  0.43070  0.43885  1.0000
  H   H746      1.0  0.51702  0.57660  0.35962  1.0000
  H   H747      1.0  0.59055  0.39956  0.45990  1.0000
  H   H748      1.0  0.33566  0.41441  0.26497  1.0000
  H   H749      1.0  0.47456  0.63902  0.25794  1.0000
  H   H750      1.0  0.33667  0.63734  0.31999  1.0000
  C   C483      1.0  0.40147  0.45655  0.33831  1.0000
  C   C484      1.0  0.39557  0.44178  0.35835  1.0000
  C   C485      1.0  0.40263  0.44484  0.37667  1.0000
  C   C486      1.0  0.41605  0.46240  0.37503  1.0000
  C   C487      1.0  0.42265  0.47676  0.35484  1.0000
  C   C488      1.0  0.41525  0.47391  0.33652  1.0000
  H   H751      1.0  0.38503  0.42827  0.35984  1.0000
  H   H752      1.0  0.39751  0.43366  0.39222  1.0000
  H   H753      1.0  0.43323  0.49018  0.35329  1.0000
  H   H754      1.0  0.42062  0.48485  0.32093  1.0000
  C   C489      1.0  0.51468  0.59989  0.31134  1.0000
  C   C490      1.0  0.49759  0.61567  0.32100  1.0000
  C   C491      1.0  0.47761  0.60808  0.33556  1.0000
  C   C492      1.0  0.47507  0.58462  0.34089  1.0000
  C   C493      1.0  0.49202  0.56888  0.33104  1.0000
  C   C494      1.0  0.51165  0.57658  0.31600  1.0000
  H   H755      1.0  0.49983  0.63374  0.31728  1.0000
  H   H756      1.0  0.46447  0.62024  0.34318  1.0000
  H   H757      1.0  0.49004  0.55075  0.33500  1.0000
  S   S195      1.0  0.42652  0.54760  0.24032  1.0000
  H   H758      1.0  0.51010  0.57130  0.40758  1.0000
  N   N46       1.0  0.52812  0.59393  0.38038  1.0000
  Fe  Fe98      1.0  0.35439  0.53397  0.29679  1.0000
  H   H759      1.0  0.61326  0.34299  0.25968  1.0000
  H   H760      1.0  0.54585  0.60489  0.40121  1.0000
  H   H761      1.0  0.57099  0.44625  0.31957  1.0000
  C   C495      1.0  0.35889  0.41014  0.29714  1.0000
  H   H762      1.0  0.60168  0.44080  0.32049  1.0000
  C   C496      1.0  0.38708  0.51784  0.38473  1.0000
  H   H763      1.0  0.40778  0.52980  0.34277  1.0000
  H   H764      1.0  0.38034  0.51970  0.34467  1.0000
  C   C497      1.0  0.35719  0.44688  0.27246  1.0000
  N   N47       1.0  0.38036  0.53869  0.36906  1.0000
  C   C498      1.0  0.49757  0.52252  0.25997  1.0000
  C   C499      1.0  0.35460  0.54457  0.37353  1.0000
  C   C500      1.0  0.39149  0.55803  0.37112  1.0000
  C   C501      1.0  0.53269  0.57678  0.36628  1.0000
  H   H765      1.0  0.34901  0.56048  0.36222  1.0000
  H   H766      1.0  0.34782  0.54751  0.39038  1.0000
  H   H767      1.0  0.38702  0.57404  0.35936  1.0000
  H   H768      1.0  0.41092  0.55402  0.36781  1.0000
  H   H769      1.0  0.38600  0.56189  0.38774  1.0000
  H   H770      1.0  0.62850  0.46791  0.29806  1.0000
  Fe  Fe99      1.0  0.64617  0.34439  0.42475  1.0000
  H   H771      1.0  0.38353  0.54960  0.33450  1.0000
  S   S196      1.0  0.55242  0.57969  0.44653  1.0000
  H   H772      1.0  0.40642  0.51306  0.38178  1.0000
  H   H773      1.0  0.49756  0.62982  0.27323  1.0000
  H   H774      1.0  0.61139  0.38215  0.30468  1.0000
  H   H775      1.0  0.36930  0.40144  0.28385  1.0000
  S   S197      1.0  0.56758  0.54711  0.28172  1.0000
  H   H776      1.0  0.39525  0.64691  0.25271  1.0000
  S   S198      1.0  0.60672  0.36302  0.38160  1.0000
  H   H777      1.0  0.52066  0.63068  0.37737  1.0000
  C   C502      1.0  0.38839  0.53424  0.34678  1.0000
  S   S199      1.0  0.53991  0.60940  0.29378  1.0000
  H   H778      1.0  0.38074  0.62412  0.27128  1.0000
  C   C503      1.0  0.32844  0.63181  0.29094  1.0000
  H   H779      1.0  0.56464  0.59666  0.37723  1.0000
  S   S200      1.0  0.33797  0.55548  0.32178  1.0000
  H   H780      1.0  0.50573  0.58115  0.47298  1.0000
  Fe  Fe100     1.0  0.55404  0.58990  0.47747  1.0000
  H   H781      1.0  0.54740  0.58054  0.35221  1.0000
  C   C504      1.0  0.57482  0.48105  0.28453  1.0000
  H   H782      1.0  0.49139  0.59032  0.39122  1.0000
  C   C505      1.0  0.54884  0.59265  0.38996  1.0000
  Fe  Fe101     1.0  0.59670  0.55278  0.25262  1.0000
  N   N48       1.0  0.49045  0.42116  0.37763  1.0000
  C   C506      1.0  0.51019  0.41324  0.38913  1.0000
  C   C507      1.0  0.46808  0.41946  0.39354  1.0000
  C   C508      1.0  0.49193  0.40661  0.36166  1.0000
  C   C509      1.0  0.49158  0.44537  0.36622  1.0000
  H   H783      1.0  0.52739  0.41484  0.37776  1.0000
  H   H784      1.0  0.51027  0.39490  0.39765  1.0000
  H   H785      1.0  0.50923  0.42361  0.40161  1.0000
  H   H786      1.0  0.46598  0.43094  0.40536  1.0000
  H   H787      1.0  0.45278  0.42470  0.38539  1.0000
  H   H788      1.0  0.46688  0.40159  0.40299  1.0000
  H   H789      1.0  0.47734  0.41233  0.35260  1.0000
  H   H790      1.0  0.49094  0.38823  0.36973  1.0000
  H   H791      1.0  0.47646  0.45226  0.35799  1.0000
  H   H792      1.0  0.50804  0.44737  0.35380  1.0000
  H   H793      1.0  0.49128  0.45666  0.37770  1.0000
  H   H794      1.0  0.34891  0.39729  0.30947  1.0000
  H   H795      1.0  0.53822  0.62124  0.35342  1.0000
  C   C510      1.0  0.62106  0.39123  0.48587  1.0000
  H   H796      1.0  0.50871  0.40741  0.34952  1.0000
  C   C511      1.0  0.61016  0.35764  0.47813  1.0000
  N   N49       1.0  0.34311  0.43045  0.28876  1.0000
  C   C512      1.0  0.47827  0.51082  0.27062  1.0000
  C   C513      1.0  0.50748  0.58902  0.39788  1.0000
  S   S201      1.0  0.62666  0.41061  0.26306  1.0000
  Fe  Fe102     1.0  0.59956  0.36965  0.41532  1.0000
  H   H797      1.0  0.55314  0.57517  0.39963  1.0000
  C   C514      1.0  0.63232  0.38816  0.32564  1.0000
  C   C515      1.0  0.52342  0.61728  0.36736  1.0000
  H   H798      1.0  0.62583  0.37493  0.33887  1.0000
  S   S202      1.0  0.63418  0.38155  0.41247  1.0000
  H   H799      1.0  0.44155  0.50923  0.27292  1.0000
  H   H800      1.0  0.52466  0.56433  0.30846  1.0000
  C   C516      1.0  0.58586  0.48640  0.31664  1.0000
  H   H801      1.0  0.37161  0.41520  0.30503  1.0000
  Fe  Fe103     1.0  0.55513  0.58455  0.27158  1.0000
  Fe  Fe104     1.0  0.62165  0.32748  0.39591  1.0000
  C   C517      1.0  0.63398  0.40803  0.28828  1.0000
  H   H802      1.0  0.59737  0.47987  0.32875  1.0000
  H   H803      1.0  0.34573  0.53064  0.37131  1.0000
  H   H804      1.0  0.62973  0.39627  0.46852  1.0000
  N   N50       1.0  0.59130  0.47252  0.29954  1.0000
  S   S203      1.0  0.36014  0.54539  0.26062  1.0000
  C   C518      1.0  0.45636  0.51834  0.26464  1.0000
  Fe  Fe105     1.0  0.39705  0.52870  0.26101  1.0000
  S   S204      1.0  0.34342  0.50005  0.29706  1.0000
  H   H805      1.0  0.61799  0.33447  0.35030  1.0000
  C   C519      1.0  0.33412  0.58479  0.30985  1.0000
  H   H806      1.0  0.43048  0.61988  0.24455  1.0000
  H   H807      1.0  0.37928  0.50275  0.38346  1.0000
  H   H808      1.0  0.59205  0.43735  0.29712  1.0000
  H   H809      1.0  0.61805  0.49271  0.27969  1.0000
  H   H810      1.0  0.38138  0.52042  0.40178  1.0000
  S   S205      1.0  0.61074  0.33301  0.43018  1.0000
  S   S206      1.0  0.63431  0.54080  0.25535  1.0000
  H   H811      1.0  0.57804  0.47067  0.27166  1.0000
  C   C520      1.0  0.61556  0.47445  0.28730  1.0000
  C   C521      1.0  0.58889  0.44815  0.30965  1.0000
  S   S207      1.0  0.53257  0.57910  0.25031  1.0000
  Fe  Fe106     1.0  0.35260  0.51008  0.26074  1.0000
  H   H812      1.0  0.62013  0.46438  0.27408  1.0000
  S   S208      1.0  0.52479  0.51345  0.26796  1.0000
  H   H813      1.0  0.58825  0.50476  0.30967  1.0000
  H   H814      1.0  0.56737  0.48608  0.32567  1.0000
  C   C522      1.0  0.49390  0.63644  0.25660  1.0000
  Fe  Fe107     1.0  0.54743  0.54199  0.25803  1.0000
  H   H815      1.0  0.55626  0.48043  0.29326  1.0000
  C   C523      1.0  0.64968  0.40036  0.32737  1.0000
  C   C524      1.0  0.62292  0.32046  0.32152  1.0000
  S   S209      1.0  0.39026  0.49417  0.25813  1.0000
  H   H816      1.0  0.61840  0.36272  0.46070  1.0000
  H   H817      1.0  0.41709  0.59572  0.26209  1.0000
  H   H818      1.0  0.47299  0.55905  0.47560  1.0000
  S   S210      1.0  0.58601  0.60196  0.48218  1.0000
  H   H819      1.0  0.57566  0.40797  0.48499  1.0000
  H   H820      1.0  0.59577  0.34757  0.47897  1.0000
  H   H821      1.0  0.60214  0.36983  0.24432  1.0000
  C   C525      1.0  0.65850  0.41701  0.30976  1.0000
  Fe  Fe108     1.0  0.64254  0.37185  0.37971  1.0000
  H   H822      1.0  0.34223  0.44749  0.31485  1.0000
  S   S211      1.0  0.58608  0.59104  0.24460  1.0000
  C   C526      1.0  0.33688  0.60123  0.32098  1.0000
  C   C527      1.0  0.45378  0.53750  0.24792  1.0000
  H   H823      1.0  0.56861  0.38320  0.47774  1.0000
  H   H824      1.0  0.63205  0.36471  0.24722  1.0000
  C   C528      1.0  0.33431  0.62469  0.31143  1.0000
  C   C529      1.0  0.32839  0.59189  0.28929  1.0000
  C   C530      1.0  0.58323  0.39283  0.47732  1.0000
  C   C531      1.0  0.33007  0.44165  0.30692  1.0000
  C   C532      1.0  0.41934  0.60647  0.24539  1.0000
  H   H825      1.0  0.62369  0.34583  0.48622  1.0000
  C   C533      1.0  0.61767  0.35642  0.24489  1.0000
  H   H826      1.0  0.37869  0.58868  0.25939  1.0000
  H   H827      1.0  0.36741  0.64153  0.24972  1.0000
  C   C534      1.0  0.38176  0.59848  0.24233  1.0000
  C   C535      1.0  0.62034  0.31899  0.34394  1.0000
  H   H828      1.0  0.50135  0.62266  0.24711  1.0000
  N   N51       1.0  0.60147  0.37801  0.48824  1.0000
  H   H829      1.0  0.65735  0.43391  0.27681  1.0000
  S   S212      1.0  0.65813  0.33571  0.39161  1.0000
  H   H830      1.0  0.51027  0.51229  0.48936  1.0000
  H   H831      1.0  0.52447  0.61862  0.59127  1.0000
  H   H832      1.0  0.47271  0.58159  0.63716  1.0000
  S   S213      1.0  0.58721  0.37943  0.71250  1.0000
  H   H833      1.0  0.63833  0.36436  0.70726  1.0000
  H   H834      1.0  0.51641  0.56835  0.60478  1.0000
  H   H835      1.0  0.54609  0.36227  0.70772  1.0000
  C   C536      1.0  0.52419  0.55430  0.68780  1.0000
  C   C537      1.0  0.58609  0.51971  0.54225  1.0000
  H   H836      1.0  0.58642  0.40186  0.64388  1.0000
  Fe  Fe109     1.0  0.45343  0.50861  0.67362  1.0000
  H   H837      1.0  0.63843  0.47126  0.54658  1.0000
  S   S214      1.0  0.41896  0.53023  0.67147  1.0000
  Fe  Fe110     1.0  0.50278  0.49610  0.64991  1.0000
  C   C538      1.0  0.53563  0.53044  0.58304  1.0000
  S   S215      1.0  0.47124  0.47743  0.66002  1.0000
  S   S216      1.0  0.48387  0.52846  0.66016  1.0000
  C   C539      1.0  0.39777  0.49141  0.68924  1.0000
  C   C540      1.0  0.39620  0.51520  0.68752  1.0000
  N   N52       1.0  0.61899  0.58597  0.57290  1.0000
  C   C541      1.0  0.34860  0.58656  0.72738  1.0000
  H   H838      1.0  0.41278  0.48236  0.68007  1.0000
  N   N53       1.0  0.43321  0.57785  0.70483  1.0000
  H   H839      1.0  0.56104  0.39829  0.66524  1.0000
  H   H840      1.0  0.56239  0.54970  0.64016  1.0000
  C   C542      1.0  0.49246  0.53482  0.52285  1.0000
  S   S217      1.0  0.59468  0.45120  0.56431  1.0000
  C   C543      1.0  0.55824  0.39235  0.71199  1.0000
  H   H841      1.0  0.55764  0.46176  0.64551  1.0000
  C   C544      1.0  0.59114  0.34344  0.60998  1.0000
  H   H842      1.0  0.50037  0.59995  0.65012  1.0000
  C   C545      1.0  0.42001  0.58502  0.68702  1.0000
  H   H843      1.0  0.62841  0.55199  0.59070  1.0000
  S   S218      1.0  0.52860  0.61603  0.49373  1.0000
  C   C546      1.0  0.50497  0.55749  0.56852  1.0000
  C   C547      1.0  0.48804  0.54678  0.58491  1.0000
  C   C548      1.0  0.49500  0.52791  0.60049  1.0000
  H   H844      1.0  0.42932  0.57773  0.67251  1.0000
  H   H845      1.0  0.46962  0.55303  0.58559  1.0000
  H   H846      1.0  0.48195  0.51957  0.61318  1.0000
  H   H847      1.0  0.56011  0.42374  0.60704  1.0000
  H   H848      1.0  0.55838  0.43895  0.66895  1.0000
  H   H849      1.0  0.50395  0.54873  0.51757  1.0000
  C   C549      1.0  0.35876  0.51487  0.71276  1.0000
  H   H850      1.0  0.49413  0.63079  0.59448  1.0000
  H   H851      1.0  0.53493  0.52752  0.66906  1.0000
  C   C550      1.0  0.50620  0.61431  0.59521  1.0000
  H   H852      1.0  0.63124  0.55391  0.56210  1.0000
  C   C551      1.0  0.54146  0.38011  0.70918  1.0000
  H   H853      1.0  0.34407  0.52390  0.72218  1.0000
  C   C552      1.0  0.55268  0.55720  0.65384  1.0000
  H   H854      1.0  0.54512  0.60608  0.67389  1.0000
  H   H855      1.0  0.52314  0.44794  0.63925  1.0000
  H   H856      1.0  0.51442  0.56575  0.63321  1.0000
  S   S219      1.0  0.51665  0.48248  0.68037  1.0000
  H   H857      1.0  0.62287  0.59206  0.53814  1.0000
  H   H858      1.0  0.44650  0.54468  0.69705  1.0000
  H   H859      1.0  0.51074  0.50854  0.55619  1.0000
  C   C553      1.0  0.56691  0.40396  0.64740  1.0000
  C   C554      1.0  0.51862  0.39104  0.70807  1.0000
  H   H860      1.0  0.56488  0.42498  0.71617  1.0000
  C   C555      1.0  0.52111  0.51051  0.50175  1.0000
  H   H861      1.0  0.44644  0.54633  0.72436  1.0000
  C   C556      1.0  0.51780  0.57773  0.61723  1.0000
  H   H862      1.0  0.52185  0.61548  0.63074  1.0000
  H   H863      1.0  0.40825  0.47155  0.73645  1.0000
  C   C557      1.0  0.45640  0.58618  0.69752  1.0000
  C   C558      1.0  0.62257  0.59774  0.58942  1.0000
  H   H864      1.0  0.53258  0.52445  0.49604  1.0000
  H   H865      1.0  0.58808  0.57271  0.59331  1.0000
  H   H866      1.0  0.49995  0.47644  0.52997  1.0000
  C   C559      1.0  0.62382  0.48474  0.54546  1.0000
  S   S220      1.0  0.52796  0.49621  0.61846  1.0000
  S   S221      1.0  0.49682  0.58112  0.54908  1.0000
  H   H867      1.0  0.57157  0.53310  0.54121  1.0000
  H   H868      1.0  0.40217  0.58204  0.72940  1.0000
  H   H869      1.0  0.64105  0.60113  0.58660  1.0000
  S   S222      1.0  0.60775  0.33618  0.67553  1.0000
  S   S223      1.0  0.55201  0.56206  0.50721  1.0000
  C   C560      1.0  0.58195  0.33351  0.63148  1.0000
  Fe  Fe111     1.0  0.49423  0.51306  0.69200  1.0000
  H   H870      1.0  0.63942  0.40557  0.69465  1.0000
  H   H871      1.0  0.61822  0.58723  0.60610  1.0000
  C   C561      1.0  0.47695  0.59342  0.62118  1.0000
  S   S224      1.0  0.50326  0.53927  0.70725  1.0000
  H   H872      1.0  0.55405  0.52439  0.58257  1.0000
  S   S225      1.0  0.60881  0.34203  0.56689  1.0000
  N   N54       1.0  0.50627  0.51175  0.52341  1.0000
  Fe  Fe112     1.0  0.52921  0.58912  0.52408  1.0000
  C   C562      1.0  0.59399  0.58287  0.57674  1.0000
  C   C563      1.0  0.62596  0.60006  0.55100  1.0000
  C   C564      1.0  0.56540  0.43490  0.61617  1.0000
  C   C565      1.0  0.60082  0.47942  0.55289  1.0000
  C   C566      1.0  0.51883  0.51962  0.59934  1.0000
  C   C567      1.0  0.52870  0.54945  0.56776  1.0000
  N   N55       1.0  0.50115  0.59914  0.61682  1.0000
  H   H873      1.0  0.63466  0.38093  0.49472  1.0000
  S   S226      1.0  0.62648  0.40120  0.53639  1.0000
  C   C568      1.0  0.53703  0.54467  0.67016  1.0000
  H   H874      1.0  0.48180  0.53674  0.53914  1.0000
  C   C569      1.0  0.54265  0.58912  0.67264  1.0000
  H   H875      1.0  0.54177  0.55807  0.55553  1.0000
  H   H876      1.0  0.52419  0.42511  0.66259  1.0000
  H   H877      1.0  0.52455  0.44414  0.71442  1.0000
  H   H878      1.0  0.53627  0.58133  0.61403  1.0000
  S   S227      1.0  0.55886  0.60079  0.53315  1.0000
  H   H879      1.0  0.64561  0.51191  0.53106  1.0000
  H   H880      1.0  0.57910  0.34329  0.64414  1.0000
  H   H881      1.0  0.58260  0.59974  0.57530  1.0000
  H   H882      1.0  0.58514  0.38526  0.51985  1.0000
  C   C570      1.0  0.43646  0.55246  0.71101  1.0000
  C   C571      1.0  0.50374  0.61103  0.63363  1.0000
  H   H883      1.0  0.56140  0.39185  0.63936  1.0000
  Fe  Fe113     1.0  0.58190  0.57609  0.51350  1.0000
  S   S228      1.0  0.33860  0.47539  0.73195  1.0000
  S   S229      1.0  0.61366  0.55400  0.52426  1.0000
  C   C572      1.0  0.56463  0.44342  0.65105  1.0000
  H   H884      1.0  0.59083  0.57353  0.56483  1.0000
  C   C573      1.0  0.52729  0.57640  0.68921  1.0000
  H   H885      1.0  0.65239  0.56478  0.57178  1.0000
  C   C574      1.0  0.42332  0.43235  0.72209  1.0000
  H   H886      1.0  0.38020  0.46126  0.70297  1.0000
  H   H887      1.0  0.49153  0.62739  0.63381  1.0000
  C   C575      1.0  0.35004  0.60954  0.72741  1.0000
  H   H888      1.0  0.48026  0.53819  0.51139  1.0000
  C   C576      1.0  0.53113  0.42997  0.64481  1.0000
  H   H889      1.0  0.64489  0.60219  0.54729  1.0000
  C   C577      1.0  0.55505  0.57968  0.65475  1.0000
  C   C578      1.0  0.62786  0.50773  0.53672  1.0000
  C   C579      1.0  0.65781  0.36158  0.70485  1.0000
  H   H890      1.0  0.40715  0.43052  0.71695  1.0000
  N   N56       1.0  0.55701  0.42804  0.63986  1.0000
  H   H891      1.0  0.58407  0.44231  0.64781  1.0000
  S   S230      1.0  0.46250  0.49492  0.70640  1.0000
  H   H892      1.0  0.47443  0.58467  0.60857  1.0000
  H   H893      1.0  0.55833  0.45302  0.60985  1.0000
  C   C580      1.0  0.60891  0.52521  0.53496  1.0000
  Fe  Fe114     1.0  0.48380  0.46566  0.69155  1.0000
  H   H894      1.0  0.52472  0.41857  0.63669  1.0000
  C   C581      1.0  0.52130  0.50756  0.53965  1.0000
  C   C582      1.0  0.55205  0.41550  0.71377  1.0000
  H   H895      1.0  0.61118  0.61460  0.58934  1.0000
  H   H896      1.0  0.46709  0.57857  0.68362  1.0000
  C   C583      1.0  0.49014  0.49407  0.52940  1.0000
  H   H897      1.0  0.51766  0.58379  0.70298  1.0000
  S   S231      1.0  0.57211  0.59617  0.63256  1.0000
  S   S232      1.0  0.62345  0.31899  0.72290  1.0000
  C   C584      1.0  0.63342  0.56317  0.57447  1.0000
  H   H898      1.0  0.41738  0.60682  0.71971  1.0000
  H   H899      1.0  0.56431  0.49295  0.55769  1.0000
  S   S233      1.0  0.37159  0.62400  0.70829  1.0000
  H   H900      1.0  0.58486  0.43383  0.61183  1.0000
  H   H901      1.0  0.59525  0.36077  0.60627  1.0000
  C   C585      1.0  0.52927  0.42644  0.71255  1.0000
  C   C586      1.0  0.59464  0.33098  0.59345  1.0000
  Fe  Fe115     1.0  0.62878  0.37142  0.56412  1.0000
  H   H902      1.0  0.53268  0.49378  0.50184  1.0000
  H   H903      1.0  0.53191  0.49026  0.54061  1.0000
  H   H904      1.0  0.50417  0.60591  0.58215  1.0000
  C   C587      1.0  0.51257  0.41429  0.70952  1.0000
  H   H905      1.0  0.46389  0.60919  0.62121  1.0000
  C   C588      1.0  0.58203  0.49697  0.55147  1.0000
  C   C589      1.0  0.65889  0.40242  0.69279  1.0000
  C   C590      1.0  0.59155  0.37039  0.51155  1.0000
  H   H906      1.0  0.47863  0.49457  0.54564  1.0000
  H   H907      1.0  0.45468  0.60528  0.69240  1.0000
  Fe  Fe116     1.0  0.59402  0.34222  0.70932  1.0000
  S   S234      1.0  0.48430  0.42810  0.70688  1.0000
  H   H908      1.0  0.64303  0.38000  0.66804  1.0000
  H   H909      1.0  0.60492  0.35902  0.52019  1.0000
  C   C591      1.0  0.37659  0.52698  0.69904  1.0000
  S   S235      1.0  0.62402  0.39334  0.58884  1.0000
  H   H910      1.0  0.57663  0.36046  0.51392  1.0000
  H   H911      1.0  0.61590  0.61757  0.54939  1.0000
  H   H912      1.0  0.37537  0.54539  0.69764  1.0000
  Fe  Fe117     1.0  0.56046  0.62568  0.50131  1.0000
  C   C592      1.0  0.37947  0.47949  0.70224  1.0000
  C   C593      1.0  0.36016  0.49112  0.71431  1.0000
  H   H913      1.0  0.50577  0.38151  0.70578  1.0000
  Fe  Fe118     1.0  0.62458  0.42297  0.56067  1.0000
  H   H914      1.0  0.42919  0.58228  0.73766  1.0000
  H   H915      1.0  0.41697  0.60412  0.68202  1.0000
  H   H916      1.0  0.36062  0.57793  0.71547  1.0000
  H   H917      1.0  0.57721  0.63745  0.53779  1.0000
  H   H918      1.0  0.40243  0.57894  0.69203  1.0000
  C   C594      1.0  0.41997  0.58764  0.72378  1.0000
  H   H919      1.0  0.53376  0.52052  0.53555  1.0000
  Fe  Fe119     1.0  0.56331  0.63428  0.63130  1.0000
  H   H920      1.0  0.63938  0.33850  0.61061  1.0000
  H   H921      1.0  0.43619  0.41685  0.71945  1.0000
  H   H922      1.0  0.61504  0.40732  0.49239  1.0000
  H   H923      1.0  0.41934  0.54545  0.71628  1.0000
  H   H924      1.0  0.43095  0.44747  0.71090  1.0000
  H   H925      1.0  0.46671  0.58118  0.71068  1.0000
  H   H926      1.0  0.47857  0.49674  0.51739  1.0000
  H   H927      1.0  0.65740  0.33282  0.63050  1.0000
  C   C595      1.0  0.65703  0.33081  0.61390  1.0000
  H   H928      1.0  0.42042  0.39846  0.75742  1.0000
  C   C596      1.0  0.40162  0.45593  0.74762  1.0000
  H   H929      1.0  0.40428  0.41596  0.77650  1.0000
  H   H930      1.0  0.38441  0.45457  0.74404  1.0000
  H   H931      1.0  0.45346  0.42128  0.74948  1.0000
  H   H932      1.0  0.43747  0.43924  0.76817  1.0000
  C   C597      1.0  0.40820  0.41459  0.75910  1.0000
  N   N57       1.0  0.41840  0.43497  0.74498  1.0000
  H   H933      1.0  0.39811  0.45896  0.76449  1.0000
  H   H934      1.0  0.39150  0.41264  0.75489  1.0000
  C   C598      1.0  0.44046  0.43693  0.75110  1.0000
  C   C599      1.0  0.33444  0.62069  0.74282  1.0000
  C   C600      1.0  0.33147  0.57478  0.74262  1.0000
  H   H935      1.0  0.33058  0.55698  0.74262  1.0000
  H   H936      1.0  0.33572  0.63831  0.74314  1.0000
  H   H937      1.0  0.44891  0.45182  0.74042  1.0000
  C   C601      1.0  0.54488  0.64894  0.17739  1.0000
  C   C602      1.0  0.53869  0.81156  0.00107  1.0000
  H   H938      1.0  0.44489  0.70452  0.18097  1.0000
  H   H939      1.0  0.64247  0.88678  0.08728  1.0000
  Fe  Fe120     1.0  0.53880  0.90660  0.18838  1.0000
  S   S236      1.0  0.50588  0.92156  0.17618  1.0000
  H   H940      1.0  0.57866  0.91517  0.09042  1.0000
  Fe  Fe121     1.0  0.52351  0.95302  0.16133  1.0000
  H   H941      1.0  0.43897  0.83760  0.22620  1.0000
  S   S237      1.0  0.55766  0.93662  0.17041  1.0000
  Fe  Fe122     1.0  0.51852  0.73066  0.18689  1.0000
  S   S238      1.0  0.49067  0.72062  0.17365  1.0000
  S   S239      1.0  0.55414  0.71041  0.18803  1.0000
  Fe  Fe123     1.0  0.48687  0.77118  0.20344  1.0000
  S   S240      1.0  0.45635  0.76394  0.19229  1.0000
  C   C603      1.0  0.40398  0.90582  0.21974  1.0000
  Fe  Fe124     1.0  0.46755  0.72688  0.20510  1.0000
  H   H942      1.0  0.48123  0.66818  0.22326  1.0000
  Fe  Fe125     1.0  0.48226  0.75880  0.16196  1.0000
  S   S241      1.0  0.46984  0.77798  0.13158  1.0000
  S   S242      1.0  0.49579  0.73446  0.21924  1.0000
  S   S243      1.0  0.51232  0.76845  0.17220  1.0000
  Fe  Fe126     1.0  0.52209  0.88812  0.05716  1.0000
  S   S244      1.0  0.55547  0.86598  0.06334  1.0000
  S   S245      1.0  0.49552  0.89765  0.08579  1.0000
  Fe  Fe127     1.0  0.53404  0.88763  0.00891  1.0000
  Fe  Fe128     1.0  0.54723  0.84534  0.04192  1.0000
  S   S246      1.0  0.55182  0.80686  0.05231  1.0000
  Fe  Fe129     1.0  0.57249  0.88764  0.03238  1.0000
  S   S247      1.0  0.60703  0.90168  0.02342  1.0000
  S   S248      1.0  0.51278  0.86614  0.03736  1.0000
  S   S249      1.0  0.53981  0.91190  0.02829  1.0000
  H   H943      1.0  0.40218  0.74904  0.18795  1.0000
  C   C604      1.0  0.49278  0.78521  0.10948  1.0000
  C   C605      1.0  0.48786  0.80191  0.09149  1.0000
  C   C606      1.0  0.50599  0.80863  0.07403  1.0000
  C   C607      1.0  0.52909  0.79835  0.07423  1.0000
  C   C608      1.0  0.53397  0.78133  0.09206  1.0000
  C   C609      1.0  0.51588  0.77497  0.10981  1.0000
  H   H944      1.0  0.47001  0.80976  0.09107  1.0000
  H   H945      1.0  0.50195  0.82138  0.06018  1.0000
  H   H946      1.0  0.55180  0.77327  0.09229  1.0000
  H   H947      1.0  0.51980  0.76196  0.12361  1.0000
  H   H948      1.0  0.33713  0.76181  0.17542  1.0000
  S   S250      1.0  0.45802  0.93612  0.22516  1.0000
  C   C610      1.0  0.51930  0.93377  0.08382  1.0000
  C   C611      1.0  0.50120  0.92078  0.09518  1.0000
  C   C612      1.0  0.48835  0.92518  0.11522  1.0000
  C   C613      1.0  0.49453  0.94147  0.12454  1.0000
  S   S251      1.0  0.36664  0.82531  0.22324  1.0000
  H   H949      1.0  0.52912  0.93063  0.06822  1.0000
  H   H950      1.0  0.47405  0.91548  0.12384  1.0000
  H   H951      1.0  0.60198  0.94557  0.03572  1.0000
  C   C614      1.0  0.53413  0.85135  0.19494  1.0000
  C   C615      1.0  0.51194  0.85846  0.20641  1.0000
  C   C616      1.0  0.49517  0.84310  0.21409  1.0000
  C   C617      1.0  0.50059  0.82055  0.21035  1.0000
  C   C618      1.0  0.52282  0.81342  0.19893  1.0000
  C   C619      1.0  0.53958  0.82883  0.19119  1.0000
  H   H952      1.0  0.50790  0.87567  0.20976  1.0000
  C   C620      1.0  0.61835  0.93929  0.06346  1.0000
  H   H953      1.0  0.52735  0.79588  0.19650  1.0000
  C   C621      1.0  0.58029  0.80084  0.99899  1.0000
  C   C622      1.0  0.38983  0.68972  0.19058  1.0000
  C   C623      1.0  0.38449  0.68725  0.21318  1.0000
  H   H954      1.0  0.53113  0.68461  0.16780  1.0000
  C   C624      1.0  0.42234  0.69799  0.21253  1.0000
  H   H955      1.0  0.45725  0.94537  0.17665  1.0000
  H   H956      1.0  0.60650  0.96232  0.16132  1.0000
  C   C625      1.0  0.40071  0.69138  0.22414  1.0000
  C   C626      1.0  0.41726  0.91931  0.22626  1.0000
  H   H957      1.0  0.50871  0.65200  0.21389  1.0000
  C   C627      1.0  0.42800  0.69989  0.18998  1.0000
  C   C628      1.0  0.44130  0.95431  0.17045  1.0000
  C   C629      1.0  0.55674  0.68093  0.18764  1.0000
  H   H958      1.0  0.48512  0.94415  0.14033  1.0000
  H   H959      1.0  0.41635  0.69653  0.16167  1.0000
  C   C630      1.0  0.50022  0.66528  0.22371  1.0000
  H   H960      1.0  0.46928  0.83098  0.17974  1.0000
  H   H961      1.0  0.55686  0.82319  0.18257  1.0000
  H   H962      1.0  0.53963  0.96006  0.08450  1.0000
  H   H963      1.0  0.58355  0.67173  0.20680  1.0000
  H   H964      1.0  0.37419  0.76582  0.18632  1.0000
  H   H965      1.0  0.45836  0.81670  0.16331  1.0000
  C   C631      1.0  0.43975  0.88719  0.20064  1.0000
  C   C632      1.0  0.61432  0.90953  0.04524  1.0000
  H   H966      1.0  0.46869  0.87802  0.15047  1.0000
  N   N58       1.0  0.47935  0.84336  0.14536  1.0000
  C   C633      1.0  0.46914  0.84725  0.12578  1.0000
  C   C634      1.0  0.48482  0.86542  0.14816  1.0000
  C   C635      1.0  0.50110  0.82699  0.14287  1.0000
  C   C636      1.0  0.46235  0.83370  0.16463  1.0000
  H   H967      1.0  0.48183  0.85363  0.11078  1.0000
  H   H968      1.0  0.45321  0.86023  0.12664  1.0000
  H   H969      1.0  0.46411  0.83102  0.12368  1.0000
  H   H970      1.0  0.49296  0.86298  0.16260  1.0000
  H   H971      1.0  0.49716  0.87341  0.13364  1.0000
  H   H972      1.0  0.50928  0.82353  0.15738  1.0000
  H   H973      1.0  0.51424  0.83359  0.12835  1.0000
  H   H974      1.0  0.49758  0.81018  0.14073  1.0000
  H   H975      1.0  0.44548  0.84538  0.16677  1.0000
  C   C637      1.0  0.56262  0.86653  0.12566  1.0000
  H   H976      1.0  0.62918  0.87514  0.05801  1.0000
  S   S252      1.0  0.56774  0.86463  0.01148  1.0000
  C   C638      1.0  0.38858  0.75460  0.17777  1.0000
  S   S253      1.0  0.36887  0.68653  0.17655  1.0000
  C   C639      1.0  0.44178  0.91694  0.21967  1.0000
  H   H977      1.0  0.55977  0.86019  0.14356  1.0000
  S   S254      1.0  0.55494  0.87066  0.18488  1.0000
  C   C640      1.0  0.62588  0.89299  0.05968  1.0000
  S   S255      1.0  0.44205  0.70365  0.22655  1.0000
  H   H978      1.0  0.54616  0.86595  0.12036  1.0000
  H   H979      1.0  0.57651  0.85408  0.11813  1.0000
  S   S256      1.0  0.39969  0.87473  0.19566  1.0000
  N   N59       1.0  0.56939  0.89007  0.11954  1.0000
  C   C641      1.0  0.52517  0.95049  0.09299  1.0000
  H   H980      1.0  0.61550  0.95721  0.06483  1.0000
  C   C642      1.0  0.57260  0.89785  0.09577  1.0000
  H   H981      1.0  0.38504  0.90814  0.22431  1.0000
  H   H982      1.0  0.55593  0.89912  0.09017  1.0000
  S   S257      1.0  0.51069  0.96981  0.19021  1.0000
  H   H983      1.0  0.60605  0.87837  0.11887  1.0000
  H   H984      1.0  0.58562  0.88561  0.08723  1.0000
  C   C643      1.0  0.51317  0.95386  0.11366  1.0000
  H   H985      1.0  0.55497  0.92400  0.12524  1.0000
  S   S258      1.0  0.64015  0.93080  0.09807  1.0000
  C   C644      1.0  0.59147  0.89007  0.12659  1.0000
  C   C645      1.0  0.63336  0.89955  0.07621  1.0000
  H   H986      1.0  0.58955  0.88428  0.14453  1.0000
  H   H987      1.0  0.36802  0.68186  0.22233  1.0000
  H   H988      1.0  0.32894  0.74786  0.23526  1.0000
  H   H989      1.0  0.42598  0.94738  0.18224  1.0000
  H   H990      1.0  0.59705  0.90760  0.12228  1.0000
  Fe  Fe130     1.0  0.36441  0.86381  0.21343  1.0000
  C   C646      1.0  0.60915  0.96705  0.14324  1.0000
  Fe  Fe131     1.0  0.33434  0.68121  0.19925  1.0000
  H   H991      1.0  0.47692  0.97987  0.15693  1.0000
  H   H992      1.0  0.38123  0.73894  0.17728  1.0000
  C   C647      1.0  0.57266  0.66539  0.19866  1.0000
  H   H993      1.0  0.42665  0.76058  0.12908  1.0000
  Fe  Fe132     1.0  0.54388  0.95109  0.20059  1.0000
  H   H994      1.0  0.47172  0.89757  0.20318  1.0000
  H   H995      1.0  0.42511  0.81188  0.23532  1.0000
  Fe  Fe133     1.0  0.49546  0.93660  0.20622  1.0000
  C   C648      1.0  0.45292  0.90031  0.20746  1.0000
  H   H996      1.0  0.42014  0.78451  0.16700  1.0000
  S   S259      1.0  0.47918  0.80174  0.21967  1.0000
  C   C649      1.0  0.38012  0.77250  0.14236  1.0000
  N   N60       1.0  0.39836  0.76676  0.15568  1.0000
  C   C650      1.0  0.40643  0.78820  0.15704  1.0000
  C   C651      1.0  0.41833  0.75172  0.14550  1.0000
  H   H997      1.0  0.39170  0.80001  0.16454  1.0000
  H   H998      1.0  0.43224  0.74655  0.15536  1.0000
  C   C652      1.0  0.41526  0.89009  0.20649  1.0000
  S   S260      1.0  0.52749  0.91939  0.21958  1.0000
  C   C653      1.0  0.41186  0.69543  0.17906  1.0000
  C   C654      1.0  0.61058  0.93268  0.04710  1.0000
  H   H999      1.0  0.41266  0.73575  0.14361  1.0000
  H   H1000     1.0  0.37300  0.75678  0.14162  1.0000
  H   H1001     1.0  0.38715  0.78105  0.12543  1.0000
  H   H1002     1.0  0.41417  0.79765  0.14067  1.0000
  H   H1003     1.0  0.44195  0.94925  0.15477  1.0000
  C   C655      1.0  0.54299  0.67269  0.17682  1.0000
  H   H1004     1.0  0.44860  0.87473  0.19080  1.0000
  H   H1005     1.0  0.40779  0.83955  0.23065  1.0000
  C   C656      1.0  0.62979  0.92272  0.07799  1.0000
  H   H1006     1.0  0.54817  0.90110  0.14794  1.0000
  H   H1007     1.0  0.36513  0.78450  0.14912  1.0000
  C   C657      1.0  0.55072  0.90596  0.13005  1.0000
  H   H1008     1.0  0.53367  0.90575  0.12572  1.0000
  S   S261      1.0  0.52315  0.97139  0.12697  1.0000
  H   H1009     1.0  0.50757  0.68162  0.21542  1.0000
  H   H1010     1.0  0.47809  0.84875  0.22298  1.0000
  H   H1011     1.0  0.60100  0.95470  0.13772  1.0000
  H   H1012     1.0  0.62832  0.96423  0.13659  1.0000
  H   H1013     1.0  0.40849  0.93202  0.23589  1.0000
  H   H1014     1.0  0.53516  0.79716  0.01525  1.0000
  H   H1015     1.0  0.58141  0.81562  0.00623  1.0000
  S   S262      1.0  0.33512  0.86751  0.19552  1.0000
  H   H1016     1.0  0.42535  0.97774  0.20210  1.0000
  N   N61       1.0  0.43971  0.97955  0.16797  1.0000
  Fe  Fe134     1.0  0.33622  0.82942  0.20714  1.0000
  S   S263      1.0  0.33959  0.80559  0.18430  1.0000
  H   H1017     1.0  0.57717  0.78596  0.01279  1.0000
  H   H1018     1.0  0.45633  0.97818  0.19462  1.0000
  S   S264      1.0  0.57195  0.96457  0.21095  1.0000
  H   H1019     1.0  0.57919  0.93909  0.99379  1.0000
  H   H1020     1.0  0.64425  0.93077  0.00446  1.0000
  C   C658      1.0  0.42341  0.83014  0.23701  1.0000
  H   H1021     1.0  0.53807  0.66976  0.23707  1.0000
  H   H1022     1.0  0.53842  0.82714  0.00772  1.0000
  H   H1023     1.0  0.52383  0.81474  0.99251  1.0000
  H   H1024     1.0  0.44421  0.80023  0.26657  1.0000
  H   H1025     1.0  0.41903  0.85855  0.27784  1.0000
  H   H1026     1.0  0.43593  0.86417  0.25062  1.0000
  H   H1027     1.0  0.40027  0.80434  0.27252  1.0000
  C   C659      1.0  0.49286  0.67618  0.25865  1.0000
  H   H1028     1.0  0.34164  0.72639  0.28005  1.0000
  H   H1029     1.0  0.45881  0.82539  0.25799  1.0000
  H   H1030     1.0  0.47382  0.68046  0.25825  1.0000
  H   H1031     1.0  0.40455  0.86690  0.25515  1.0000
  N   N62       1.0  0.50413  0.65801  0.24621  1.0000
  N   N63       1.0  0.42154  0.83198  0.25977  1.0000
  H   H1032     1.0  0.39633  0.68981  0.24160  1.0000
  C   C660      1.0  0.42022  0.85646  0.26093  1.0000
  H   H1033     1.0  0.44150  0.81938  0.28500  1.0000
  H   H1034     1.0  0.49458  0.67074  0.27596  1.0000
  C   C661      1.0  0.40010  0.82269  0.27325  1.0000
  S   S265      1.0  0.34039  0.86976  0.24480  1.0000
  H   H1035     1.0  0.39805  0.82364  0.29061  1.0000
  H   H1036     1.0  0.38403  0.83246  0.26770  1.0000
  H   H1037     1.0  0.53324  0.64989  0.26255  1.0000
  Fe  Fe135     1.0  0.34016  0.83145  0.25289  1.0000
  C   C662      1.0  0.52959  0.65416  0.24586  1.0000
  H   H1038     1.0  0.34397  0.76074  0.24988  1.0000
  H   H1039     1.0  0.50101  0.69232  0.25187  1.0000
  C   C663      1.0  0.44238  0.81868  0.26777  1.0000
  S   S266      1.0  0.34015  0.80871  0.28578  1.0000
  H   H1040     1.0  0.32723  0.85616  0.29019  1.0000
  H   H1041     1.0  0.48512  0.78419  0.68085  1.0000
  S   S267      1.0  0.58859  0.65837  0.63074  1.0000
  S   S268      1.0  0.61350  0.77158  0.67478  1.0000
  H   H1042     1.0  0.59518  0.71733  0.52611  1.0000
  C   C664      1.0  0.65338  0.89522  0.73164  1.0000
  C   C665      1.0  0.63719  0.89036  0.72090  1.0000
  Fe  Fe136     1.0  0.38570  0.70597  0.69692  1.0000
  S   S269      1.0  0.42003  0.71966  0.69182  1.0000
  S   S270      1.0  0.37758  0.68558  0.67505  1.0000
  S   S271      1.0  0.35127  0.72877  0.69920  1.0000
  C   C666      1.0  0.53147  0.77061  0.66787  1.0000
  Fe  Fe137     1.0  0.57511  0.67908  0.60141  1.0000
  H   H1043     1.0  0.51575  0.72675  0.51881  1.0000
  S   S272      1.0  0.59720  0.69515  0.57020  1.0000
  H   H1044     1.0  0.59054  0.65010  0.56629  1.0000
  C   C667      1.0  0.58416  0.69255  0.51232  1.0000
  H   H1045     1.0  0.63717  0.89860  0.70413  1.0000
  Fe  Fe138     1.0  0.55733  0.67768  0.64939  1.0000
  S   S273      1.0  0.55515  0.69087  0.67984  1.0000
  H   H1046     1.0  0.52537  0.72707  0.55415  1.0000
  H   H1047     1.0  0.49686  0.69118  0.65294  1.0000
  S   S274      1.0  0.54606  0.70066  0.61988  1.0000
  H   H1048     1.0  0.53548  0.79069  0.72319  1.0000
  C   C668      1.0  0.34821  0.78846  0.70851  1.0000
  H   H1049     1.0  0.47446  0.70264  0.54696  1.0000
  H   H1050     1.0  0.48093  0.70280  0.57273  1.0000
  Fe  Fe139     1.0  0.36368  0.66222  0.70611  1.0000
  C   C669      1.0  0.48651  0.70861  0.55486  1.0000
  H   H1051     1.0  0.50288  0.73341  0.65431  1.0000
  H   H1052     1.0  0.47494  0.76431  0.66935  1.0000
  H   H1053     1.0  0.54814  0.75890  0.66885  1.0000
  H   H1054     1.0  0.50033  0.79775  0.70665  1.0000
  N   N64       1.0  0.51121  0.69958  0.54715  1.0000
  C   C670      1.0  0.43929  0.71037  0.66948  1.0000
  C   C671      1.0  0.46324  0.70484  0.66961  1.0000
  C   C672      1.0  0.47846  0.69576  0.65255  1.0000
  C   C673      1.0  0.46972  0.69220  0.63535  1.0000
  C   C674      1.0  0.44592  0.69845  0.63486  1.0000
  C   C675      1.0  0.43075  0.70767  0.65186  1.0000
  H   H1055     1.0  0.46992  0.70682  0.68322  1.0000
  C   C676      1.0  0.58851  0.66200  0.55135  1.0000
  Fe  Fe140     1.0  0.60832  0.78476  0.70575  1.0000
  H   H1056     1.0  0.41247  0.71286  0.65120  1.0000
  C   C677      1.0  0.59789  0.74861  0.67636  1.0000
  C   C678      1.0  0.59943  0.73963  0.65777  1.0000
  C   C679      1.0  0.58673  0.72157  0.65869  1.0000
  C   C680      1.0  0.57263  0.71230  0.67829  1.0000
  C   C681      1.0  0.57120  0.72120  0.69687  1.0000
  C   C682      1.0  0.58358  0.73944  0.69586  1.0000
  H   H1057     1.0  0.61047  0.74668  0.64263  1.0000
  H   H1058     1.0  0.58792  0.71483  0.64426  1.0000
  H   H1059     1.0  0.56033  0.71410  0.71208  1.0000
  H   H1060     1.0  0.58202  0.74637  0.71018  1.0000
  H   H1061     1.0  0.53245  0.66682  0.54638  1.0000
  H   H1062     1.0  0.48380  0.72778  0.55139  1.0000
  H   H1063     1.0  0.50687  0.70120  0.51461  1.0000
  Fe  Fe141     1.0  0.52456  0.67298  0.62154  1.0000
  C   C683      1.0  0.51406  0.67412  0.55232  1.0000
  H   H1064     1.0  0.49216  0.78583  0.65198  1.0000
  H   H1065     1.0  0.52402  0.72964  0.69397  1.0000
  C   C684      1.0  0.59156  0.69978  0.52855  1.0000
  Fe  Fe142     1.0  0.60199  0.82823  0.72424  1.0000
  C   C685      1.0  0.51722  0.74368  0.65307  1.0000
  C   C686      1.0  0.51853  0.78810  0.73335  1.0000
  H   H1066     1.0  0.43793  0.74654  0.72025  1.0000
  S   S275      1.0  0.45211  0.79188  0.72506  1.0000
  H   H1067     1.0  0.53440  0.78280  0.65196  1.0000
  C   C687      1.0  0.59291  0.68472  0.54839  1.0000
  H   H1068     1.0  0.52179  0.70254  0.57605  1.0000
  C   C688      1.0  0.50812  0.74214  0.69175  1.0000
  H   H1069     1.0  0.50265  0.66713  0.54453  1.0000
  C   C689      1.0  0.51774  0.70761  0.52339  1.0000
  Fe  Fe143     1.0  0.34203  0.70611  0.68022  1.0000
  S   S276      1.0  0.35396  0.86403  0.72056  1.0000
  H   H1070     1.0  0.50963  0.66755  0.57016  1.0000
  H   H1071     1.0  0.52855  0.78066  0.68090  1.0000
  H   H1072     1.0  0.53629  0.70127  0.51703  1.0000
  C   C690      1.0  0.52652  0.70795  0.55806  1.0000
  S   S277      1.0  0.63378  0.80436  0.71296  1.0000
  S   S278      1.0  0.60312  0.86651  0.71729  1.0000
  C   C691      1.0  0.57836  0.67019  0.51580  1.0000
  H   H1073     1.0  0.58222  0.70453  0.49731  1.0000
  S   S279      1.0  0.57716  0.81086  0.71365  1.0000
  H   H1074     1.0  0.52011  0.75471  0.63654  1.0000
  H   H1075     1.0  0.50407  0.75199  0.70508  1.0000
  H   H1076     1.0  0.32733  0.83148  0.69954  1.0000
  N   N65       1.0  0.51171  0.75756  0.67017  1.0000
  C   C692      1.0  0.49007  0.77370  0.66796  1.0000
  H   H1077     1.0  0.53347  0.73133  0.65432  1.0000
  H   H1078     1.0  0.49350  0.73191  0.69391  1.0000
  S   S280      1.0  0.56489  0.66301  0.49709  1.0000
  H   H1079     1.0  0.54521  0.70101  0.55301  1.0000
  H   H1080     1.0  0.35976  0.80185  0.70681  1.0000
  C   C693      1.0  0.58126  0.65473  0.53508  1.0000
  H   H1081     1.0  0.43912  0.69603  0.62146  1.0000
  S   S281      1.0  0.37441  0.68095  0.72784  1.0000
  H   H1082     1.0  0.55390  0.86055  0.72708  1.0000
  S   S282      1.0  0.48845  0.67963  0.61463  1.0000
  C   C694      1.0  0.49871  0.79170  0.72394  1.0000
  S   S283      1.0  0.53315  0.65155  0.65250  1.0000
  S   S284      1.0  0.55228  0.65351  0.60052  1.0000
  H   H1083     1.0  0.53267  0.88581  0.72590  1.0000
  C   C695      1.0  0.51113  0.84739  0.73569  1.0000
  H   H1084     1.0  0.52469  0.83669  0.72575  1.0000
  Fe  Fe144     1.0  0.33908  0.70186  0.72792  1.0000
  H   H1085     1.0  0.46167  0.73835  0.73453  1.0000
  H   H1086     1.0  0.33264  0.81479  0.73798  1.0000
  H   H1087     1.0  0.32870  0.67241  0.66530  1.0000
  H   H1088     1.0  0.35459  0.77293  0.71978  1.0000
  H   H1089     1.0  0.45265  0.71768  0.72272  1.0000
  C   C696      1.0  0.44626  0.73219  0.73151  1.0000
  H   H1090     1.0  0.40031  0.73186  0.73592  1.0000
  C   C697      1.0  0.62164  0.87426  0.73155  1.0000
  H   H1091     1.0  0.35076  0.78386  0.69231  1.0000
  H   H1092     1.0  0.50273  0.86148  0.72434  1.0000
  C   C698      1.0  0.47668  0.78811  0.73699  1.0000
  C   C699      1.0  0.53989  0.87074  0.73716  1.0000
  S   S285      1.0  0.60348  0.76170  0.73875  1.0000
  H   H1093     1.0  0.41441  0.70280  0.73891  1.0000
  C   C700      1.0  0.45579  0.86209  0.81431  1.0000
  S   S286      1.0  0.61066  0.79320  0.86021  1.0000
  H   H1094     1.0  0.43640  0.75026  0.76788  1.0000
  C   C701      1.0  0.52673  0.86982  0.92739  1.0000
  S   S287      1.0  0.41365  0.80053  0.78203  1.0000
  S   S288      1.0  0.51587  0.82000  0.82368  1.0000
  H   H1095     1.0  0.61354  0.82224  0.81693  1.0000
  C   C702      1.0  0.60405  0.89238  0.86451  1.0000
  Fe  Fe145     1.0  0.53340  0.83590  0.89088  1.0000
  H   H1096     1.0  0.62977  0.81286  0.78063  1.0000
  H   H1097     1.0  0.49254  0.77147  0.78619  1.0000
  H   H1098     1.0  0.43109  0.87010  0.88083  1.0000
  H   H1099     1.0  0.58588  0.94431  0.92549  1.0000
  H   H1100     1.0  0.64250  0.75519  0.84667  1.0000
  C   C703      1.0  0.63238  0.80015  0.79496  1.0000
  S   S289      1.0  0.51208  0.82987  0.92492  1.0000
  C   C704      1.0  0.63983  0.76788  0.83226  1.0000
  C   C705      1.0  0.49431  0.77727  0.76882  1.0000
  N   N66       1.0  0.56133  0.80623  0.98648  1.0000
  H   H1101     1.0  0.44883  0.81738  0.79339  1.0000
  H   H1102     1.0  0.53314  0.87212  0.91003  1.0000
  C   C706      1.0  0.53045  0.88575  0.93867  1.0000
  C   C707      1.0  0.52267  0.88277  0.96120  1.0000
  C   C708      1.0  0.51039  0.86425  0.97237  1.0000
  S   S290      1.0  0.41755  0.85950  0.79797  1.0000
  H   H1103     1.0  0.51886  0.82574  0.77484  1.0000
  H   H1104     1.0  0.58103  0.97741  0.96900  1.0000
  H   H1105     1.0  0.58006  0.91394  0.98295  1.0000
  C   C709      1.0  0.56036  0.78615  0.97728  1.0000
  H   H1106     1.0  0.65868  0.74573  0.81025  1.0000
  H   H1107     1.0  0.55482  0.93537  0.98315  1.0000
  C   C710      1.0  0.62456  0.91885  0.87426  1.0000
  H   H1108     1.0  0.44714  0.69071  0.75839  1.0000
  C   C711      1.0  0.48869  0.83183  0.81675  1.0000
  S   S291      1.0  0.61409  0.98106  0.89924  1.0000
  C   C712      1.0  0.57616  0.96986  0.95667  1.0000
  C   C713      1.0  0.47765  0.85357  0.82023  1.0000
  H   H1109     1.0  0.60236  0.87503  0.86387  1.0000
  N   N67       1.0  0.45186  0.83699  0.88683  1.0000
  H   H1110     1.0  0.60936  0.85181  0.76180  1.0000
  H   H1111     1.0  0.45668  0.71093  0.77011  1.0000
  H   H1112     1.0  0.58348  0.82333  0.95798  1.0000
  C   C714      1.0  0.44108  0.70596  0.76623  1.0000
  H   H1113     1.0  0.50392  0.86219  0.98971  1.0000
  N   N68       1.0  0.56739  0.76061  0.82325  1.0000
  C   C715      1.0  0.54216  0.75803  0.82925  1.0000
  C   C716      1.0  0.57014  0.78497  0.81351  1.0000
  C   C717      1.0  0.57955  0.74604  0.80737  1.0000
  C   C718      1.0  0.57777  0.75352  0.84288  1.0000
  H   H1114     1.0  0.53261  0.76914  0.84097  1.0000
  H   H1115     1.0  0.53926  0.73989  0.83664  1.0000
  H   H1116     1.0  0.53380  0.76339  0.81478  1.0000
  H   H1117     1.0  0.58880  0.78723  0.80699  1.0000
  H   H1118     1.0  0.56061  0.79155  0.79990  1.0000
  H   H1119     1.0  0.56320  0.79627  0.82557  1.0000
  H   H1120     1.0  0.57232  0.75097  0.79228  1.0000
  H   H1121     1.0  0.55281  0.82992  0.95805  1.0000
  H   H1122     1.0  0.59863  0.74781  0.80243  1.0000
  C   C719      1.0  0.34412  0.75644  0.78898  1.0000
  H   H1123     1.0  0.57546  0.73541  0.85102  1.0000
  H   H1124     1.0  0.56982  0.76474  0.85489  1.0000
  S   S292      1.0  0.52054  0.86220  0.86392  1.0000
  Fe  Fe146     1.0  0.57849  0.81963  0.86101  1.0000
  C   C720      1.0  0.35588  0.75157  0.76876  1.0000
  S   S293      1.0  0.64707  0.92352  0.88569  1.0000
  S   S294      1.0  0.56983  0.84524  0.88291  1.0000
  H   H1125     1.0  0.44717  0.87892  0.81695  1.0000
  H   H1126     1.0  0.53973  0.90019  0.92991  1.0000
  H   H1127     1.0  0.48601  0.86386  0.82723  1.0000
  H   H1128     1.0  0.54622  0.78974  0.96768  1.0000
  C   C721      1.0  0.47457  0.78093  0.75944  1.0000
  C   C722      1.0  0.64443  0.77828  0.79302  1.0000
  N   N69       1.0  0.52149  0.85660  0.75022  1.0000
  C   C723      1.0  0.62315  0.80549  0.81558  1.0000
  Fe  Fe147     1.0  0.40433  0.83878  0.77900  1.0000
  S   S295      1.0  0.54308  0.80759  0.87205  1.0000
  Fe  Fe148     1.0  0.53313  0.83457  0.84425  1.0000
  Fe  Fe149     1.0  0.37650  0.80031  0.78000  1.0000
  C   C724      1.0  0.63755  0.86891  0.76409  1.0000
  C   C725      1.0  0.45657  0.82749  0.80099  1.0000
  S   S296      1.0  0.41320  0.84664  0.74252  1.0000
  C   C726      1.0  0.50604  0.84868  0.96094  1.0000
  Fe  Fe150     1.0  0.64653  0.96123  0.88373  1.0000
  S   S297      1.0  0.59514  0.80875  0.75849  1.0000
  H   H1129     1.0  0.40793  0.74096  0.77799  1.0000
  H   H1130     1.0  0.61768  0.92291  0.95853  1.0000
  C   C727      1.0  0.47812  0.81892  0.80712  1.0000
  C   C728      1.0  0.42160  0.74500  0.76304  1.0000
  C   C729      1.0  0.51478  0.85110  0.93854  1.0000
  H   H1131     1.0  0.49632  0.83450  0.96950  1.0000
  C   C730      1.0  0.62597  0.78898  0.83429  1.0000
  C   C731      1.0  0.62163  0.86382  0.75328  1.0000
  C   C732      1.0  0.53200  0.83726  0.76518  1.0000
  H   H1132     1.0  0.48673  0.80218  0.80432  1.0000
  C   C733      1.0  0.44513  0.84895  0.80480  1.0000
  N   N70       1.0  0.42950  0.72524  0.75197  1.0000
  H   H1133     1.0  0.54627  0.82646  0.75613  1.0000
  H   H1134     1.0  0.64886  0.90895  0.83216  1.0000
  H   H1135     1.0  0.48582  0.83130  0.86643  1.0000
  H   H1136     1.0  0.37203  0.75844  0.76084  1.0000
  C   C734      1.0  0.61066  0.94153  0.95645  1.0000
  H   H1137     1.0  0.49515  0.88608  0.75219  1.0000
  C   C735      1.0  0.56596  0.82629  0.96862  1.0000
  C   C736      1.0  0.44471  0.85843  0.87202  1.0000
  N   N71       1.0  0.58487  0.94499  0.95893  1.0000
  C   C737      1.0  0.64896  0.76250  0.81167  1.0000
  H   H1138     1.0  0.45784  0.77792  0.76970  1.0000
  C   C738      1.0  0.62138  0.89632  0.87433  1.0000
  H   H1139     1.0  0.59767  0.79657  0.98865  1.0000
  C   C739      1.0  0.57430  0.93283  0.98068  1.0000
  H   H1140     1.0  0.57716  0.78163  0.96618  1.0000
  C   C740      1.0  0.34677  0.73753  0.75891  1.0000
  H   H1141     1.0  0.61267  0.95492  0.86416  1.0000
  H   H1142     1.0  0.56528  0.84222  0.97487  1.0000
  H   H1143     1.0  0.55879  0.93795  0.94375  1.0000
  S   S298      1.0  0.52857  0.90242  0.97496  1.0000
  C   C741      1.0  0.57819  0.93568  0.94220  1.0000
  H   H1144     1.0  0.58130  0.94784  0.84771  1.0000
  H   H1145     1.0  0.59687  0.75474  0.83878  1.0000
  H   H1146     1.0  0.50994  0.87724  0.77476  1.0000
  S   S299      1.0  0.35538  0.77338  0.80197  1.0000
  S   S300      1.0  0.54014  0.77799  0.76849  1.0000
  C   C742      1.0  0.61028  0.93745  0.86441  1.0000
  H   H1147     1.0  0.63237  0.88185  0.88186  1.0000
  H   H1148     1.0  0.46381  0.81735  0.86146  1.0000
  C   C743      1.0  0.58926  0.91089  0.85524  1.0000
  C   C744      1.0  0.59261  0.93345  0.85497  1.0000
  Fe  Fe151     1.0  0.55801  0.86967  0.85432  1.0000
  H   H1149     1.0  0.47646  0.80616  0.88520  1.0000
  C   C745      1.0  0.43135  0.82446  0.89674  1.0000
  H   H1150     1.0  0.58373  0.97975  0.94052  1.0000
  S   S301      1.0  0.56928  0.84467  0.83176  1.0000
  H   H1151     1.0  0.65976  0.88536  0.81828  1.0000
  H   H1152     1.0  0.58424  0.91688  0.94366  1.0000
  H   H1153     1.0  0.42395  0.81988  0.88411  1.0000
  H   H1154     1.0  0.57783  0.72752  0.81408  1.0000
  H   H1155     1.0  0.61930  0.95022  0.94012  1.0000
  S   S302      1.0  0.36599  0.83793  0.78056  1.0000
  S   S303      1.0  0.38372  0.80470  0.74383  1.0000
  H   H1156     1.0  0.53949  0.84338  0.77685  1.0000
  H   H1157     1.0  0.63761  0.86053  0.78083  1.0000
  H   H1158     1.0  0.45986  0.86816  0.86399  1.0000
  S   S304      1.0  0.56650  0.90611  0.84410  1.0000
  H   H1159     1.0  0.43730  0.85472  0.85898  1.0000
  H   H1160     1.0  0.44778  0.85384  0.91379  1.0000
  C   C746      1.0  0.65381  0.88423  0.75317  1.0000
  C   C747      1.0  0.46110  0.84275  0.90408  1.0000
  H   H1161     1.0  0.47663  0.85220  0.89721  1.0000
  C   C748      1.0  0.51624  0.78119  0.75587  1.0000
  H   H1162     1.0  0.46681  0.82698  0.91553  1.0000
  C   C749      1.0  0.47024  0.82228  0.87448  1.0000
  H   H1163     1.0  0.43614  0.80818  0.90802  1.0000
  H   H1164     1.0  0.41710  0.83507  0.90616  1.0000
  H   H1165     1.0  0.49749  0.83624  0.74512  1.0000
  H   H1166     1.0  0.42891  0.70045  0.78188  1.0000
  S   S305      1.0  0.65272  0.76990  0.76770  1.0000
  H   H1167     1.0  0.55680  0.77072  0.99031  1.0000
  H   H1168     1.0  0.39581  0.71285  0.76208  1.0000
  H   H1169     1.0  0.61617  0.94882  0.96860  1.0000
  Fe  Fe152     1.0  0.57364  0.78872  0.74697  1.0000
  H   H1170     1.0  0.48847  0.86083  0.77224  1.0000
  H   H1171     1.0  0.35600  0.73349  0.74346  1.0000
  Fe  Fe153     1.0  0.62562  0.78390  0.74694  1.0000
  Fe  Fe154     1.0  0.42025  0.80831  0.74565  1.0000
  C   C750      1.0  0.50298  0.87086  0.76290  1.0000
  H   H1172     1.0  0.54863  0.87738  0.74763  1.0000
  Fe  Fe155     1.0  0.37569  0.84242  0.74429  1.0000
  H   H1173     1.0  0.55674  0.97304  0.95856  1.0000
  C   C751      1.0  0.40909  0.71785  0.74709  1.0000
  H   H1174     1.0  0.41417  0.76030  0.75218  1.0000
  H   H1175     1.0  0.64661  0.97581  0.78379  1.0000
  Fe  Fe156     1.0  0.80553  0.03038  0.18014  1.0000
  S   S306      1.0  0.90926  0.16310  0.21399  1.0000
  Fe  Fe157     1.0  0.81355  0.07774  0.15383  1.0000
  S   S307      1.0  0.84104  0.06360  0.12841  1.0000
  S   S308      1.0  0.80511  0.11604  0.14499  1.0000
  Fe  Fe158     1.0  0.81574  0.03897  0.13086  1.0000
  Fe  Fe159     1.0  0.66901  0.08711  0.17260  1.0000
  C   C752      1.0  0.67941  0.04907  0.09994  1.0000
  S   S309      1.0  0.78759  0.05432  0.15507  1.0000
  S   S310      1.0  0.82878  0.05557  0.18165  1.0000
  H   H1176     1.0  0.75733  0.19669  0.19600  1.0000
  S   S311      1.0  0.93983  0.03148  0.23438  1.0000
  N   N72       1.0  0.95841  0.09704  0.23411  1.0000
  Fe  Fe160     1.0  0.85031  0.22012  0.17948  1.0000
  H   H1177     1.0  0.79482  0.11643  0.10003  1.0000
  S   S312      1.0  0.85223  0.23985  0.14537  1.0000
  H   H1178     1.0  0.69040  0.01053  0.14065  1.0000
  H   H1179     1.0  0.89521  0.30404  0.07750  1.0000
  C   C753      1.0  0.74585  0.00308  0.23688  1.0000
  C   C754      1.0  0.69128  0.05946  0.11082  1.0000
  S   S313      1.0  0.85387  0.18157  0.18817  1.0000
  C   C755      1.0  0.74438  0.18690  0.19310  1.0000
  H   H1180     1.0  0.85696  0.01204  0.19684  1.0000
  S   S314      1.0  0.69336  0.08423  0.14082  1.0000
  H   H1181     1.0  0.90140  0.10960  0.18365  1.0000
  H   H1182     1.0  0.75832  0.04946  0.19676  1.0000
  H   H1183     1.0  0.95780  0.16374  0.21445  1.0000
  H   H1184     1.0  0.72229  0.22064  0.21324  1.0000
  C   C756      1.0  0.75898  0.01709  0.21956  1.0000
  H   H1185     1.0  0.77929  0.28601  0.17672  1.0000
  H   H1186     1.0  0.73917  0.19568  0.17745  1.0000
  C   C757      1.0  0.85605  0.30173  0.15836  1.0000
  C   C758      1.0  0.85625  0.10888  0.18279  1.0000
  H   H1187     1.0  0.94620  0.08097  0.21297  1.0000
  C   C759      1.0  0.84992  0.26952  0.14432  1.0000
  C   C760      1.0  0.85787  0.27791  0.15952  1.0000
  H   H1188     1.0  0.86115  0.01245  0.22344  1.0000
  C   C761      1.0  0.91123  0.31228  0.07564  1.0000
  H   H1189     1.0  0.97638  0.18224  0.23542  1.0000
  C   C762      1.0  0.84001  0.28498  0.12808  1.0000
  H   H1190     1.0  0.86573  0.26608  0.17197  1.0000
  C   C763      1.0  0.92775  0.01770  0.17951  1.0000
  C   C764      1.0  0.93838  0.01791  0.19678  1.0000
  H   H1191     1.0  0.83376  0.27855  0.11637  1.0000
  H   H1192     1.0  0.97961  0.06447  0.23152  1.0000
  S   S315      1.0  0.70084  0.00904  0.05911  1.0000
  N   N73       1.0  0.72386  0.18520  0.21123  1.0000
  H   H1193     1.0  0.88615  0.13831  0.18108  1.0000
  C   C765      1.0  0.97436  0.11007  0.21612  1.0000
  Fe  Fe161     1.0  0.68976  0.98563  0.04165  1.0000
  Fe  Fe162     1.0  0.85400  0.03899  0.15622  1.0000
  C   C766      1.0  0.80036  0.12961  0.16705  1.0000
  C   C767      1.0  0.79335  0.11761  0.18827  1.0000
  C   C768      1.0  0.79105  0.12847  0.20582  1.0000
  C   C769      1.0  0.79648  0.15098  0.20209  1.0000
  C   C770      1.0  0.80333  0.16296  0.18086  1.0000
  C   C771      1.0  0.80485  0.15241  0.16333  1.0000
  H   H1194     1.0  0.78969  0.10002  0.19117  1.0000
  Fe  Fe163     1.0  0.82296  0.18701  0.21496  1.0000
  H   H1195     1.0  0.80704  0.18054  0.17792  1.0000
  H   H1196     1.0  0.81012  0.16174  0.14690  1.0000
  H   H1197     1.0  0.98406  0.30168  0.18535  1.0000
  H   H1198     1.0  0.69747  0.00275  0.19771  1.0000
  H   H1199     1.0  0.68929  0.03871  0.08850  1.0000
  C   C772      1.0  0.80398  0.28643  0.20604  1.0000
  H   H1200     1.0  0.74476  0.01085  0.07472  1.0000
  H   H1201     1.0  0.69596  0.20795  0.22634  1.0000
  H   H1202     1.0  0.83354  0.00694  0.21997  1.0000
  H   H1203     1.0  0.68270  0.03230  0.15682  1.0000
  H   H1204     1.0  0.89027  0.29975  0.11689  1.0000
  H   H1205     1.0  0.68786  0.29957  0.16397  1.0000
  H   H1206     1.0  0.72378  0.04088  0.14756  1.0000
  H   H1207     1.0  0.75359  0.16952  0.19109  1.0000
  H   H1208     1.0  0.74322  0.18662  0.23524  1.0000
  S   S316      1.0  0.70877  0.27340  0.19964  1.0000
  H   H1209     1.0  0.70493  0.03116  0.18574  1.0000
  C   C773      1.0  0.97945  0.31428  0.19570  1.0000
  S   S317      1.0  0.83155  0.01249  0.15603  1.0000
  C   C774      1.0  0.71056  0.01257  0.18537  1.0000
  H   H1210     1.0  0.86244  0.30809  0.16996  1.0000
  C   C775      1.0  0.90519  0.02936  0.17845  1.0000
  H   H1211     1.0  0.84230  0.10283  0.17732  1.0000
  C   C776      1.0  0.67863  0.07273  0.12589  1.0000
  H   H1212     1.0  0.81498  0.28095  0.19114  1.0000
  H   H1213     1.0  0.89495  0.05140  0.22438  1.0000
  C   C777      1.0  0.94699  0.17356  0.22602  1.0000
  H   H1214     1.0  0.75874  0.12648  0.12629  1.0000
  C   C778      1.0  0.78523  0.01899  0.10146  1.0000
  H   H1215     1.0  0.90768  0.13011  0.15863  1.0000
  H   H1216     1.0  0.85652  0.15058  0.15701  1.0000
  Fe  Fe164     1.0  0.87486  0.18517  0.21161  1.0000
  H   H1217     1.0  0.77226  0.03827  0.07309  1.0000
  C   C779      1.0  0.89338  0.12394  0.17222  1.0000
  H   H1218     1.0  0.85137  0.13067  0.14230  1.0000
  S   S318      1.0  0.70216  0.98740  0.00540  1.0000
  C   C780      1.0  0.75295  0.10985  0.12623  1.0000
  S   S319      1.0  0.67987  0.09735  0.19973  1.0000
  H   H1219     1.0  0.73395  0.12235  0.09074  1.0000
  C   C781      1.0  0.86500  0.13590  0.14893  1.0000
  H   H1220     1.0  0.73342  0.11189  0.13015  1.0000
  C   C782      1.0  0.92258  0.17625  0.22876  1.0000
  H   H1221     1.0  0.86896  0.29054  0.22813  1.0000
  H   H1222     1.0  0.86314  0.09443  0.19484  1.0000
  N   N74       1.0  0.87500  0.11647  0.16421  1.0000
  H   H1223     1.0  0.75912  0.09700  0.13979  1.0000
  H   H1224     1.0  0.87868  0.14246  0.13491  1.0000
  H   H1225     1.0  0.79491  0.99580  0.12972  1.0000
  C   C783      1.0  0.78821  0.10002  0.10064  1.0000
  H   H1226     1.0  0.89182  0.98284  0.19176  1.0000
  H   H1227     1.0  0.93288  0.27083  0.21441  1.0000
  N   N75       1.0  0.78358  0.30321  0.20109  1.0000
  H   H1228     1.0  0.75906  0.13714  0.08663  1.0000
  H   H1229     1.0  0.79538  0.08688  0.11345  1.0000
  H   H1230     1.0  0.79586  0.09424  0.08500  1.0000
  N   N76       1.0  0.76231  0.10256  0.10517  1.0000
  S   S320      1.0  0.87422  0.22336  0.20054  1.0000
  C   C784      1.0  0.75348  0.12009  0.08775  1.0000
  C   C785      1.0  0.74822  0.03827  0.20974  1.0000
  H   H1231     1.0  0.76128  0.27770  0.20304  1.0000
  H   H1232     1.0  0.76010  0.11505  0.07165  1.0000
  H   H1233     1.0  0.72760  0.00778  0.19085  1.0000
  H   H1234     1.0  0.76169  0.07397  0.09057  1.0000
  H   H1235     1.0  0.76035  0.06670  0.11925  1.0000
  S   S321      1.0  0.80464  0.03865  0.09989  1.0000
  H   H1236     1.0  0.92702  0.08149  0.23878  1.0000
  C   C786      1.0  0.72429  0.04518  0.21698  1.0000
  H   H1237     1.0  0.70213  0.17672  0.19233  1.0000
  C   C787      1.0  0.75450  0.08029  0.10600  1.0000
  N   N77       1.0  0.71259  0.00796  0.16344  1.0000
  H   H1238     1.0  0.92642  0.29842  0.07566  1.0000
  C   C788      1.0  0.89334  0.04142  0.19475  1.0000
  H   H1239     1.0  0.87595  0.05043  0.19412  1.0000
  H   H1240     1.0  0.95579  0.00883  0.19744  1.0000
  S   S322      1.0  0.78864  0.00757  0.21025  1.0000
  C   C789      1.0  0.76888  0.98331  0.11826  1.0000
  C   C790      1.0  0.75556  0.00757  0.08677  1.0000
  C   C791      1.0  0.92286  0.25961  0.22849  1.0000
  H   H1241     1.0  0.73510  0.08180  0.10887  1.0000
  H   H1242     1.0  0.89496  0.29250  0.20709  1.0000
  C   C792      1.0  0.88529  0.09717  0.15290  1.0000
  H   H1243     1.0  0.71019  0.05661  0.10785  1.0000
  C   C793      1.0  0.92665  0.03016  0.21294  1.0000
  H   H1244     1.0  0.91963  0.24462  0.22263  1.0000
  H   H1245     1.0  0.89352  0.08234  0.16368  1.0000
  S   S323      1.0  0.81721  0.22531  0.20395  1.0000
  C   C794      1.0  0.68944  0.01379  0.15716  1.0000
  C   C795      1.0  0.90412  0.04196  0.21186  1.0000
  H   H1246     1.0  0.78560  0.11927  0.22228  1.0000
  C   C796      1.0  0.76966  0.31001  0.22138  1.0000
  H   H1247     1.0  0.87174  0.09068  0.14717  1.0000
  H   H1248     1.0  0.71613  0.06151  0.20936  1.0000
  H   H1249     1.0  0.89908  0.10242  0.13844  1.0000
  Fe  Fe165     1.0  0.97331  0.00761  0.23878  1.0000
  C   C797      1.0  0.75462  0.98750  0.10280  1.0000
  C   C798      1.0  0.77110  0.02312  0.08592  1.0000
  H   H1250     1.0  0.74223  0.15814  0.23174  1.0000
  S   S324      1.0  0.89253  0.02838  0.15654  1.0000
  H   H1251     1.0  0.84767  0.12318  0.19140  1.0000
  C   C799      1.0  0.71076  0.20840  0.21205  1.0000
  C   C800      1.0  0.85287  0.00366  0.21428  1.0000
  S   S325      1.0  0.79459  0.16429  0.22385  1.0000
  C   C801      1.0  0.76894  0.29253  0.19137  1.0000
  H   H1252     1.0  0.98316  0.09954  0.20371  1.0000
  C   C802      1.0  0.70849  0.17002  0.20781  1.0000
  H   H1253     1.0  0.96472  0.12592  0.20779  1.0000
  H   H1254     1.0  0.88162  0.26638  0.21564  1.0000
  H   H1255     1.0  0.73100  0.01955  0.13089  1.0000
  C   C803      1.0  0.78389  0.99920  0.11781  1.0000
  H   H1256     1.0  0.79832  0.27066  0.21757  1.0000
  C   C804      1.0  0.88592  0.28087  0.22147  1.0000
  H   H1257     1.0  0.69282  0.16852  0.22109  1.0000
  H   H1258     1.0  0.76305  0.29489  0.23343  1.0000
  H   H1259     1.0  0.71613  0.31219  0.21512  1.0000
  H   H1260     1.0  0.93705  0.00837  0.16692  1.0000
  Fe  Fe166     1.0  0.84138  0.22559  0.22592  1.0000
  H   H1261     1.0  0.98836  0.11555  0.22206  1.0000
  C   C805      1.0  0.70232  0.30312  0.19057  1.0000
  H   H1262     1.0  0.67621  0.00355  0.16878  1.0000
  H   H1263     1.0  0.70327  0.21583  0.19726  1.0000
  H   H1264     1.0  0.81538  0.29370  0.21362  1.0000
  H   H1265     1.0  0.71769  0.15225  0.20746  1.0000
  C   C806      1.0  0.73182  0.17545  0.23194  1.0000
  S   S326      1.0  0.84424  0.18756  0.23935  1.0000
  H   H1266     1.0  0.89626  0.98396  0.21801  1.0000
  C   C807      1.0  0.93925  0.09158  0.22567  1.0000
  H   H1267     1.0  0.75416  0.30508  0.18617  1.0000
  H   H1268     1.0  0.92125  0.29566  0.11580  1.0000
  H   H1269     1.0  0.92877  0.10756  0.21847  1.0000
  Fe  Fe167     1.0  0.69628  0.26430  0.23566  1.0000
  C   C808      1.0  0.72941  0.02221  0.14770  1.0000
  N   N78       1.0  0.90063  0.27237  0.23804  1.0000
  C   C809      1.0  0.72097  0.98332  0.16349  1.0000
  C   C810      1.0  0.71113  0.03109  0.23425  1.0000
  H   H1270     1.0  0.91509  0.30419  0.23197  1.0000
  C   C811      1.0  0.69182  0.31149  0.17248  1.0000
  C   C812      1.0  0.90575  0.30897  0.11440  1.0000
  H   H1271     1.0  0.74721  0.01798  0.15168  1.0000
  C   C813      1.0  0.83765  0.30874  0.12725  1.0000
  C   C814      1.0  0.95752  0.18418  0.23783  1.0000
  Fe  Fe168     1.0  0.66371  0.06620  0.21989  1.0000
  Fe  Fe169     1.0  0.66373  0.00991  0.07793  1.0000
  H   H1272     1.0  0.90857  0.20940  0.26724  1.0000
  N   N79       1.0  0.69210  0.25366  0.36455  1.0000
  S   S327      1.0  0.69312  0.28765  0.25882  1.0000
  H   H1273     1.0  0.99024  0.08183  0.34390  1.0000
  C   C815      1.0  0.96917  0.04342  0.35377  1.0000
  H   H1274     1.0  0.97240  0.08349  0.32445  1.0000
  H   H1275     1.0  0.98714  0.02163  0.32044  1.0000
  H   H1276     1.0  0.95205  0.05139  0.34933  1.0000
  H   H1277     1.0  0.81190  0.28324  0.27467  1.0000
  S   S328      1.0  0.95685  0.21083  0.26712  1.0000
  H   H1278     1.0  0.95997  0.06481  0.25705  1.0000
  S   S329      1.0  0.67316  0.24487  0.29719  1.0000
  H   H1279     1.0  0.71674  0.17355  0.24597  1.0000
  H   H1280     1.0  0.98436  0.06643  0.47969  1.0000
  H   H1281     1.0  0.96235  0.11631  0.25706  1.0000
  C   C816      1.0  0.76099  0.25983  0.28507  1.0000
  H   H1282     1.0  0.75630  0.23176  0.27159  1.0000
  Fe  Fe170     1.0  0.70782  0.25649  0.28036  1.0000
  C   C817      1.0  0.77683  0.27409  0.28619  1.0000
  C   C818      1.0  0.90875  0.18960  0.24332  1.0000
  C   C819      1.0  0.94367  0.19754  0.25238  1.0000
  H   H1283     1.0  0.89872  0.24991  0.26941  1.0000
  H   H1284     1.0  0.97043  0.04933  0.36853  1.0000
  Fe  Fe171     1.0  0.67803  0.22533  0.27035  1.0000
  C   C820      1.0  0.79978  0.27198  0.27401  1.0000
  H   H1285     1.0  0.91671  0.28625  0.25806  1.0000
  H   H1286     1.0  0.69632  0.24018  0.33560  1.0000
  H   H1287     1.0  0.66967  0.28556  0.36759  1.0000
  H   H1288     1.0  0.93662  0.10168  0.26487  1.0000
  H   H1289     1.0  0.77128  0.28698  0.29620  1.0000
  C   C821      1.0  0.99248  0.28791  0.26590  1.0000
  S   S330      1.0  0.73209  0.26311  0.29968  1.0000
  H   H1290     1.0  0.98600  0.07889  0.25059  1.0000
  H   H1291     1.0  0.70285  0.30725  0.29855  1.0000
  H   H1292     1.0  0.71095  0.28155  0.34579  1.0000
  H   H1293     1.0  0.70374  0.23202  0.39258  1.0000
  H   H1294     1.0  0.75407  0.98674  0.24461  1.0000
  C   C822      1.0  0.79128  0.24087  0.26015  1.0000
  H   H1295     1.0  0.88364  0.24198  0.25152  1.0000
  S   S331      1.0  0.71445  0.23411  0.25567  1.0000
  Fe  Fe172     1.0  0.99140  0.18938  0.26903  1.0000
  N   N80       1.0  0.98901  0.04935  0.33569  1.0000
  C   C823      1.0  0.80701  0.25533  0.26103  1.0000
  H   H1296     1.0  0.67925  0.26799  0.33505  1.0000
  C   C824      1.0  0.71390  0.26453  0.35669  1.0000
  C   C825      1.0  0.76823  0.24324  0.27204  1.0000
  C   C826      1.0  0.69700  0.23072  0.37823  1.0000
  H   H1297     1.0  0.68088  0.22204  0.38438  1.0000
  H   H1298     1.0  0.72783  0.25371  0.34714  1.0000
  C   C827      1.0  0.88804  0.25687  0.25668  1.0000
  C   C828      1.0  0.91929  0.20002  0.25529  1.0000
  H   H1299     1.0  0.96457  0.04504  0.48888  1.0000
  C   C829      1.0  0.68321  0.25104  0.34577  1.0000
  H   H1300     1.0  0.66680  0.24281  0.35101  1.0000
  S   S332      1.0  0.98181  0.00209  0.27183  1.0000
  H   H1301     1.0  0.79686  0.22772  0.25045  1.0000
  S   S333      1.0  0.83549  0.25327  0.24538  1.0000
  C   C830      1.0  0.67427  0.26826  0.37747  1.0000
  C   C831      1.0  0.97160  0.07540  0.24379  1.0000
  H   H1302     1.0  0.72092  0.26719  0.37039  1.0000
  H   H1303     1.0  0.67042  0.14222  0.27195  1.0000
  H   H1304     1.0  0.71033  0.21922  0.36892  1.0000
  H   H1305     1.0  0.93774  0.12728  0.24417  1.0000
  C   C832      1.0  0.94837  0.11115  0.25083  1.0000
  H   H1306     1.0  0.87117  0.26592  0.26433  1.0000
  S   S334      1.0  0.67326  0.18779  0.27696  1.0000
  C   C833      1.0  0.98879  0.07465  0.32988  1.0000
  H   H1307     1.0  0.68036  0.27095  0.39168  1.0000
  H   H1308     1.0  0.96883  0.02440  0.35841  1.0000
  H   H1309     1.0  0.97756  0.27981  0.27723  1.0000
  S   S335      1.0  0.68106  0.03902  0.24339  1.0000
  H   H1310     1.0  0.88917  0.30211  0.25277  1.0000
  H   H1311     1.0  0.98698  0.29528  0.25011  1.0000
  H   H1312     1.0  0.71193  0.99921  0.25768  1.0000
  C   C834      1.0  0.90563  0.29209  0.24558  1.0000
  C   C835      1.0  0.66220  0.15439  0.25983  1.0000
  H   H1313     1.0  0.88989  0.19151  0.24576  1.0000
  C   C836      1.0  0.72202  0.01012  0.24428  1.0000
  H   H1314     1.0  0.97032  0.04838  0.31107  1.0000
  C   C837      1.0  0.98692  0.04069  0.31666  1.0000
  H   H1315     1.0  0.93433  0.25273  0.24058  1.0000
  C   C838      1.0  0.66070  0.17813  0.25897  1.0000
  H   H1316     1.0  0.85933  0.11129  0.71530  1.0000
  Fe  Fe173     1.0  0.88616  0.03409  0.65082  1.0000
  S   S336      1.0  0.90762  0.00235  0.66515  1.0000
  S   S337      1.0  0.89487  0.05392  0.61666  1.0000
  Fe  Fe174     1.0  0.84960  0.03330  0.69227  1.0000
  Fe  Fe175     1.0  0.81896  0.17147  0.72964  1.0000
  S   S338      1.0  0.81608  0.05304  0.70636  1.0000
  Fe  Fe176     1.0  0.90028  0.01818  0.69451  1.0000
  S   S339      1.0  0.67133  0.31108  0.66981  1.0000
  H   H1317     1.0  0.78812  0.08743  0.72904  1.0000
  H   H1318     1.0  0.76665  0.98636  0.69020  1.0000
  S   S340      1.0  0.88160  0.05121  0.67908  1.0000
  S   S341      1.0  0.85223  0.01917  0.66246  1.0000
  C   C839      1.0  0.97309  0.02645  0.70651  1.0000
  C   C840      1.0  0.86248  0.10486  0.69988  1.0000
  H   H1319     1.0  0.79795  0.03805  0.67390  1.0000
  H   H1320     1.0  0.98231  0.03882  0.64366  1.0000
  H   H1321     1.0  0.88972  0.26799  0.71649  1.0000
  S   S342      1.0  0.81362  0.18284  0.69548  1.0000
  H   H1322     1.0  0.90884  0.25171  0.73429  1.0000
  C   C841      1.0  0.85427  0.11117  0.66389  1.0000
  H   H1323     1.0  0.76481  0.19104  0.71855  1.0000
  S   S343      1.0  0.75826  0.30393  0.71314  1.0000
  C   C842      1.0  0.92483  0.05193  0.60465  1.0000
  H   H1324     1.0  0.93542  0.02269  0.62821  1.0000
  C   C843      1.0  0.83424  0.24352  0.66116  1.0000
  H   H1325     1.0  0.94704  0.98469  0.68629  1.0000
  H   H1326     1.0  0.80378  0.27345  0.71489  1.0000
  C   C844      1.0  0.82976  0.20612  0.68458  1.0000
  H   H1327     1.0  0.95133  0.24224  0.71912  1.0000
  H   H1328     1.0  0.67144  0.31493  0.57694  1.0000
  C   C845      1.0  0.85976  0.22785  0.68682  1.0000
  C   C846      1.0  0.84844  0.20806  0.69370  1.0000
  H   H1329     1.0  0.87377  0.22949  0.69435  1.0000
  C   C847      1.0  0.73364  0.30568  0.70174  1.0000
  H   H1330     1.0  0.92007  0.08103  0.57874  1.0000
  H   H1331     1.0  0.84576  0.12310  0.65115  1.0000
  H   H1332     1.0  0.84673  0.09461  0.66762  1.0000
  N   N81       1.0  0.74650  0.22393  0.72447  1.0000
  H   H1333     1.0  0.94325  0.03130  0.66622  1.0000
  H   H1334     1.0  0.85171  0.04072  0.73250  1.0000
  H   H1335     1.0  0.79207  0.01270  0.71089  1.0000
  C   C848      1.0  0.82303  0.22359  0.66791  1.0000
  C   C849      1.0  0.93251  0.06754  0.58558  1.0000
  H   H1336     1.0  0.81707  0.10868  0.69604  1.0000
  H   H1337     1.0  0.85599  0.08783  0.70403  1.0000
  H   H1338     1.0  0.88176  0.10192  0.69385  1.0000
  N   N82       1.0  0.76700  0.02216  0.68994  1.0000
  H   H1339     1.0  0.73722  0.18967  0.73730  1.0000
  H   H1340     1.0  0.73621  0.03155  0.67582  1.0000
  H   H1341     1.0  0.85405  0.19449  0.70632  1.0000
  H   H1342     1.0  0.66391  0.28623  0.58780  1.0000
  H   H1343     1.0  0.72875  0.24667  0.70059  1.0000
  H   H1344     1.0  0.90582  0.28305  0.67796  1.0000
  H   H1345     1.0  0.99152  0.01373  0.53556  1.0000
  H   H1346     1.0  0.73209  0.01305  0.70205  1.0000
  C   C850      1.0  0.94707  0.24665  0.70261  1.0000
  H   H1347     1.0  0.73445  0.04297  0.69961  1.0000
  C   C851      1.0  0.68650  0.29743  0.61454  1.0000
  C   C852      1.0  0.81959  0.06310  0.72866  1.0000
  H   H1348     1.0  0.69091  0.27896  0.61333  1.0000
  H   H1349     1.0  0.96296  0.25278  0.69111  1.0000
  H   H1350     1.0  0.90291  0.00488  0.61549  1.0000
  H   H1351     1.0  0.77419  0.04603  0.65950  1.0000
  S   S344      1.0  0.86422  0.27180  0.66476  1.0000
  C   C853      1.0  0.75295  0.19892  0.73178  1.0000
  C   C854      1.0  0.76794  0.23539  0.71730  1.0000
  C   C855      1.0  0.90585  0.25540  0.71736  1.0000
  C   C856      1.0  0.92117  0.26947  0.67942  1.0000
  H   H1352     1.0  0.97704  0.01897  0.60988  1.0000
  C   C857      1.0  0.82516  0.12484  0.69267  1.0000
  S   S345      1.0  0.79893  0.29710  0.65847  1.0000
  C   C858      1.0  0.95448  0.02607  0.69667  1.0000
  C   C859      1.0  0.95766  0.03106  0.67397  1.0000
  H   H1353     1.0  0.74583  0.22129  0.69200  1.0000
  C   C860      1.0  0.96464  0.03250  0.60303  1.0000
  H   H1354     1.0  0.77312  0.05755  0.68317  1.0000
  N   N83       1.0  0.85056  0.12104  0.68357  1.0000
  C   C861      1.0  0.97228  0.04819  0.58405  1.0000
  C   C862      1.0  0.94101  0.03459  0.61346  1.0000
  H   H1355     1.0  0.97827  0.11719  0.71289  1.0000
  H   H1356     1.0  0.81574  0.13794  0.68130  1.0000
  H   H1357     1.0  0.82169  0.13112  0.70819  1.0000
  H   H1358     1.0  0.78021  0.22836  0.70373  1.0000
  H   H1359     1.0  0.93320  0.99250  0.58548  1.0000
  C   C863      1.0  0.86029  0.14319  0.67785  1.0000
  C   C864      1.0  0.95628  0.06587  0.57544  1.0000
  H   H1360     1.0  0.85795  0.15097  0.69238  1.0000
  H   H1361     1.0  0.98612  0.12984  0.73246  1.0000
  H   H1362     1.0  0.77129  0.00428  0.66370  1.0000
  S   S346      1.0  0.85208  0.15227  0.73923  1.0000
  H   H1363     1.0  0.82809  0.30080  0.73589  1.0000
  C   C865      1.0  0.97524  0.05523  0.49440  1.0000
  C   C866      1.0  0.85227  0.24584  0.67094  1.0000
  H   H1364     1.0  0.76779  0.03337  0.71908  1.0000
  H   H1365     1.0  0.71044  0.29464  0.73217  1.0000
  C   C867      1.0  0.77853  0.04181  0.67594  1.0000
  C   C868      1.0  0.69406  0.06324  0.73148  1.0000
  H   H1366     1.0  0.90223  0.23902  0.71423  1.0000
  C   C869      1.0  0.77525  0.00147  0.68020  1.0000
  H   H1367     1.0  0.87936  0.14102  0.67068  1.0000
  H   H1368     1.0  0.85132  0.15604  0.66595  1.0000
  H   H1369     1.0  0.94607  0.29281  0.69487  1.0000
  H   H1370     1.0  0.71836  0.21911  0.71073  1.0000
  H   H1371     1.0  0.87326  0.10755  0.65680  1.0000
  H   H1372     1.0  0.82899  0.25706  0.64832  1.0000
  C   C870      1.0  0.77289  0.01773  0.71169  1.0000
  H   H1373     1.0  0.69944  0.30731  0.60209  1.0000
  C   C871      1.0  0.74133  0.02771  0.69193  1.0000
  H   H1374     1.0  0.80874  0.22209  0.66066  1.0000
  H   H1375     1.0  0.88576  0.98424  0.63439  1.0000
  C   C872      1.0  0.93096  0.28551  0.70672  1.0000
  H   H1376     1.0  0.96729  0.03611  0.53713  1.0000
  Fe  Fe177     1.0  0.83520  0.30103  0.66064  1.0000
  C   C873      1.0  0.97975  0.03545  0.66120  1.0000
  H   H1377     1.0  0.79453  0.99658  0.67871  1.0000
  H   H1378     1.0  0.96214  0.07803  0.56078  1.0000
  H   H1379     1.0  0.76379  0.00368  0.72305  1.0000
  H   H1380     1.0  0.94432  0.23039  0.69864  1.0000
  S   S347      1.0  0.92789  0.01811  0.71310  1.0000
  H   H1381     1.0  0.99124  0.07566  0.71214  1.0000
  H   H1382     1.0  0.67718  0.23722  0.72029  1.0000
  C   C874      1.0  0.69147  0.02277  0.73436  1.0000
  H   H1383     1.0  0.91687  0.25402  0.67509  1.0000
  S   S348      1.0  0.86783  0.00135  0.71031  1.0000
  H   H1384     1.0  0.79711  0.30361  0.73690  1.0000
  N   N84       1.0  0.92627  0.26425  0.70153  1.0000
  H   H1385     1.0  0.83476  0.27040  0.71392  1.0000
  H   H1386     1.0  0.68921  0.29880  0.63063  1.0000
  H   H1387     1.0  0.76373  0.25429  0.71151  1.0000
  Fe  Fe178     1.0  0.87333  0.98869  0.67929  1.0000
  C   C875      1.0  0.81797  0.26444  0.72368  1.0000
  S   S349      1.0  0.68003  0.00132  0.72716  1.0000
  H   H1388     1.0  0.68810  0.08122  0.72579  1.0000
  H   H1389     1.0  0.93529  0.28226  0.72313  1.0000
  H   H1390     1.0  0.67613  0.29677  0.71522  1.0000
  C   C876      1.0  0.69272  0.30125  0.70520  1.0000
  H   H1391     1.0  0.81948  0.24583  0.72355  1.0000
  H   H1392     1.0  0.93632  0.27581  0.66697  1.0000
  C   C877      1.0  0.73433  0.22796  0.70611  1.0000
  H   H1393     1.0  0.91563  0.29920  0.70623  1.0000
  C   C878      1.0  0.68329  0.04601  0.72758  1.0000
  H   H1394     1.0  0.88196  0.99267  0.60684  1.0000
  H   H1395     1.0  0.98711  0.27822  0.70604  1.0000
  C   C879      1.0  0.71214  0.29993  0.71476  1.0000
  N   N85       1.0  0.66220  0.30636  0.61181  1.0000
  C   C880      1.0  0.97927  0.02550  0.52602  1.0000
  C   C881      1.0  0.89527  0.98872  0.61728  1.0000
  N   N86       1.0  0.99215  0.04001  0.50672  1.0000
  H   H1396     1.0  0.96292  0.06668  0.50450  1.0000
  H   H1397     1.0  0.96879  0.01441  0.52138  1.0000
  H   H1398     1.0  0.66911  0.05069  0.71876  1.0000
  H   H1399     1.0  0.97061  0.02295  0.72404  1.0000
  C   C882      1.0  0.83928  0.05462  0.73802  1.0000
  C   C883      1.0  0.73559  0.31282  0.67929  1.0000
  S   S350      1.0  0.98660  0.98292  0.57988  1.0000
  C   C884      1.0  0.80359  0.08105  0.73599  1.0000
  H   H1400     1.0  0.77746  0.23276  0.73075  1.0000
  C   C885      1.0  0.98173  0.11367  0.72963  1.0000
  C   C886      1.0  0.69494  0.30831  0.68266  1.0000
  H   H1401     1.0  0.72589  0.25236  0.73793  1.0000
  C   C887      1.0  0.66398  0.23381  0.73492  1.0000
  C   C888      1.0  0.71639  0.31397  0.66978  1.0000
  H   H1402     1.0  0.73138  0.04393  0.79474  1.0000
  Fe  Fe179     1.0  0.69146  0.11989  0.80200  1.0000
  C   C889      1.0  0.74647  0.13491  0.82351  1.0000
  N   N87       1.0  0.81326  0.26883  0.74601  1.0000
  Fe  Fe180     1.0  0.68439  0.15507  0.76139  1.0000
  C   C890      1.0  0.80809  0.09150  0.75165  1.0000
  H   H1403     1.0  0.69300  0.00591  0.81197  1.0000
  H   H1404     1.0  0.88400  0.15306  0.77701  1.0000
  H   H1405     1.0  0.67933  0.05721  0.92279  1.0000
  H   H1406     1.0  0.66794  0.99561  0.77497  1.0000
  H   H1407     1.0  0.75971  0.04113  0.77727  1.0000
  H   H1408     1.0  0.75547  0.11793  0.82854  1.0000
  N   N88       1.0  0.75769  0.05902  0.80297  1.0000
  H   H1409     1.0  0.82958  0.25939  0.77388  1.0000
  H   H1410     1.0  0.84971  0.26242  0.74810  1.0000
  H   H1411     1.0  0.97818  0.30432  0.84077  1.0000
  C   C891      1.0  0.75059  0.04108  0.79443  1.0000
  H   H1412     1.0  0.71516  0.99902  0.75225  1.0000
  H   H1413     1.0  0.79583  0.10554  0.75703  1.0000
  C   C892      1.0  0.74490  0.05870  0.82557  1.0000
  C   C893      1.0  0.66573  0.21260  0.74934  1.0000
  H   H1414     1.0  0.67642  0.10904  0.90307  1.0000
  H   H1415     1.0  0.99103  0.15385  0.81375  1.0000
  H   H1416     1.0  0.73278  0.08561  0.78984  1.0000
  C   C894      1.0  0.94272  0.15232  0.77213  1.0000
  C   C895      1.0  0.95023  0.14930  0.86045  1.0000
  C   C896      1.0  0.94441  0.16504  0.82385  1.0000
  S   S351      1.0  0.70598  0.01519  0.84932  1.0000
  S   S352      1.0  0.96718  0.13452  0.78036  1.0000
  H   H1417     1.0  0.97778  0.12889  0.82859  1.0000
  H   H1418     1.0  0.94965  0.30716  0.79483  1.0000
  C   C897      1.0  0.98916  0.27751  0.79777  1.0000
  H   H1419     1.0  0.75468  0.02357  0.80417  1.0000
  H   H1420     1.0  0.73937  0.23026  0.75699  1.0000
  C   C898      1.0  0.72089  0.03396  0.74916  1.0000
  C   C899      1.0  0.75939  0.15344  0.81395  1.0000
  H   H1421     1.0  0.96253  0.14580  0.87188  1.0000
  S   S353      1.0  0.76442  0.19747  0.79193  1.0000
  H   H1422     1.0  0.77827  0.15069  0.81193  1.0000
  C   C900      1.0  0.68873  0.09649  0.89423  1.0000
  H   H1423     1.0  0.66555  0.09869  0.86251  1.0000
  H   H1424     1.0  0.78811  0.03793  0.81300  1.0000
  Fe  Fe181     1.0  0.67234  0.00283  0.86882  1.0000
  C   C901      1.0  0.72220  0.13814  0.82506  1.0000
  H   H1425     1.0  0.78646  0.26438  0.77504  1.0000
  C   C902      1.0  0.68844  0.99185  0.96676  1.0000
  C   C903      1.0  0.82806  0.08342  0.76064  1.0000
  H   H1426     1.0  0.69699  0.10642  0.87827  1.0000
  C   C904      1.0  0.74795  0.17528  0.80652  1.0000
  C   C905      1.0  0.71073  0.16005  0.81793  1.0000
  C   C906      1.0  0.70807  0.99379  0.81558  1.0000
  H   H1427     1.0  0.78944  0.06849  0.80753  1.0000
  H   H1428     1.0  0.79323  0.05378  0.78556  1.0000
  H   H1429     1.0  0.74961  0.07226  0.83241  1.0000
  H   H1430     1.0  0.70781  0.05380  0.88835  1.0000
  H   H1431     1.0  0.96508  0.10992  0.74127  1.0000
  H   H1432     1.0  0.71440  0.22534  0.74826  1.0000
  N   N89       1.0  0.96125  0.16070  0.83851  1.0000
  C   C907      1.0  0.72356  0.17871  0.80899  1.0000
  C   C908      1.0  0.75191  0.08182  0.78948  1.0000
  C   C909      1.0  0.94496  0.17470  0.76024  1.0000
  C   C910      1.0  0.90316  0.18178  0.76106  1.0000
  S   S354      1.0  0.83418  0.09696  0.77963  1.0000
  C   C911      1.0  0.71840  0.99517  0.83263  1.0000
  H   H1433     1.0  0.98147  0.18010  0.85000  1.0000
  H   H1434     1.0  0.70694  0.98838  0.95998  1.0000
  C   C912      1.0  0.66584  0.06556  0.91293  1.0000
  Fe  Fe182     1.0  0.84923  0.17978  0.75827  1.0000
  S   S355      1.0  0.71581  0.13181  0.77074  1.0000
  C   C913      1.0  0.92075  0.14448  0.77805  1.0000
  S   S356      1.0  0.79490  0.15232  0.75724  1.0000
  H   H1435     1.0  0.93908  0.14868  0.82235  1.0000
  C   C914      1.0  0.70958  0.01682  0.74597  1.0000
  H   H1436     1.0  0.75709  0.09592  0.79526  1.0000
  C   C915      1.0  0.92516  0.18951  0.75496  1.0000
  H   H1437     1.0  0.71470  0.19548  0.80296  1.0000
  H   H1438     1.0  0.76079  0.08263  0.77218  1.0000
  H   H1439     1.0  0.79160  0.24168  0.76030  1.0000
  H   H1440     1.0  0.70289  0.08911  0.90353  1.0000
  C   C916      1.0  0.79088  0.26063  0.75836  1.0000
  N   N90       1.0  0.98013  0.29680  0.80933  1.0000
  H   H1441     1.0  0.74866  0.04168  0.83626  1.0000
  H   H1442     1.0  0.73552  0.02916  0.75736  1.0000
  C   C917      1.0  0.78322  0.05459  0.80230  1.0000
  H   H1443     1.0  0.94491  0.13252  0.86014  1.0000
  S   S357      1.0  0.82839  0.16102  0.78897  1.0000
  S   S358      1.0  0.68082  0.09142  0.79095  1.0000
  C   C918      1.0  0.67189  0.99449  0.95357  1.0000
  Fe  Fe183     1.0  0.70302  0.10506  0.75903  1.0000
  Fe  Fe184     1.0  0.79719  0.17937  0.77508  1.0000
  C   C919      1.0  0.96820  0.18280  0.83960  1.0000
  H   H1444     1.0  0.68497  0.04824  0.87695  1.0000
  H   H1445     1.0  0.93426  0.16018  0.86730  1.0000
  H   H1446     1.0  0.69201  0.16252  0.81873  1.0000
  H   H1447     1.0  0.95218  0.17360  0.80712  1.0000
  S   S359      1.0  0.68828  0.19090  0.74221  1.0000
  C   C920      1.0  0.90098  0.15915  0.77236  1.0000
  Fe  Fe185     1.0  0.82795  0.13532  0.76866  1.0000
  C   C921      1.0  0.95446  0.30209  0.81112  1.0000
  S   S360      1.0  0.70683  0.11429  0.83154  1.0000
  H   H1448     1.0  0.91894  0.12714  0.78715  1.0000
  C   C922      1.0  0.69354  0.06219  0.87947  1.0000
  C   C923      1.0  0.68115  0.99322  0.98878  1.0000
  H   H1449     1.0  0.85876  0.05821  0.76123  1.0000
  H   H1450     1.0  0.72559  0.06196  0.82647  1.0000
  H   H1451     1.0  0.80797  0.29789  0.76160  1.0000
  H   H1452     1.0  0.96192  0.18069  0.75502  1.0000
  C   C924      1.0  0.71335  0.05716  0.74164  1.0000
  H   H1453     1.0  0.94538  0.28705  0.82041  1.0000
  C   C925      1.0  0.83259  0.25659  0.75696  1.0000
  S   S361      1.0  0.67380  0.12940  0.74630  1.0000
  N   N91       1.0  0.67651  0.07828  0.89138  1.0000
  C   C926      1.0  0.84334  0.06459  0.75422  1.0000
  S   S362      1.0  0.87851  0.20049  0.75449  1.0000
  H   H1454     1.0  0.76195  0.19538  0.74576  1.0000
  H   H1455     1.0  0.70180  0.07119  0.86310  1.0000
  H   H1456     1.0  0.97642  0.19192  0.82324  1.0000
  H   H1457     1.0  0.83454  0.23766  0.75787  1.0000
  H   H1458     1.0  0.92823  0.17629  0.82964  1.0000
  C   C927      1.0  0.98226  0.14560  0.83011  1.0000
  H   H1459     1.0  0.77603  0.26913  0.75019  1.0000
  H   H1460     1.0  0.67765  0.99315  0.93670  1.0000
  S   S363      1.0  0.81790  0.20017  0.74639  1.0000
  C   C928      1.0  0.98564  0.29048  0.83129  1.0000
  C   C929      1.0  0.73088  0.23346  0.74268  1.0000
  S   S364      1.0  0.72873  0.07836  0.74416  1.0000
  H   H1461     1.0  0.92696  0.20687  0.74600  1.0000
  S   S365      1.0  0.66104  0.14576  0.79396  1.0000
  H   H1462     1.0  0.98532  0.28182  0.78110  1.0000
  C   C930      1.0  0.81157  0.29386  0.74508  1.0000
  H   H1463     1.0  0.98824  0.08720  0.76738  1.0000
  H   H1464     1.0  0.97853  0.27440  0.84075  1.0000
  H   H1465     1.0  0.95291  0.19458  0.84618  1.0000
  H   H1466     1.0  0.98144  0.26154  0.80659  1.0000
  H   H1467     1.0  0.97785  0.06834  0.74040  1.0000
  C   C931      1.0  0.78049  0.36901  0.22150  1.0000
  C   C932      1.0  0.76024  0.43287  0.21789  1.0000
  Fe  Fe186     1.0  0.68475  0.39828  0.19549  1.0000
  Fe  Fe187     1.0  0.69646  0.43942  0.20814  1.0000
  C   C933      1.0  0.69260  0.51195  0.21976  1.0000
  S   S366      1.0  0.70580  0.47544  0.19930  1.0000
  H   H1468     1.0  0.67691  0.34171  0.15228  1.0000
  H   H1469     1.0  0.96955  0.42361  0.06470  1.0000
  C   C934      1.0  0.70262  0.34234  0.19405  1.0000
  S   S367      1.0  0.71903  0.40885  0.19619  1.0000
  C   C935      1.0  0.96353  0.37186  0.14661  1.0000
  C   C936      1.0  0.94496  0.42430  0.09492  1.0000
  Fe  Fe188     1.0  0.89583  0.39397  0.15631  1.0000
  S   S368      1.0  0.90147  0.38125  0.19037  1.0000
  S   S369      1.0  0.91551  0.42206  0.13463  1.0000
  C   C937      1.0  0.80357  0.37416  0.21740  1.0000
  Fe  Fe189     1.0  0.86288  0.37849  0.19853  1.0000
  S   S370      1.0  0.67871  0.37888  0.22981  1.0000
  S   S371      1.0  0.85684  0.39460  0.16505  1.0000
  H   H1470     1.0  0.96301  0.35861  0.23358  1.0000
  C   C938      1.0  0.95394  0.41731  0.07500  1.0000
  H   H1471     1.0  0.89627  0.39696  0.11120  1.0000
  H   H1472     1.0  0.95210  0.37036  0.16308  1.0000
  C   C939      1.0  0.91253  0.40238  0.10129  1.0000
  S   S372      1.0  0.95493  0.39084  0.04508  1.0000
  C   C940      1.0  0.94252  0.40240  0.06844  1.0000
  H   H1473     1.0  0.96400  0.41807  0.13667  1.0000
  H   H1474     1.0  0.81532  0.37207  0.20221  1.0000
  H   H1475     1.0  0.76203  0.41550  0.21402  1.0000
  H   H1476     1.0  0.77556  0.47044  0.22260  1.0000
  H   H1477     1.0  0.82958  0.32062  0.11486  1.0000
  H   H1478     1.0  0.81268  0.44908  0.18902  1.0000
  N   N92       1.0  0.90903  0.32507  0.09316  1.0000
  H   H1479     1.0  0.93390  0.34771  0.07379  1.0000
  N   N93       1.0  0.77567  0.44779  0.20122  1.0000
  H   H1480     1.0  0.87191  0.33552  0.09568  1.0000
  C   C941      1.0  0.95646  0.32533  0.19970  1.0000
  H   H1481     1.0  0.71085  0.51466  0.21489  1.0000
  C   C942      1.0  0.92466  0.41623  0.10839  1.0000
  S   S373      1.0  0.84312  0.34691  0.14043  1.0000
  H   H1482     1.0  0.89002  0.35518  0.07661  1.0000
  S   S374      1.0  0.93535  0.31823  0.18799  1.0000
  Fe  Fe190     1.0  0.86419  0.35817  0.15996  1.0000
  H   H1483     1.0  0.98753  0.39498  0.11001  1.0000
  H   H1484     1.0  0.80377  0.33173  0.19189  1.0000
  C   C943      1.0  0.88854  0.34310  0.09262  1.0000
  H   H1485     1.0  0.75162  0.45668  0.17931  1.0000
  C   C944      1.0  0.81125  0.38244  0.23283  1.0000
  H   H1486     1.0  0.95402  0.43561  0.10004  1.0000
  H   H1487     1.0  0.77285  0.43202  0.17537  1.0000
  C   C945      1.0  0.77169  0.47105  0.20639  1.0000
  C   C946      1.0  0.96767  0.34634  0.22289  1.0000
  C   C947      1.0  0.77020  0.44932  0.17968  1.0000
  H   H1488     1.0  0.96971  0.35405  0.14373  1.0000
  S   S375      1.0  0.66272  0.43064  0.20381  1.0000
  C   C948      1.0  0.68512  0.49370  0.21422  1.0000
  H   H1489     1.0  0.93273  0.34964  0.21688  1.0000
  C   C949      1.0  0.66140  0.49028  0.22070  1.0000
  C   C950      1.0  0.95056  0.34138  0.21332  1.0000
  S   S376      1.0  0.90273  0.35896  0.14808  1.0000
  H   H1490     1.0  0.70802  0.35411  0.20170  1.0000
  C   C951      1.0  0.92129  0.39579  0.08120  1.0000
  H   H1491     1.0  0.91173  0.38544  0.07558  1.0000
  Fe  Fe191     1.0  0.90532  0.34610  0.18289  1.0000
  H   H1492     1.0  0.74146  0.44028  0.21907  1.0000
  H   H1493     1.0  0.77437  0.36301  0.20949  1.0000
  S   S377      1.0  0.83953  0.39020  0.22768  1.0000
  H   H1494     1.0  0.75310  0.47892  0.20671  1.0000
  H   H1495     1.0  0.95234  0.38071  0.13468  1.0000
  H   H1496     1.0  0.98880  0.41787  0.14831  1.0000
  S   S378      1.0  0.86712  0.34188  0.19428  1.0000
  H   H1497     1.0  0.98733  0.37109  0.17777  1.0000
  H   H1498     1.0  0.78031  0.31783  0.22928  1.0000
  C   C952      1.0  0.69084  0.35074  0.17680  1.0000
  N   N94       1.0  0.98337  0.38461  0.14476  1.0000
  H   H1499     1.0  0.92923  0.34625  0.10252  1.0000
  H   H1500     1.0  0.78297  0.48286  0.19413  1.0000
  H   H1501     1.0  0.91387  0.32391  0.05936  1.0000
  H   H1502     1.0  0.90281  0.31820  0.12808  1.0000
  C   C953      1.0  0.84584  0.31713  0.14225  1.0000
  H   H1503     1.0  0.77692  0.33712  0.18189  1.0000
  C   C954      1.0  0.93053  0.33590  0.08994  1.0000
  H   H1504     1.0  0.76446  0.43048  0.23426  1.0000
  C   C955      1.0  0.99085  0.33574  0.21841  1.0000
  C   C956      1.0  0.97429  0.40801  0.14894  1.0000
  Fe  Fe192     1.0  0.71174  0.39106  0.23108  1.0000
  H   H1505     1.0  0.88660  0.35352  0.10529  1.0000
  H   H1506     1.0  0.78151  0.46045  0.16667  1.0000
  S   S379      1.0  0.68105  0.38027  0.16993  1.0000
  C   C957      1.0  0.80046  0.43793  0.20094  1.0000
  H   H1507     1.0  0.67444  0.57573  0.17068  1.0000
  C   C958      1.0  0.79184  0.32375  0.18553  1.0000
  C   C959      1.0  0.67674  0.52621  0.23234  1.0000
  H   H1508     1.0  0.96245  0.40743  0.16516  1.0000
  H   H1509     1.0  0.94629  0.32280  0.09070  1.0000
  C   C960      1.0  0.68573  0.33529  0.16582  1.0000
  H   H1510     1.0  0.80507  0.43563  0.21716  1.0000
  H   H1511     1.0  0.80168  0.31930  0.16981  1.0000
  H   H1512     1.0  0.80423  0.42069  0.19642  1.0000
  H   H1513     1.0  0.68288  0.53979  0.23721  1.0000
  H   H1514     1.0  0.75422  0.32291  0.21830  1.0000
  C   C961      1.0  0.70763  0.31856  0.20140  1.0000
  Fe  Fe193     1.0  0.99185  0.39852  0.03030  1.0000
  H   H1515     1.0  0.66116  0.53786  0.18877  1.0000
  H   H1516     1.0  0.66062  0.33798  0.22780  1.0000
  C   C962      1.0  0.71126  0.32200  0.29965  1.0000
  H   H1517     1.0  0.76141  0.38169  0.27189  1.0000
  C   C963      1.0  0.76533  0.37161  0.24121  1.0000
  C   C964      1.0  0.77307  0.37974  0.25662  1.0000
  H   H1518     1.0  0.68527  0.40568  0.45518  1.0000
  C   C965      1.0  0.68237  0.38844  0.46394  1.0000
  S   S380      1.0  0.66565  0.33046  0.45207  1.0000
  H   H1519     1.0  0.72266  0.32733  0.28349  1.0000
  H   H1520     1.0  0.68917  0.35438  0.27289  1.0000
  H   H1521     1.0  0.68956  0.32824  0.34016  1.0000
  H   H1522     1.0  0.67182  0.42663  0.31105  1.0000
  N   N95       1.0  0.69354  0.34123  0.30575  1.0000
  C   C966      1.0  0.70539  0.36060  0.30662  1.0000
  C   C967      1.0  0.67299  0.35048  0.46460  1.0000
  H   H1523     1.0  0.72296  0.31558  0.31156  1.0000
  H   H1524     1.0  0.71697  0.35546  0.31871  1.0000
  C   C968      1.0  0.68357  0.38201  0.48599  1.0000
  C   C969      1.0  0.79591  0.38541  0.25232  1.0000
  H   H1525     1.0  0.67554  0.37790  0.43637  1.0000
  S   S381      1.0  0.66215  0.39385  0.35050  1.0000
  C   C970      1.0  0.67671  0.37280  0.45332  1.0000
  H   H1526     1.0  0.69251  0.37534  0.31129  1.0000
  H   H1527     1.0  0.71636  0.36715  0.29060  1.0000
  H   H1528     1.0  0.66504  0.34742  0.33211  1.0000
  C   C971      1.0  0.67854  0.34886  0.28937  1.0000
  H   H1529     1.0  0.80182  0.39184  0.26423  1.0000
  S   S382      1.0  0.73699  0.36400  0.24701  1.0000
  C   C972      1.0  0.67894  0.33343  0.32729  1.0000
  H   H1530     1.0  0.66889  0.33482  0.28860  1.0000
  H   H1531     1.0  0.66534  0.36374  0.29306  1.0000
  S   S383      1.0  0.69287  0.42257  0.24330  1.0000
  C   C973      1.0  0.67483  0.34392  0.48648  1.0000
  H   H1532     1.0  0.67010  0.31852  0.32736  1.0000
  H   H1533     1.0  0.75342  0.36416  0.63556  1.0000
  H   H1534     1.0  0.97149  0.41043  0.67517  1.0000
  H   H1535     1.0  0.86392  0.39145  0.70006  1.0000
  S   S384      1.0  0.83704  0.37841  0.67388  1.0000
  Fe  Fe194     1.0  0.66533  0.39867  0.53282  1.0000
  C   C974      1.0  0.74270  0.34821  0.59196  1.0000
  H   H1536     1.0  0.71255  0.38539  0.53909  1.0000
  H   H1537     1.0  0.77108  0.40089  0.50922  1.0000
  H   H1538     1.0  0.93380  0.39672  0.67785  1.0000
  S   S385      1.0  0.82312  0.31762  0.68954  1.0000
  S   S386      1.0  0.83684  0.33424  0.63625  1.0000
  H   H1539     1.0  0.66305  0.40385  0.70835  1.0000
  H   H1540     1.0  0.70172  0.35888  0.68062  1.0000
  H   H1541     1.0  0.71509  0.41072  0.56298  1.0000
  C   C975      1.0  0.96939  0.42132  0.65913  1.0000
  H   H1542     1.0  0.94340  0.41815  0.61830  1.0000
  Fe  Fe195     1.0  0.79895  0.33211  0.63670  1.0000
  S   S387      1.0  0.78429  0.33700  0.60624  1.0000
  H   H1543     1.0  0.97114  0.37644  0.66045  1.0000
  H   H1544     1.0  0.92247  0.42478  0.66494  1.0000
  C   C976      1.0  0.96840  0.38789  0.64479  1.0000
  H   H1545     1.0  0.73502  0.44207  0.51899  1.0000
  S   S388      1.0  0.66342  0.42333  0.55477  1.0000
  Fe  Fe196     1.0  0.97951  0.39709  0.71620  1.0000
  Fe  Fe197     1.0  0.82216  0.35064  0.66531  1.0000
  Fe  Fe198     1.0  0.95436  0.35962  0.71051  1.0000
  C   C977      1.0  0.75500  0.34986  0.60762  1.0000
  S   S389      1.0  0.94078  0.34437  0.68777  1.0000
  H   H1546     1.0  0.73944  0.42688  0.55703  1.0000
  H   H1547     1.0  0.71313  0.38386  0.63608  1.0000
  C   C978      1.0  0.67976  0.35973  0.49724  1.0000
  C   C979      1.0  0.73186  0.38446  0.53332  1.0000
  H   H1548     1.0  0.75111  0.33837  0.57955  1.0000
  C   C980      1.0  0.71959  0.35925  0.59237  1.0000
  C   C981      1.0  0.95349  0.42571  0.62695  1.0000
  S   S390      1.0  0.66808  0.36666  0.55845  1.0000
  H   H1549     1.0  0.67014  0.34131  0.60254  1.0000
  C   C982      1.0  0.76597  0.40405  0.52612  1.0000
  C   C983      1.0  0.66234  0.37838  0.66670  1.0000
  S   S391      1.0  0.68860  0.40215  0.49976  1.0000
  N   N96       1.0  0.66833  0.37956  0.68739  1.0000
  Fe  Fe199     1.0  0.66308  0.39138  0.58083  1.0000
  H   H1550     1.0  0.68073  0.35459  0.51421  1.0000
  C   C984      1.0  0.87456  0.37793  0.69229  1.0000
  H   H1551     1.0  0.71815  0.31962  0.65235  1.0000
  H   H1552     1.0  0.92175  0.39982  0.65425  1.0000
  S   S392      1.0  0.68068  0.38738  0.60896  1.0000
  H   H1553     1.0  0.66912  0.39235  0.65330  1.0000
  H   H1554     1.0  0.90411  0.37730  0.70677  1.0000
  H   H1555     1.0  0.67002  0.36171  0.66160  1.0000
  C   C985      1.0  0.70894  0.37219  0.60830  1.0000
  H   H1556     1.0  0.73266  0.42261  0.50236  1.0000
  C   C986      1.0  0.91133  0.35292  0.68553  1.0000
  S   S393      1.0  0.99241  0.43117  0.70109  1.0000
  C   C987      1.0  0.90208  0.34305  0.67220  1.0000
  C   C988      1.0  0.89735  0.36997  0.69602  1.0000
  C   C989      1.0  0.69409  0.37576  0.68528  1.0000
  C   C990      1.0  0.72116  0.37363  0.62397  1.0000
  S   S394      1.0  0.78441  0.35153  0.66386  1.0000
  H   H1557     1.0  0.66629  0.41650  0.67988  1.0000
  C   C991      1.0  0.86540  0.36820  0.67877  1.0000
  H   H1558     1.0  0.67203  0.32665  0.49523  1.0000
  H   H1559     1.0  0.66391  0.34419  0.70093  1.0000
  C   C992      1.0  0.87906  0.35044  0.66907  1.0000
  H   H1560     1.0  0.94409  0.44305  0.62899  1.0000
  C   C993      1.0  0.73427  0.41023  0.55622  1.0000
  H   H1561     1.0  0.95823  0.37887  0.63748  1.0000
  S   S395      1.0  0.94143  0.39320  0.72149  1.0000
  H   H1562     1.0  0.71019  0.35792  0.58033  1.0000
  N   N97       1.0  0.74026  0.40606  0.53377  1.0000
  C   C994      1.0  0.72896  0.42545  0.51936  1.0000
  H   H1563     1.0  0.66241  0.36137  0.72065  1.0000
  C   C995      1.0  0.74405  0.36246  0.62368  1.0000
  H   H1564     1.0  0.96051  0.43851  0.66223  1.0000
  H   H1565     1.0  0.87210  0.34282  0.65866  1.0000
  H   H1566     1.0  0.74337  0.39643  0.56734  1.0000
  H   H1567     1.0  0.74018  0.36937  0.54380  1.0000
  N   N98       1.0  0.95594  0.41074  0.64815  1.0000
  H   H1568     1.0  0.77502  0.38950  0.53663  1.0000
  H   H1569     1.0  0.77295  0.42003  0.52628  1.0000
  Fe  Fe200     1.0  0.78691  0.31656  0.68546  1.0000
  C   C996      1.0  0.93244  0.40798  0.66183  1.0000
  H   H1570     1.0  0.70955  0.42752  0.52472  1.0000
  H   H1571     1.0  0.98597  0.38927  0.63405  1.0000
  H   H1572     1.0  0.70260  0.38940  0.67267  1.0000
  H   H1573     1.0  0.91278  0.32984  0.66405  1.0000
  H   H1574     1.0  0.69923  0.37569  0.70083  1.0000
  H   H1575     1.0  0.97092  0.42821  0.61623  1.0000
  H   H1576     1.0  0.73563  0.38103  0.51653  1.0000
  H   H1577     1.0  0.98733  0.42362  0.64945  1.0000
  H   H1578     1.0  0.75188  0.31760  0.66908  1.0000
  S   S396      1.0  0.99219  0.36551  0.70188  1.0000
  Fe  Fe201     1.0  0.99301  0.34760  0.73613  1.0000
  C   C997      1.0  0.91494  0.35805  0.82694  1.0000
  S   S397      1.0  0.91849  0.37603  0.78374  1.0000
  C   C998      1.0  0.92911  0.36840  0.80788  1.0000
  H   H1579     1.0  0.96246  0.38063  0.79374  1.0000
  C   C999      1.0  0.95184  0.37179  0.80816  1.0000
  H   H1580     1.0  0.89723  0.35572  0.82684  1.0000
  S   S398      1.0  0.95906  0.33895  0.86874  1.0000
  C   C1000     1.0  0.94709  0.35219  0.84589  1.0000
  C   C1001     1.0  0.92397  0.34983  0.84591  1.0000
  H   H1581     1.0  0.98492  0.45007  0.89698  1.0000
  C   C1002     1.0  0.96072  0.36394  0.82726  1.0000
  Fe  Fe202     1.0  0.94660  0.37311  0.75425  1.0000
  H   H1582     1.0  0.91325  0.34108  0.86043  1.0000
  H   H1583     1.0  0.97813  0.36681  0.82751  1.0000
  H   H1584     1.0  0.97973  0.44696  0.79409  1.0000
  H   H1585     1.0  0.98623  0.33168  0.80596  1.0000
  S   S399      1.0  0.98375  0.37967  0.74994  1.0000
  S   S400      1.0  0.95626  0.33911  0.74381  1.0000
  H   H1586     1.0  0.98607  0.32362  0.78107  1.0000
  H   H1587     1.0  0.98906  0.42901  0.77419  1.0000
  H   H1588     1.0  0.99133  0.41723  0.80197  1.0000
  H   H1589     1.0  0.94723  0.31670  0.81963  1.0000
  C   C1003     1.0  0.99133  0.31730  0.79707  1.0000
  C   C1004     1.0  0.99326  0.43289  0.78886  1.0000
  H   H1590     1.0  0.99371  0.40816  0.89471  1.0000
  H   H1591     1.0  0.76838  0.96767  0.13055  1.0000
  N   N99       1.0  0.86131  0.97875  0.21734  1.0000
  H   H1592     1.0  0.85526  0.94900  0.20718  1.0000
  H   H1593     1.0  0.72213  0.97916  0.14730  1.0000
  H   H1594     1.0  0.67666  0.94967  0.02315  1.0000
  N   N100      1.0  0.68078  0.92210  0.00593  1.0000
  H   H1595     1.0  0.89414  0.95680  0.21183  1.0000
  S   S401      1.0  0.69988  0.95321  0.06494  1.0000
  H   H1596     1.0  0.68286  0.88984  0.99613  1.0000
  H   H1597     1.0  0.69219  0.92319  0.03499  1.0000
  S   S402      1.0  0.98232  0.97011  0.23680  1.0000
  C   C1005     1.0  0.84975  0.96791  0.20492  1.0000
  H   H1598     1.0  0.83027  0.97079  0.21001  1.0000
  S   S403      1.0  0.73567  0.96742  0.10424  1.0000
  C   C1006     1.0  0.67757  0.93060  0.02627  1.0000
  H   H1599     1.0  0.69356  0.88772  0.02055  1.0000
  H   H1600     1.0  0.85411  0.97522  0.18721  1.0000
  C   C1007     1.0  0.67997  0.89696  0.01112  1.0000
  C   C1008     1.0  0.88700  0.97539  0.20944  1.0000
  H   H1601     1.0  0.73872  0.97842  0.16753  1.0000
  H   H1602     1.0  0.70894  0.97207  0.17556  1.0000
  S   S404      1.0  0.67144  0.97982  0.10396  1.0000
  H   H1603     1.0  0.71842  0.91860  0.00040  1.0000
  Fe  Fe203     1.0  0.70775  0.97699  0.08391  1.0000
  C   C1009     1.0  0.70371  0.92716  0.99212  1.0000
  Fe  Fe204     1.0  0.66282  0.95899  0.08307  1.0000
  H   H1604     1.0  0.66260  0.89270  0.02103  1.0000
  C   C1010     1.0  0.66182  0.93367  0.99426  1.0000
  H   H1605     1.0  0.66109  0.92606  0.03753  1.0000
  C   C1011     1.0  0.97650  0.94970  0.35857  1.0000
  C   C1012     1.0  0.97580  0.94013  0.34086  1.0000
  H   H1606     1.0  0.96599  0.94378  0.37438  1.0000
  C   C1013     1.0  0.98886  0.94820  0.32027  1.0000
  H   H1607     1.0  0.96463  0.92698  0.34299  1.0000
  S   S405      1.0  0.98687  0.93754  0.29776  1.0000
  H   H1608     1.0  0.86158  0.94937  0.24363  1.0000
  H   H1609     1.0  0.83625  0.97065  0.24704  1.0000
  C   C1014     1.0  0.99085  0.96679  0.35586  1.0000
  H   H1610     1.0  0.86399  0.97607  0.25049  1.0000
  S   S406      1.0  0.99142  0.97895  0.37801  1.0000
  H   H1611     1.0  0.99357  0.96720  0.48063  1.0000
  C   C1015     1.0  0.85555  0.96822  0.24067  1.0000
  H   H1612     1.0  0.69582  0.80629  0.70862  1.0000
  H   H1613     1.0  0.72606  0.84097  0.73218  1.0000
  S   S407      1.0  0.87257  0.95281  0.67550  1.0000
  H   H1614     1.0  0.96053  0.91269  0.71159  1.0000
  C   C1016     1.0  0.94984  0.95389  0.72364  1.0000
  H   H1615     1.0  0.94522  0.95142  0.62132  1.0000
  C   C1017     1.0  0.83955  0.92990  0.66928  1.0000
  H   H1616     1.0  0.69645  0.83684  0.70070  1.0000
  H   H1617     1.0  0.93945  0.96261  0.58346  1.0000
  C   C1018     1.0  0.90264  0.94862  0.61459  1.0000
  C   C1019     1.0  0.79871  0.93261  0.68798  1.0000
  H   H1618     1.0  0.96743  0.95667  0.72526  1.0000
  S   S408      1.0  0.77052  0.92484  0.69107  1.0000
  C   C1020     1.0  0.81693  0.92389  0.67268  1.0000
  H   H1619     1.0  0.91592  0.93396  0.61030  1.0000
  C   C1021     1.0  0.70329  0.82092  0.71134  1.0000
  C   C1022     1.0  0.95908  0.96851  0.68502  1.0000
  C   C1023     1.0  0.96643  0.92776  0.69909  1.0000
  C   C1024     1.0  0.84401  0.94531  0.68063  1.0000
  H   H1620     1.0  0.69940  0.85929  0.72778  1.0000
  H   H1621     1.0  0.85351  0.92277  0.65762  1.0000
  H   H1622     1.0  0.96080  0.96520  0.66842  1.0000
  H   H1623     1.0  0.94380  0.93948  0.73691  1.0000
  H   H1624     1.0  0.92626  0.94329  0.68410  1.0000
  H   H1625     1.0  0.93765  0.96974  0.72649  1.0000
  H   H1626     1.0  0.96744  0.92379  0.68284  1.0000
  Fe  Fe205     1.0  0.74208  0.93252  0.71930  1.0000
  H   H1627     1.0  0.72264  0.81803  0.70575  1.0000
  H   H1628     1.0  0.78946  0.95402  0.71200  1.0000
  H   H1629     1.0  0.92285  0.96056  0.64281  1.0000
  H   H1630     1.0  0.91966  0.93171  0.71272  1.0000
  C   C1025     1.0  0.82581  0.95433  0.69584  1.0000
  H   H1631     1.0  0.81356  0.91224  0.66355  1.0000
  S   S409      1.0  0.74010  0.96315  0.73398  1.0000
  S   S410      1.0  0.70391  0.93800  0.71712  1.0000
  H   H1632     1.0  0.91401  0.96210  0.70294  1.0000
  C   C1026     1.0  0.80326  0.94760  0.69984  1.0000
  H   H1633     1.0  0.97651  0.97186  0.68651  1.0000
  H   H1634     1.0  0.88916  0.95117  0.60446  1.0000
  C   C1027     1.0  0.92521  0.97630  0.58841  1.0000
  H   H1635     1.0  0.98457  0.92933  0.70026  1.0000
  N   N101      1.0  0.95047  0.94913  0.70203  1.0000
  C   C1028     1.0  0.92661  0.94642  0.70035  1.0000
  H   H1636     1.0  0.89373  0.94328  0.63185  1.0000
  Fe  Fe206     1.0  0.70155  0.96690  0.73452  1.0000
  C   C1029     1.0  0.70664  0.84277  0.73735  1.0000
  C   C1030     1.0  0.93110  0.96557  0.62536  1.0000
  H   H1637     1.0  0.82924  0.96599  0.70491  1.0000
  N   N102      1.0  0.91356  0.96980  0.61140  1.0000
  N   N103      1.0  0.69686  0.82294  0.73442  1.0000
  H   H1638     1.0  0.93974  0.98117  0.62341  1.0000
  H   H1639     1.0  0.66338  0.84219  0.73073  1.0000
  H   H1640     1.0  0.66578  0.90712  0.72310  1.0000
  H   H1641     1.0  0.91258  0.97924  0.57738  1.0000
  S   S411      1.0  0.99308  0.93853  0.63420  1.0000
  H   H1642     1.0  0.66315  0.81175  0.73960  1.0000
  H   H1643     1.0  0.70653  0.90262  0.79500  1.0000
  C   C1031     1.0  0.70549  0.89071  0.81099  1.0000
  H   H1644     1.0  0.69910  0.78627  0.74605  1.0000
  C   C1032     1.0  0.73626  0.96051  0.80838  1.0000
  H   H1645     1.0  0.72285  0.88897  0.81557  1.0000
  H   H1646     1.0  0.70222  0.88012  0.85396  1.0000
  S   S412      1.0  0.74665  0.93743  0.79482  1.0000
  H   H1647     1.0  0.67150  0.88919  0.86130  1.0000
  C   C1033     1.0  0.70613  0.80153  0.74804  1.0000
  H   H1648     1.0  0.70282  0.87370  0.80853  1.0000
  S   S413      1.0  0.69269  0.94532  0.76764  1.0000
  H   H1649     1.0  0.69167  0.93484  0.81474  1.0000
  H   H1650     1.0  0.76151  0.94980  0.82915  1.0000
  C   C1034     1.0  0.68533  0.88285  0.84835  1.0000
  H   H1651     1.0  0.70498  0.94598  0.98830  1.0000
  H   H1652     1.0  0.70220  0.84462  0.75466  1.0000
  H   H1653     1.0  0.70747  0.92060  0.83559  1.0000
  N   N104      1.0  0.68627  0.89942  0.82745  1.0000
  Fe  Fe207     1.0  0.73135  0.93896  0.76582  1.0000
  H   H1654     1.0  0.68140  0.86583  0.84707  1.0000
  S   S414      1.0  0.67071  0.97466  0.89863  1.0000
  Fe  Fe208     1.0  0.69842  0.91577  0.75053  1.0000
  S   S415      1.0  0.73679  0.90764  0.75120  1.0000
  H   H1655     1.0  0.67641  0.92908  0.84249  1.0000
  H   H1656     1.0  0.70664  0.92141  0.97642  1.0000
  C   C1035     1.0  0.69060  0.92196  0.83021  1.0000
  H   H1657     1.0  0.70093  0.80230  0.76561  1.0000
  S   S416      1.0  0.67550  0.88775  0.76638  1.0000
  C   C1036     1.0  0.74674  0.96220  0.82519  1.0000
  C   C1037     1.0  0.67111  0.82657  0.74103  1.0000
  H   H1658     1.0  0.66562  0.82853  0.75826  1.0000
  C   C1038     1.0  0.71714  0.97657  0.80331  1.0000
  H   H1659     1.0  0.70909  0.97545  0.79026  1.0000
  H   H1660     1.0  0.72559  0.79831  0.74381  1.0000
  C   C1039     1.0  0.66374  0.90208  0.82031  1.0000
  H   H1661     1.0  0.66399  0.91409  0.80435  1.0000
  H   H1662     1.0  0.66340  0.92736  0.97903  1.0000
  H   H1663     1.0  0.74584  0.98050  0.85047  1.0000
  H   H1664     1.0  0.66216  0.95258  0.98976  1.0000
  C   C1040     1.0  0.73795  0.97961  0.83719  1.0000
