data_image0
_chemical_formula_structural       FeS2FeS2FeSFeS3FeS2FeS2FeSFeS3FeS2FeS2FeSFeS3FeS2FeS2FeSFeS3FeS2FeS2FeSFeS3FeS2FeS2FeSFeS3FeS2FeS2FeSFeS3FeS2FeS2FeSFeS3FeS2FeS2FeSFeS3FeS2FeS2FeSFeS3FeS2FeS2FeSFeS3FeS2FeS2FeSFeS3FeS2FeS2FeSFeS3FeS2FeS2FeSFeS3FeS2FeS2FeSFeS3FeS2FeS2FeSFeS3C6H4C6H4C6H4C6H4C6H4C6H4C6H4C6H4C6H4C6H4C6H4C6H4C6H4C6H4C6H4C6H4C6H4C6H4C6H4C6H4C6H4C6H4C6H4C6H4C6H4C6H4C6H4C6H4C6H4C6H4C6H4C6H4NC4H12NC4H12NC4H12NC4H12NC4H12NC4H12NC4H12NC4H12NC4H12NC4H12NC4H12NC4H12NC4H12NC4H12NC4H12NC4H12NC4H12NC4H12NC4H12NC4H12NC4H12NC4H12NC4H12NC4H12NC4H12NC4H12NC4H12NC4H12NC4H12NC4H12NC4H12NC4H12
_chemical_formula_sum              "Fe64 S128 C320 H512 N32"
_cell_length_a       27.98703190992963
_cell_length_b       55.546092889148696
_cell_length_c       38.738159097657075
_cell_angle_alpha    90.24270735731668
_cell_angle_beta     105.64496159566717
_cell_angle_gamma    89.27365291327045

_space_group_name_H-M_alt    "P 1"
_space_group_IT_number       1

loop_
  _space_group_symop_operation_xyz
  'x, y, z'

loop_
  _atom_site_type_symbol
  _atom_site_label
  _atom_site_symmetry_multiplicity
  _atom_site_fract_x
  _atom_site_fract_y
  _atom_site_fract_z
  _atom_site_occupancy
  Fe  Fe1       1.0  0.5412734449522386  0.3187688754406806  0.20023832647075296  1.0000
  S   S1        1.0  0.5471845599327703  0.2862354427239842  0.2353776744908468  1.0000
  S   S2        1.0  0.490538011795108  0.35056572230100475  0.20022236805048133  1.0000
  Fe  Fe2       1.0  0.6056305130810757  0.29665709223944836  0.15617345028449148  1.0000
  S   S3        1.0  0.617624245903076  0.2623483912016981  0.18759972367947308  1.0000
  S   S4        1.0  0.6395542890654448  0.3038907648041518  0.11053416220749601  1.0000
  Fe  Fe3       1.0  0.5363629403555336  0.2650505302042094  0.18442243566514868  1.0000
  S   S5        1.0  0.4856249781699449  0.23390567073248694  0.16394514916262584  1.0000
  Fe  Fe4       1.0  0.628058254156427  0.28638783873039664  0.23584205865938784  1.0000
  S   S6        1.0  0.6872180013875171  0.2769284032532238  0.2865979838000826  1.0000
  S   S7        1.0  0.523661842537835  0.297610170179214  0.1491627854259298  1.0000
  S   S8        1.0  0.6226400645945631  0.32080394292054915  0.20461259588961125  1.0000
  Fe  Fe5       1.0  0.5809895273037063  0.2550194614990139  0.8664995485873025  1.0000
  S   S9        1.0  0.6049333469345621  0.2844792693829809  0.9071331255513924  1.0000
  S   S10       1.0  0.61885207931938  0.21893583121627497  0.8656443728820135  1.0000
  Fe  Fe6       1.0  0.48522999576575915  0.28171939684049524  0.826926171024652  1.0000
  S   S11       1.0  0.5015517750072627  0.3132183996188597  0.8643658569267237  1.0000
  S   S12       1.0  0.4196636273179522  0.2804768986465336  0.7777407606796995  1.0000
  Fe  Fe7       1.0  0.5795072262753853  0.3093567984042991  0.8595204802020678  1.0000
  S   S13       1.0  0.620317297684151  0.3431625485222855  0.8529066048166803  1.0000
  Fe  Fe8       1.0  0.5250094574569423  0.2856533724881971  0.9079684086288912  1.0000
  S   S14       1.0  0.4955798506860183  0.2852992116967541  0.9566740895045809  1.0000
  S   S15       1.0  0.5617623549339531  0.2796462180531304  0.8188926790743543  1.0000
  S   S16       1.0  0.5025462367689231  0.2542507756823711  0.8707071825843367  1.0000
  Fe  Fe9       1.0  0.6791924308760349  0.40355922753654616  0.6886928331175198  1.0000
  S   S17       1.0  0.7196986917786393  0.39660676740025574  0.6467017381312489  1.0000
  S   S18       1.0  0.6341182889262857  0.3718140335472251  0.6976136894620674  1.0000
  Fe  Fe10      1.0  0.7110889593864343  0.4559216882283979  0.6973775256002946  1.0000
  S   S19       1.0  0.7517973649188767  0.45291905103922564  0.6551384016199551  1.0000
  S   S20       1.0  0.7226623739781987  0.4904227719336591  0.7294377633844928  1.0000
  Fe  Fe11      1.0  0.6867578513449902  0.4319740668726715  0.6240863899614922  1.0000
  S   S21       1.0  0.6623051740803496  0.43546501549297406  0.5641104738084544  1.0000
  Fe  Fe12      1.0  0.7809566591474423  0.4180632088376841  0.6818630432751874  1.0000
  S   S22       1.0  0.8633416010793609  0.4122667881791514  0.691800778522077  1.0000
  S   S23       1.0  0.6422917780297634  0.4379681086179905  0.663828075657217  1.0000
  S   S24       1.0  0.7439455266614006  0.42192568141021136  0.7262130213098282  1.0000
  Fe  Fe13      1.0  0.6597147929076738  0.6197849349095153  0.6531570244305284  1.0000
  S   S25       1.0  0.7237890124887778  0.6268494117370096  0.6303012056169142  1.0000
  S   S26       1.0  0.6188453443658231  0.5847357388968258  0.6505139230729658  1.0000
  Fe  Fe14      1.0  0.6395346079718767  0.6731059590860107  0.6615871777930826  1.0000
  S   S27       1.0  0.7007990384248779  0.6849226266529249  0.6384881394240198  1.0000
  S   S28       1.0  0.5849953301452738  0.6997635504398717  0.6734553300086755  1.0000
  Fe  Fe15      1.0  0.6753764679522581  0.6557111279287174  0.5981214000643351  1.0000
  S   S29       1.0  0.6702102064341346  0.6594863091796364  0.5395297076666994  1.0000
  Fe  Fe16      1.0  0.7448641864198493  0.6555565311164708  0.6728238052770853  1.0000
  S   S30       1.0  0.825590178106641  0.6605348883550263  0.7026576939529678  1.0000
  S   S31       1.0  0.6097441694477103  0.6466995347739578  0.6175552698514988  1.0000
  S   S32       1.0  0.6849365326837474  0.6456869430939742  0.6991556890902839  1.0000
  Fe  Fe17      1.0  0.5697787159147693  0.7589020752484308  0.1407957446698652  1.0000
  S   S33       1.0  0.5683168651222494  0.7992339683928734  0.14331464661998392  1.0000
  S   S34       1.0  0.5608961012230624  0.7388953688911766  0.08848937357200373  1.0000
  Fe  Fe18      1.0  0.5743845562587144  0.7535517031661947  0.22047893370956317  1.0000
  S   S35       1.0  0.5728526823676156  0.793497028060936  0.22836280747640506  1.0000
  S   S36       1.0  0.5822899211704424  0.7327040123428479  0.2716253447885663  1.0000
  Fe  Fe19      1.0  0.5141088845642345  0.7944351807239108  0.17600606908813993  1.0000
  S   S37       1.0  0.4356062415433293  0.8090269808493531  0.16320711436174246  1.0000
  Fe  Fe20      1.0  0.6275874261474785  0.7940364312664602  0.19522930329802599  1.0000
  S   S38       1.0  0.6958558019277246  0.8168522257818069  0.21409294784790345  1.0000
  S   S39       1.0  0.5117246260396114  0.754218245034264  0.17043170076733566  1.0000
  S   S40       1.0  0.6327968799567903  0.7539252980371228  0.19061487972303273  1.0000
  Fe  Fe21      1.0  0.5297703921583897  0.7493852097463732  0.8376823060225608  1.0000
  S   S41       1.0  0.5123168770188931  0.7762163363350955  0.7928975816190897  1.0000
  S   S42       1.0  0.5526402814361033  0.7112435405580785  0.8281657696668371  1.0000
  Fe  Fe22      1.0  0.5302364179351634  0.7879063002120994  0.8944849683922124  1.0000
  S   S43       1.0  0.5124944528219167  0.8174073535974141  0.8533043064280551  1.0000
  S   S44       1.0  0.5495316350969938  0.8026501922932469  0.9511340286830257  1.0000
  Fe  Fe23      1.0  0.4573234006743472  0.7913368278460838  0.8205000166787427  1.0000
  S   S45       1.0  0.38362734591678926  0.806343304283989  0.7871812241543256  1.0000
  Fe  Fe24      1.0  0.5684378441536987  0.7994451427105337  0.8298745837674236  1.0000
  S   S46       1.0  0.6334136788669038  0.8143249024718047  0.8131845782510493  1.0000
  S   S47       1.0  0.4709247305154308  0.7629023071113407  0.8635012315126516  1.0000
  S   S48       1.0  0.5898236315519101  0.7715952193445251  0.8728595401696381  1.0000
  Fe  Fe25      1.0  0.45615554902915345  0.411723822549524  0.36532224961984855  1.0000
  S   S49       1.0  0.43227430047705023  0.3836837559974166  0.3985359026233387  1.0000
  S   S50       1.0  0.5253372479817775  0.40648795692133266  0.34706268906432575  1.0000
  Fe  Fe26      1.0  0.37152408097789497  0.4460358331990902  0.36681352950168017  1.0000
  S   S51       1.0  0.3395922226797059  0.42101574414724097  0.3997721356496721  1.0000
  S   S52       1.0  0.3331362833007979  0.4804799639380575  0.3431403321792179  1.0000
  Fe  Fe27      1.0  0.41869545386868984  0.41508885234446663  0.4313864573646475  1.0000
  S   S53       1.0  0.4369395909275595  0.41441070442148903  0.4914066158918848  1.0000
  Fe  Fe28      1.0  0.35553792870496914  0.3917238432486834  0.3642124401541912  1.0000
  S   S54       1.0  0.30268978014700454  0.36234855903958235  0.3385212538261286  1.0000
  S   S55       1.0  0.4496147997595832  0.44261998505303973  0.4013952811245388  1.0000
  S   S56       1.0  0.38046237251983045  0.4172859219420406  0.32811839200296933  1.0000
  Fe  Fe29      1.0  0.41820824517814603  0.665906886120749  0.4103173610975554  1.0000
  S   S57       1.0  0.45716837090694373  0.6420785599174732  0.3794165088499611  1.0000
  S   S58       1.0  0.4514154133647473  0.6901806676658567  0.4569867769384261  1.0000
  Fe  Fe30      1.0  0.3153454560138185  0.649070783210604  0.3695611798582929  1.0000
  S   S59       1.0  0.34534051905105806  0.6232373203419885  0.33543937412890473  1.0000
  S   S60       1.0  0.23476212384954778  0.6533803586218504  0.36954302093119373  1.0000
  Fe  Fe31      1.0  0.4037006728589652  0.6137075767731826  0.3861555050646743  1.0000
  S   S61       1.0  0.4355306045758042  0.5776992047412643  0.409423918734389  1.0000
  Fe  Fe32      1.0  0.39618408572409153  0.6536999151868031  0.3314726666887276  1.0000
  S   S62       1.0  0.40543327348979746  0.6641555568029089  0.27740830132962757  1.0000
  S   S63       1.0  0.3692661697056949  0.6369018138289116  0.42066053706407924  1.0000
  S   S64       1.0  0.3618230811485548  0.6801069771220886  0.3619552565114723  1.0000
  Fe  Fe33      1.0  0.9607214003914496  0.3130062518878383  0.3571680264706376  1.0000
  S   S65       1.0  0.9693964802592536  0.2728045508732547  0.3597307649405441  1.0000
  S   S66       1.0  0.8911598453304276  0.33269141344288716  0.326895671891264  1.0000
  Fe  Fe34      1.0  0.07188144240264438  0.32112178365227645  0.3911389919996238  1.0000
  S   S67       1.0  0.08919306382816122  0.2816013382820211  0.395223277065279  1.0000
  S   S68       1.0  0.13205733018959034  0.34774052107179737  0.4149455585535265  1.0000
  Fe  Fe35      1.0  0.03671120333184752  0.27900878109976546  0.3400669888653184  1.0000
  S   S69       1.0  0.04765238791460113  0.2649535179484066  0.2880325136234146  1.0000
  Fe  Fe36      1.0  0.020554799811613345  0.27945732870874335  0.41488991482840737  1.0000
  S   S70       1.0  0.02407585658310074  0.25643543374260713  0.4637159172710194  1.0000
  S   S71       1.0  0.02534766531247512  0.31897640382101417  0.3346394159564847  1.0000
  S   S72       1.0  0.006117900884268002  0.31932705724625454  0.4137053867555285  1.0000
  Fe  Fe37      1.0  0.13523792781998395  0.2964431611782937  0.7454931054262979  1.0000
  S   S73       1.0  0.13714838725526865  0.27030737522109216  0.7016247794717098  1.0000
  S   S74       1.0  0.20336485080949088  0.30857934025403716  0.7880240103273771  1.0000
  Fe  Fe38      1.0  0.020844291045960528  0.29702322737560455  0.726257788808021  1.0000
  S   S75       1.0  0.014609519832300188  0.27028917873895675  0.6817447256432743  1.0000
  S   S76       1.0  0.9489405867375788  0.30791756962665806  0.7382276598278493  1.0000
  Fe  Fe39      1.0  0.07814728554034844  0.2510832491171319  0.7202287535907637  1.0000
  S   S77       1.0  0.08699773856587956  0.21225010102342137  0.7375500381780081  1.0000
  Fe  Fe40      1.0  0.0736133033753637  0.2922649058714725  0.6677753218582685  1.0000
  S   S78       1.0  0.06510923298802632  0.30955545703757953  0.6136308731011059  1.0000
  S   S79       1.0  0.07954323451331595  0.2760957931284827  0.7657165239821395  1.0000
  S   S80       1.0  0.07641809364942528  0.32024525441700574  0.7105415992677889  1.0000
  Fe  Fe41      1.0  0.8782986900445768  0.11511472424158437  0.8851906540425716  1.0000
  S   S81       1.0  0.9083405875876795  0.1312665927539406  0.9398928894936629  1.0000
  S   S82       1.0  0.8327599984920658  0.08147432947478565  0.8829925321117738  1.0000
  Fe  Fe42      1.0  0.919010904638195  0.15608918312535142  0.8490736640656547  1.0000
  S   S83       1.0  0.9536898970723579  0.17442004611108228  0.9013505329976655  1.0000
  S   S84       1.0  0.9106404820596407  0.17689614000180784  0.7978621706131134  1.0000
  Fe  Fe43      1.0  0.9768746228705574  0.13712167421579272  0.9217539988983254  1.0000
  S   S85       1.0  0.04967526093666863  0.12498640901998348  0.9591654451931466  1.0000
  Fe  Fe44      1.0  0.881651165364735  0.16678636714693063  0.9139719266458919  1.0000
  S   S86       1.0  0.8469880269084207  0.19755884929911877  0.9377780008369883  1.0000
  S   S87       1.0  0.9483759992452536  0.11910269228017595  0.8680969885559813  1.0000
  S   S88       1.0  0.8455755739516286  0.15028559729832752  0.860823856617629  1.0000
  Fe  Fe45      1.0  0.8077311812452374  0.9155001253139633  0.8786105282020729  1.0000
  S   S89       1.0  0.8470282525887131  0.9182930853183359  0.8353753220862088  1.0000
  S   S90       1.0  0.7243896638567613  0.9157745598322439  0.8675308543555493  1.0000
  Fe  Fe46      1.0  0.9038715933093392  0.9157365493406245  0.9387250557515543  1.0000
  S   S91       1.0  0.9513092814100865  0.918472960842129  0.9005498523455889  1.0000
  S   S92       1.0  0.9309169311152726  0.9172862706206557  0.9990276842457889  1.0000
  Fe  Fe47      1.0  0.8942973906611879  0.9455942236863433  0.8717462062659332  1.0000
  S   S93       1.0  0.9195374763424018  0.9800694470996559  0.8517351700999453  1.0000
  Fe  Fe48      1.0  0.900026473773101  0.8909789848992503  0.8679185822127558  1.0000
  S   S94       1.0  0.9230316193713183  0.8564097828034396  0.8457739546066463  1.0000
  S   S95       1.0  0.8508429312159624  0.9449480860253001  0.9124004770306847  1.0000
  S   S96       1.0  0.8567331496901581  0.8861007746294501  0.9086684336295698  1.0000
  Fe  Fe49      1.0  0.9617427596359737  0.7789528532851696  0.3041425752166451  1.0000
  S   S97       1.0  0.9543435602305237  0.8101154447476356  0.33933253422698345  1.0000
  S   S98       1.0  0.9026322037366978  0.7613691850060045  0.2600128141351966  1.0000
  Fe  Fe50      1.0  0.07342579735154908  0.7734534915188819  0.3387604692211459  1.0000
  S   S99       1.0  0.07489682766414206  0.8038761813318627  0.37761541330156584  1.0000
  S   S100      1.0  0.14222907105569654  0.7572186283828755  0.327409397403575  1.0000
  Fe  Fe51      1.0  0.0037172040705106824  0.7881290733437967  0.383856331276725  1.0000
  S   S101      1.0  0.9749684830570354  0.7809621563931233  0.43214040372105794  1.0000
  Fe  Fe52      1.0  0.02571044109376186  0.8231621382429566  0.3299204071865447  1.0000
  S   S102      1.0  0.03787754637411167  0.8615933159532084  0.31528858236633994  1.0000
  S   S103      1.0  0.006773741246310028  0.7559597969563733  0.34899530075635415  1.0000
  S   S104      1.0  0.028273800953517947  0.7937842427513616  0.2909484619276347  1.0000
  Fe  Fe53      1.0  0.9998988430812868  0.7661330029491699  0.6702729926884972  1.0000
  S   S105      1.0  0.9989952751393231  0.8024713197632815  0.6446218606959794  1.0000
  S   S106      1.0  0.9229514831094426  0.7503887957531219  0.6512796447804479  1.0000
  Fe  Fe54      1.0  0.10839664437595364  0.7710725466916906  0.7128012411924394  1.0000
  S   S107      1.0  0.11396772574952897  0.8077043266150137  0.6906833549200057  1.0000
  S   S108      1.0  0.17406732385945559  0.7550085137081914  0.7547405983664858  1.0000
  Fe  Fe55      1.0  0.03940273131686456  0.8150515733717181  0.6994273761694351  1.0000
  S   S109      1.0  0.02573091966817187  0.8524130658356249  0.7185122045508635  1.0000
  Fe  Fe56      1.0  0.07314331065836244  0.7918658782367335  0.6377694670580542  1.0000
  S   S110      1.0  0.10134423616891204  0.803261949649091  0.5909465585634668  1.0000
  S   S111      1.0  0.03607901132897811  0.7795198346870691  0.725980957878455  1.0000
  S   S112      1.0  0.07180109830563287  0.7543785361667441  0.6590093552556052  1.0000
  Fe  Fe57      1.0  0.16759574768814345  0.17410427060745773  0.14540525442485486  1.0000
  S   S113      1.0  0.1431292669908656  0.14031420276823364  0.16677923076364284  1.0000
  S   S114      1.0  0.1283238876086775  0.19228892353869026  0.09347927663096443  1.0000
  Fe  Fe58      1.0  0.25871867486392613  0.18003561070140509  0.20938858801686883  1.0000
  S   S115      1.0  0.242078506718476  0.1464292283036088  0.23594288867010663  1.0000
  S   S116      1.0  0.3188295082493675  0.20548365884143055  0.23871715641386443  1.0000
  Fe  Fe59      1.0  0.22402856202884963  0.12994742691875297  0.1808975755142  1.0000
  S   S117      1.0  0.2524022435665623  0.0949560027250153  0.16313720840139714  1.0000
  Fe  Fe60      1.0  0.16288717036680372  0.15980499011860883  0.21974153885062309  1.0000
  S   S118      1.0  0.11751431398707086  0.1598961635479636  0.2600442589503071  1.0000
  S   S119      1.0  0.24708377619433108  0.1626753683369314  0.15551288348116954  1.0000
  S   S120      1.0  0.18093894703584582  0.19446238622428014  0.1970846133763003  1.0000
  Fe  Fe61      1.0  0.2888527551330093  0.9226989580502589  0.17459764349880805  1.0000
  S   S121      1.0  0.2524378806009265  0.9267561875833369  0.21923718984991963  1.0000
  S   S122      1.0  0.371937058753915  0.9162386174637291  0.1887714437364743  1.0000
  Fe  Fe62      1.0  0.19172293398584092  0.9328692612250266  0.11737439216382421  1.0000
  S   S123      1.0  0.14756808142725714  0.9374479223073409  0.15757653026950139  1.0000
  S   S124      1.0  0.1609895168161378  0.934393908375746  0.05745108851267047  1.0000
  Fe  Fe63      1.0  0.21340864301796625  0.9588166540414765  0.1882721789411425  1.0000
  S   S125      1.0  0.20627036159087545  0.9928557784059723  0.21893724928447192  1.0000
  Fe  Fe64      1.0  0.19077254555502116  0.9051935474803595  0.18456737663770154  1.0000
  S   S126      1.0  0.16262173692301235  0.8706522353954319  0.201706787336494  1.0000
  S   S127      1.0  0.25453738510264967  0.9564067401530579  0.1460210088889225  1.0000
  S   S128      1.0  0.2297537274353679  0.8989304405901655  0.14167926781438303  1.0000
  C   C1        1.0  0.2162664564407111  0.02123552006296947  0.20184826433776468  1.0000
  C   C2        1.0  0.20672381317418712  0.04227082068415711  0.2192356226670498  1.0000
  C   C3        1.0  0.21648060241046663  0.06509109014172926  0.2071613081432132  1.0000
  C   C4        1.0  0.23674370311439288  0.06692179407436481  0.17801143636091749  1.0000
  C   C5        1.0  0.24620251824651992  0.04590677207892055  0.1606068804400374  1.0000
  C   C6        1.0  0.2355161693188114  0.023168690151727622  0.17221879661565617  1.0000
  H   H1        1.0  0.19174178747303164  0.040926780154339815  0.24214675944561687  1.0000
  H   H2        1.0  0.20910356844314923  0.08119727480647092  0.22077312230700372  1.0000
  H   H3        1.0  0.2619064534147879  0.0471941762900905  0.13806122855537256  1.0000
  H   H4        1.0  0.24284609746344274  0.007173229409102699  0.15851551893595167  1.0000
  C   C7        1.0  0.07578812151250786  0.8647757904493981  0.28582635124141126  1.0000
  C   C8        1.0  0.10055426215196282  0.844839439103494  0.2764365469366104  1.0000
  C   C9        1.0  0.12783591440879913  0.8471141355495664  0.251166892230721  1.0000
  C   C10       1.0  0.1320642145828256  0.8695104815802924  0.23588886140234172  1.0000
  C   C11       1.0  0.10903950891321605  0.8897868318052169  0.24619168968875066  1.0000
  C   C12       1.0  0.08060459173273067  0.8873571548481621  0.27095554524352305  1.0000
  H   H5        1.0  0.0990903650489779  0.8276428100211762  0.28883144044317266  1.0000
  H   H6        1.0  0.14596041072240423  0.8314151652798492  0.24359851861276535  1.0000
  H   H7        1.0  0.11233418319293234  0.9071911497628148  0.23469859318096478  1.0000
  H   H8        1.0  0.06200586074547373  0.902922490611978  0.27844741878350615  1.0000
  C   C13       1.0  0.01123968613522952  0.786858208116806  0.4760802199541654  1.0000
  C   C14       1.0  0.05751015078101851  0.7978334933134185  0.48262354032030524  1.0000
  C   C15       1.0  0.08510793388205604  0.8025269672118887  0.5180476250526113  1.0000
  C   C16       1.0  0.0667733228885105  0.7961226535190352  0.5470434803607784  1.0000
  C   C17       1.0  0.020537667488634392  0.7851422967864229  0.5405308407808023  1.0000
  C   C18       1.0  0.9928256756954236  0.7805878995243116  0.5051158344833384  1.0000
  H   H9        1.0  0.07188303908722053  0.8027929801709172  0.46040854266832587  1.0000
  H   H10       1.0  0.12080336734717155  0.8111138318302255  0.5229745090114631  1.0000
  H   H11       1.0  0.006110719067807802  0.7801770745357491  0.5627288726529581  1.0000
  H   H12       1.0  0.9570418501195936  0.7720960125732923  0.5001657341580469  1.0000
  C   C19       1.0  0.9950293502581411  0.9212627744667365  0.015602640949768709  1.0000
  C   C20       1.0  0.027300285166616867  0.914239782915446  0.9953929568870798  1.0000
  C   C21       1.0  0.07835886200486675  0.9182262641155702  0.008537495998846456  1.0000
  C   C22       1.0  0.0973670917311379  0.9287984250499963  0.042233286362512105  1.0000
  C   C23       1.0  0.06513186532720126  0.9356587213103107  0.06261945422321236  1.0000
  C   C24       1.0  0.013968073188823205  0.931972508503024  0.04923902015236448  1.0000
  H   H13       1.0  0.013095415964557322  0.9054292773901087  0.96984373072073  1.0000
  H   H14       1.0  0.10327388500781143  0.9128523100806033  0.9927639516638951  1.0000
  H   H15       1.0  0.07940738816808174  0.9445344110564659  0.08810271920804039  1.0000
  H   H16       1.0  0.9889577746037137  0.9378222052932307  0.06467264610672308  1.0000
  C   C25       1.0  0.9493466615818634  0.8562222293159052  0.8092570948461469  1.0000
  C   C26       1.0  0.9669127640453407  0.87720433006935  0.7972392433175657  1.0000
  C   C27       1.0  0.9896904411713895  0.8759928812446458  0.7689674024465556  1.0000
  C   C28       1.0  0.9944522866568912  0.8538850881326195  0.752409724026241  1.0000
  C   C29       1.0  0.9758940623087564  0.8330766059142182  0.763986843196231  1.0000
  C   C30       1.0  0.9539548953278875  0.8342108387655911  0.792536346945471  1.0000
  H   H17       1.0  0.9635038608762888  0.8942530125312765  0.8100231552887388  1.0000
  H   H18       1.0  0.003824112368514543  0.8921912485676684  0.760071891686546  1.0000
  H   H19       1.0  0.9784952774201185  0.8160355358494883  0.7510815656434594  1.0000
  H   H20       1.0  0.9402112378862731  0.8179517238881632  0.8016059829350332  1.0000
  C   C31       1.0  0.07180726401182547  0.14372684389089294  0.9962839214343673  1.0000
  C   C32       1.0  0.08175420177634574  0.13409643058635556  0.030869197418899708  1.0000
  C   C33       1.0  0.10009093058315699  0.148812414188343  0.06093278358379118  1.0000
  C   C34       1.0  0.10806718308894046  0.17324704346410846  0.0563987809823947  1.0000
  C   C35       1.0  0.09812924944065464  0.18287280342175205  0.021791143685083725  1.0000
  C   C36       1.0  0.08003084351842982  0.16812568421781005  0.9917149029084684  1.0000
  H   H21       1.0  0.07461955486723282  0.11528337487263736  0.03437398069802011  1.0000
  H   H22       1.0  0.10710593297884152  0.1413531662517971  0.08757172391972694  1.0000
  H   H23       1.0  0.10428073941435274  0.20179650698419782  0.018236744984232667  1.0000
  H   H24       1.0  0.07245858695749861  0.17559975166461786  0.9649896409514438  1.0000
  C   C37       1.0  0.8956909608651717  0.00812595554954032  0.861285781083801  1.0000
  C   C38       1.0  0.8580511008186136  0.00965841537009493  0.8787267232451447  1.0000
  C   C39       1.0  0.839089400041789  0.032258671350430056  0.885274254225994  1.0000
  C   C40       1.0  0.858541434708468  0.053496602295288125  0.8753199859903399  1.0000
  C   C41       1.0  0.8969120973076345  0.05197179586093127  0.8585614092554592  1.0000
  C   C42       1.0  0.9150498418342493  0.029339463354171924  0.8512427763049314  1.0000
  H   H25       1.0  0.8430649117024815  0.9935065619615687  0.8867895016169913  1.0000
  H   H26       1.0  0.8094836864134941  0.03336832470338572  0.8983414493092658  1.0000
  H   H27       1.0  0.9117773755824762  0.06821414328400825  0.8504297161748736  1.0000
  H   H28       1.0  0.9441404277746909  0.02831264376236975  0.8376759008455864  1.0000
  C   C43       1.0  0.03941918742489192  0.2030311777361194  0.756363069376346  1.0000
  C   C44       1.0  0.045799939018724256  0.1824394874134033  0.7781332612564942  1.0000
  C   C45       1.0  0.00737805799490765  0.17476314494656212  0.7925346068139321  1.0000
  C   C46       1.0  0.9620241032232747  0.1873064972637118  0.7843058116991514  1.0000
  C   C47       1.0  0.9559947135186954  0.20797488966625802  0.7628123166028719  1.0000
  C   C48       1.0  0.9947954244786952  0.2160420993260324  0.7494032290359983  1.0000
  H   H29       1.0  0.08014328543409016  0.17221662228715517  0.7834525919684701  1.0000
  H   H30       1.0  0.012077770278364985  0.15863370262658047  0.8087239481302061  1.0000
  H   H31       1.0  0.9210161736658253  0.21768809018034757  0.7560925795709309  1.0000
  H   H32       1.0  0.9895302653206751  0.23193047535915043  0.7327033370217431  1.0000
  C   C49       1.0  0.0617860427042464  0.23487889908933543  0.2802797438676438  1.0000
  C   C50       1.0  0.06968585571905246  0.22910058794509158  0.24702530102036763  1.0000
  C   C51       1.0  0.08466734842817462  0.20581708062032933  0.24023888001038055  1.0000
  C   C52       1.0  0.09222748444188472  0.1881505992173004  0.26674044902912025  1.0000
  C   C53       1.0  0.0820366720808329  0.19356422249921354  0.2995156256806488  1.0000
  C   C54       1.0  0.06678825523984565  0.21696975247027145  0.3063413209369424  1.0000
  H   H33       1.0  0.06507599168426759  0.24280691806005075  0.22656949854225436  1.0000
  H   H34       1.0  0.09035558914091535  0.20155139032759245  0.2144204081029967  1.0000
  H   H35       1.0  0.0872539279063753  0.17982375792962096  0.3199716596446683  1.0000
  H   H36       1.0  0.06015746312574968  0.22125335576544725  0.3319487261824461  1.0000
  C   C55       1.0  0.029854018616249034  0.27070099997418584  0.5054511198043413  1.0000
  C   C56       1.0  0.023816425476637985  0.2956122549940559  0.5075606958707228  1.0000
  C   C57       1.0  0.03356917833670358  0.3070575000432616  0.5410151982189065  1.0000
  C   C58       1.0  0.04910891804422254  0.2937195574867677  0.5727579690296066  1.0000
  C   C59       1.0  0.053187762420342066  0.26865339441688346  0.5709394486730289  1.0000
  C   C60       1.0  0.043642669971456716  0.2571743652713844  0.5372685977949344  1.0000
  H   H37       1.0  0.012052309489312801  0.3061503204356935  0.48345576371056037  1.0000
  H   H38       1.0  0.029618800534653617  0.32642211252066955  0.5422606935883693  1.0000
  H   H39       1.0  0.06491928623105214  0.2581887670380086  0.5953334946495575  1.0000
  H   H40       1.0  0.04810150310456929  0.23784141166902498  0.5358721465962868  1.0000
  C   C61       1.0  0.16599917384328522  0.7280982901216493  0.33929591719184665  1.0000
  C   C62       1.0  0.1441517134276504  0.7121910991125031  0.3582750744297139  1.0000
  C   C63       1.0  0.16485630845536897  0.6890244658395539  0.36691750788171884  1.0000
  C   C64       1.0  0.20743464235762538  0.6818273589720448  0.35676544796270676  1.0000
  C   C65       1.0  0.22850714221823512  0.6976523919085037  0.3372940702583306  1.0000
  C   C66       1.0  0.2079630075821127  0.7207045197449682  0.3287005150941407  1.0000
  H   H41       1.0  0.11182531244212716  0.7178023223379818  0.3666480118171456  1.0000
  H   H42       1.0  0.14837442246260796  0.6767951233671837  0.38198442072318  1.0000
  H   H43       1.0  0.26029788171839335  0.6920263120679084  0.3283982734694182  1.0000
  H   H44       1.0  0.22459928206844385  0.7328566348232047  0.31362240635717903  1.0000
  C   C67       1.0  0.2568629902764922  0.35673515381567733  0.3607798862895958  1.0000
  C   C68       1.0  0.2611014125827954  0.36617546844100834  0.39495722462526556  1.0000
  C   C69       1.0  0.2227925160514762  0.3630190479051694  0.41150331129552864  1.0000
  C   C70       1.0  0.1803280114974211  0.3501412262303795  0.39416281527222435  1.0000
  C   C71       1.0  0.17661883202010278  0.3400464823202422  0.3604105791657761  1.0000
  C   C72       1.0  0.21483795703639955  0.3434122351492066  0.3436933338005117  1.0000
  H   H45       1.0  0.2938816737333425  0.3759430024573041  0.4087150420491483  1.0000
  H   H46       1.0  0.22594953093977618  0.37074254950636437  0.4377077626339345  1.0000
  H   H47       1.0  0.1439061533450349  0.33006003708872683  0.3468992425584646  1.0000
  H   H48       1.0  0.2114040554431223  0.33601353280507346  0.31726378346625506  1.0000
  C   C73       1.0  0.3598792991288838  0.5075927050627749  0.3626836321517085  1.0000
  C   C74       1.0  0.3448567371465476  0.5294805686931464  0.3448835075532107  1.0000
  C   C75       1.0  0.36716433388772274  0.5511943359866108  0.35925134985582846  1.0000
  C   C76       1.0  0.40469320246390983  0.5511011464905827  0.39150015464394505  1.0000
  C   C77       1.0  0.41931588398437764  0.5292293789618456  0.40947831452076566  1.0000
  C   C78       1.0  0.3968618286251893  0.5075565393909738  0.3952010762023792  1.0000
  H   H49       1.0  0.3161243668293922  0.5296784262280491  0.3197754605594091  1.0000
  H   H50       1.0  0.35561303969184804  0.5679599957555895  0.3452030567527809  1.0000
  H   H51       1.0  0.44805705866710044  0.529037013053734  0.4345745976453583  1.0000
  H   H52       1.0  0.40804260726475544  0.4908806360107767  0.4095256971233304  1.0000
  C   C79       1.0  0.32731818190282785  0.7903134884181398  0.7771858319602489  1.0000
  C   C80       1.0  0.3200741412994924  0.7706653067297576  0.7976578471436006  1.0000
  C   C81       1.0  0.2732634711103783  0.7595914527418356  0.7900992482762064  1.0000
  C   C82       1.0  0.2337092104388076  0.7678237610401961  0.7617383373502303  1.0000
  C   C83       1.0  0.24165897096518865  0.7869763806197365  0.740720864646289  1.0000
  C   C84       1.0  0.28790559025724144  0.798356671780381  0.7487270879459511  1.0000
  H   H53       1.0  0.35019325126461537  0.7643136424088569  0.8196769062185602  1.0000
  H   H54       1.0  0.2676101659933886  0.7447172285166297  0.8064408259145889  1.0000
  H   H55       1.0  0.21230137061596036  0.7931036110141915  0.7182487500654745  1.0000
  H   H56       1.0  0.29333551878470987  0.8133873671403632  0.7325692234493656  1.0000
  C   C85       1.0  0.6573201689321603  0.8427555587540804  0.8282141762064197  1.0000
  C   C86       1.0  0.7067235395403036  0.8476177057508556  0.829322597427615  1.0000
  C   C87       1.0  0.7273636134203982  0.8700220324938568  0.8413026093020295  1.0000
  C   C88       1.0  0.6983485300857947  0.8878963096009224  0.8515319670325422  1.0000
  C   C89       1.0  0.6486191449579097  0.8832271381748684  0.8499016446408185  1.0000
  C   C90       1.0  0.628281731118861  0.8605324380145315  0.8387470560008398  1.0000
  H   H57       1.0  0.7293512866997492  0.8339535204712549  0.8211560716783689  1.0000
  H   H58       1.0  0.7657066216304627  0.8734696965544864  0.8423600114718409  1.0000
  H   H59       1.0  0.6259859994646131  0.8970445572249509  0.8577054514246616  1.0000
  H   H60       1.0  0.5899615684283106  0.8569525511767987  0.8375971801715981  1.0000
  C   C91       1.0  0.7542128337776495  0.8021054789026002  0.22382523686065467  1.0000
  C   C92       1.0  0.7596817306850011  0.7790581698871294  0.21056867572269145  1.0000
  C   C93       1.0  0.8058464420210039  0.7670328608661299  0.22078718714393814  1.0000
  C   C94       1.0  0.8467485013695284  0.7778945508158883  0.24454765025761815  1.0000
  C   C95       1.0  0.8417128864283242  0.8012514275879808  0.25685982330383483  1.0000
  C   C96       1.0  0.795610489013523  0.8133192812953748  0.24647664470720348  1.0000
  H   H61       1.0  0.7285491042839879  0.7705485992364132  0.19217628702999506  1.0000
  H   H62       1.0  0.8095785971142554  0.7490978984936443  0.2107544669001211  1.0000
  H   H63       1.0  0.8731631431089902  0.8100009076952535  0.27461474832173144  1.0000
  H   H64       1.0  0.7918643268216257  0.8312593255779404  0.2565212381695185  1.0000
  C   C97       1.0  0.4200813678334616  0.8388396056710331  0.1718569314856322  1.0000
  C   C98       1.0  0.4557985650169126  0.8567374940719176  0.1825250476041556  1.0000
  C   C99       1.0  0.4409306837062492  0.880493535050523  0.18792031038970144  1.0000
  C   C100      1.0  0.39048757056494054  0.8863196607213103  0.1828808306770724  1.0000
  C   C101      1.0  0.35525029120358464  0.8681939376311743  0.17297918455747588  1.0000
  C   C102      1.0  0.3699103033186958  0.8446375186065711  0.167201765064601  1.0000
  H   H65       1.0  0.49465109429645404  0.8524056153742123  0.1862071511762499  1.0000
  H   H66       1.0  0.4684732702003098  0.894406851722281  0.19572831744208083  1.0000
  H   H67       1.0  0.31657867575104753  0.8722627415542702  0.16981196138007532  1.0000
  H   H68       1.0  0.34206616798146805  0.8308872093260214  0.1590786553570435  1.0000
  C   C103      1.0  0.5341886799524673  0.712915539486347  0.2730079520275391  1.0000
  C   C104      1.0  0.5283203795281275  0.7056636769820536  0.30625746350322985  1.0000
  C   C105      1.0  0.4891087527608457  0.690540906534951  0.3079732086439522  1.0000
  C   C106      1.0  0.45591976565931175  0.6824257867945225  0.27637962743870054  1.0000
  C   C107      1.0  0.462092811861261  0.6895281881902874  0.24315355108428024  1.0000
  C   C108      1.0  0.5010702079223674  0.7047721334989446  0.2414552115430827  1.0000
  H   H69       1.0  0.5538944615301586  0.7118880782822695  0.330772369613709  1.0000
  H   H70       1.0  0.48455949384060426  0.685170788802649  0.3336987544173112  1.0000
  H   H71       1.0  0.4366878052477628  0.6831468738277431  0.21865886421563505  1.0000
  H   H72       1.0  0.5058656238619592  0.7099283197268254  0.21572732421698498  1.0000
  C   C109      1.0  0.5613211536191454  0.7559666464303436  0.050228212668777486  1.0000
  C   C110      1.0  0.5430612499131672  0.7459932815151921  0.015886506364097164  1.0000
  C   C111      1.0  0.540237055920411  0.7598932178833847  0.9850535721036338  1.0000
  C   C112      1.0  0.5554924944337046  0.7838669233473795  0.9885600176866789  1.0000
  C   C113      1.0  0.5743752143155082  0.7936979596130112  0.022863532543443865  1.0000
  C   C114      1.0  0.5776408956658736  0.779754245498573  0.053541721777702715  1.0000
  H   H73       1.0  0.5305542954378755  0.7275510254358151  0.013109843620291217  1.0000
  H   H74       1.0  0.5256197916443471  0.7521685083416777  0.9586631690228058  1.0000
  H   H75       1.0  0.5864160255402577  0.8122004990664912  0.02577690726655346  1.0000
  H   H76       1.0  0.5932337642720921  0.7873779810142049  0.07973851784659156  1.0000
  C   C115      1.0  0.6110328375810519  0.6699713543432636  0.515954680063541  1.0000
  C   C116      1.0  0.5802932768388396  0.6815438963741549  0.5340983667261726  1.0000
  C   C117      1.0  0.5317092306651153  0.6882909563015048  0.5155704963426565  1.0000
  C   C118      1.0  0.5134356307633829  0.6831062865099744  0.47900756651115095  1.0000
  C   C119      1.0  0.5443867310238938  0.6717854168796248  0.46077191697867886  1.0000
  C   C120      1.0  0.59328384763654  0.665401364473573  0.4791688455986482  1.0000
  H   H77       1.0  0.5939598257234896  0.6854450166212601  0.5624032786529416  1.0000
  H   H78       1.0  0.5080293469164967  0.6971844011768595  0.529761457293471  1.0000
  H   H79       1.0  0.5309018923107124  0.6682087565740387  0.43240910735995225  1.0000
  H   H80       1.0  0.6169976767414905  0.6565207099805757  0.4650019592438698  1.0000
  C   C121      1.0  0.5606726467985222  0.7070777331497674  0.7850622982835701  1.0000
  C   C122      1.0  0.5301330325469623  0.7192934365890356  0.7557320824957474  1.0000
  C   C123      1.0  0.5377320528222747  0.7166267742590638  0.7216243529054774  1.0000
  C   C124      1.0  0.5757686560071439  0.7016315826008013  0.7165128450995696  1.0000
  C   C125      1.0  0.6062224189378294  0.6891316430317729  0.7457197409376182  1.0000
  C   C126      1.0  0.5983426123141065  0.6916829161297178  0.7799319077355298  1.0000
  H   H81       1.0  0.49990310279462724  0.7304949625648253  0.7591671823181263  1.0000
  H   H82       1.0  0.5139151098868241  0.7262658011783066  0.6991208137685121  1.0000
  H   H83       1.0  0.6362866598686647  0.6778973505307241  0.7421275189840287  1.0000
  H   H84       1.0  0.6221571491245637  0.6822479570092623  0.8026374632248885  1.0000
  C   C127      1.0  0.8543179337823489  0.6872865413736068  0.6945712010922724  1.0000
  C   C128      1.0  0.9060317106738722  0.6878852532393467  0.7002354535198363  1.0000
  C   C129      1.0  0.9286886855899693  0.7081473535110636  0.689887894379984  1.0000
  C   C130      1.0  0.899516729590526  0.7278185352484996  0.6737649635555135  1.0000
  C   C131      1.0  0.8482614034007756  0.727644995009788  0.6698886345976635  1.0000
  C   C132      1.0  0.825853598862403  0.7075880704680517  0.6805596998746603  1.0000
  H   H85       1.0  0.9284132681360142  0.6723106797390788  0.7113780786677519  1.0000
  H   H86       1.0  0.9682032836667626  0.7080007385689222  0.6925941037488894  1.0000
  H   H87       1.0  0.8255698341005131  0.7428458097356471  0.6575353184394027  1.0000
  H   H88       1.0  0.7864452754161915  0.7077695670339564  0.677472922644595  1.0000
  C   C133      1.0  0.598733517612083  0.4325093765183666  0.5435121755163475  1.0000
  C   C134      1.0  0.5640418244755282  0.43361853934198186  0.5635575119431744  1.0000
  C   C135      1.0  0.51394152032151  0.42878691478619213  0.5471206769143822  1.0000
  C   C136      1.0  0.4985883967133393  0.42269429877792913  0.5107313815819893  1.0000
  C   C137      1.0  0.5330488962026735  0.42223222185541315  0.49046308630921737  1.0000
  C   C138      1.0  0.5830236580803946  0.4272813827072377  0.5068111176606198  1.0000
  H   H89       1.0  0.5757952467808293  0.4380743666242094  0.591704383436316  1.0000
  H   H90       1.0  0.48713956447529116  0.42952821802655866  0.5626822220607127  1.0000
  H   H91       1.0  0.5215615030439522  0.41733878108170924  0.4624233680958204  1.0000
  H   H92       1.0  0.6098288414140607  0.4263759120332332  0.49124154423024136  1.0000
  C   C139      1.0  0.8867462164595118  0.38335339178294964  0.7054458554374762  1.0000
  C   C140      1.0  0.85651833948103  0.3656865703683342  0.7137823715879571  1.0000
  C   C141      1.0  0.8763252813135013  0.34271257613084816  0.7246913231678632  1.0000
  C   C142      1.0  0.9261072946126038  0.3372529344045042  0.7267563087359705  1.0000
  C   C143      1.0  0.9562377375813358  0.3549525990230705  0.7184204689317112  1.0000
  C   C144      1.0  0.9366488984227039  0.37800242760783376  0.7079984792958142  1.0000
  H   H93       1.0  0.8180066870185536  0.3697450215311913  0.7120106592064391  1.0000
  H   H94       1.0  0.8528843404903066  0.32905392488273  0.7311363889447436  1.0000
  H   H95       1.0  0.9947424902734279  0.3509809646795938  0.7203524383450091  1.0000
  H   H96       1.0  0.9602035101026787  0.3916973799845339  0.7017824757717582  1.0000
  C   C145      1.0  0.6956199562188321  0.5165559295441626  0.7061255538928659  1.0000
  C   C146      1.0  0.7139478366431898  0.5392998668659958  0.7186944063219878  1.0000
  C   C147      1.0  0.6919250406419146  0.5603815674340131  0.7010037563275028  1.0000
  C   C148      1.0  0.6505823424903607  0.5587730349085273  0.6712678157484409  1.0000
  C   C149      1.0  0.6321753687590549  0.5360482757096489  0.6588393592783076  1.0000
  C   C150      1.0  0.655095039785129  0.5149805091011721  0.6758471243712412  1.0000
  H   H97       1.0  0.7452714306367401  0.5406222021650743  0.7421227107558989  1.0000
  H   H98       1.0  0.7062602936734371  0.577834015654821  0.7108394368634449  1.0000
  H   H99       1.0  0.6001310539733284  0.5346855337428589  0.6359163765623552  1.0000
  H   H100      1.0  0.6406659733332662  0.4975383411883049  0.6660231737716764  1.0000
  C   C151      1.0  0.35967488527016267  0.2875225479687663  0.7815333164541114  1.0000
  C   C152      1.0  0.35215841098023787  0.296714456189888  0.8133475845436071  1.0000
  C   C153      1.0  0.3040625969359158  0.30327850116894745  0.8149022939126739  1.0000
  C   C154      1.0  0.2631823041869809  0.30039211352213  0.7848814919085837  1.0000
  C   C155      1.0  0.27072131389011805  0.2910010013469896  0.7532030283843133  1.0000
  C   C156      1.0  0.3188544811947225  0.2847143195344854  0.7515062778104306  1.0000
  H   H101      1.0  0.3833878560248506  0.2989611171647657  0.8366544261882233  1.0000
  H   H102      1.0  0.29849467658471845  0.31058989091126615  0.8394862703659319  1.0000
  H   H103      1.0  0.2396229213246927  0.28891038995788515  0.7298313337218173  1.0000
  H   H104      1.0  0.3244751059311689  0.2776813855747222  0.7267838022235596  1.0000
  C   C157      1.0  0.6826958930931035  0.21388127868932877  0.8851754007065962  1.0000
  C   C158      1.0  0.7132508787092532  0.23162615596457864  0.9051404328133879  1.0000
  C   C159      1.0  0.7635623898179316  0.22637926406844222  0.9216446762631482  1.0000
  C   C160      1.0  0.7837318775384001  0.20361704396500735  0.9174915585192497  1.0000
  C   C161      1.0  0.7532348170249078  0.18601133994840643  0.8973235622923786  1.0000
  C   C162      1.0  0.7028518554142751  0.19109670502590392  0.8814335569756407  1.0000
  H   H105      1.0  0.6980844286035057  0.24929251746018694  0.9080603832768558  1.0000
  H   H106      1.0  0.7870284333877947  0.2400850181848504  0.9372492323446764  1.0000
  H   H107      1.0  0.7681452179578327  0.16829101415134165  0.8944337865352332  1.0000
  H   H108      1.0  0.6793358441884036  0.17724745108849813  0.8662020975831815  1.0000
  C   C163      1.0  0.6329614021674588  0.3638954707316529  0.7413394664987571  1.0000
  C   C164      1.0  0.6513752113465948  0.37912703004022724  0.7706204222200091  1.0000
  C   C165      1.0  0.6479760446658631  0.3724636477020231  0.8049002570387946  1.0000
  C   C166      1.0  0.6264775129730552  0.3505319146165569  0.810057851016683  1.0000
  C   C167      1.0  0.6086654947561135  0.3352647656627324  0.7807668847477687  1.0000
  C   C168      1.0  0.611654016811065  0.3419743110949004  0.7465327673814598  1.0000
  H   H109      1.0  0.6677308264492071  0.3961196107126047  0.7668265524365182  1.0000
  H   H110      1.0  0.6618121013583873  0.38439304925598183  0.827447724626581  1.0000
  H   H111      1.0  0.5925303438992733  0.31829276605147855  0.7843853575074269  1.0000
  H   H112      1.0  0.5976952289037892  0.3300430355464751  0.7240241640042234  1.0000
  C   C169      1.0  0.7430858581126861  0.2931048062903482  0.2982737293118316  1.0000
  C   C170      1.0  0.75020725547462  0.3129989351323199  0.2783065869421986  1.0000
  C   C171      1.0  0.7954877363091104  0.3252728173585027  0.28781915734165514  1.0000
  C   C172      1.0  0.8342411430458286  0.3174861864569271  0.3169236796707986  1.0000
  C   C173      1.0  0.8272638178251098  0.29758351387565696  0.3369285081915603  1.0000
  C   C174      1.0  0.7816372299119688  0.28553247910936025  0.32774469618661795  1.0000
  H   H113      1.0  0.7208080235703486  0.31901946258064645  0.25566312185732676  1.0000
  H   H114      1.0  0.8006280610984662  0.34074603168728007  0.2723860945379936  1.0000
  H   H115      1.0  0.8568050360845392  0.2915989111484003  0.35962465264576987  1.0000
  H   H116      1.0  0.7762583284744113  0.270202896620114  0.34337765340934623  1.0000
  C   C175      1.0  0.4391397955224099  0.22665615714023518  0.18491843982254325  1.0000
  C   C176      1.0  0.40276024162431  0.2100492778156176  0.1683439610305989  1.0000
  C   C177      1.0  0.3654954070798312  0.2035763357770892  0.18449165375289261  1.0000
  C   C178      1.0  0.3646587414965782  0.2135246229945291  0.21750852194406764  1.0000
  C   C179      1.0  0.40108535331336836  0.2301260256951546  0.23419297741667125  1.0000
  C   C180      1.0  0.43817210281014357  0.23677504892405746  0.21786921668914605  1.0000
  H   H117      1.0  0.40349319906646147  0.2021277831961631  0.14293132862050725  1.0000
  H   H118      1.0  0.3378011995001426  0.1907288344880131  0.17151220133191603  1.0000
  H   H119      1.0  0.4009727734640619  0.23755986989580474  0.25998027761313147  1.0000
  H   H120      1.0  0.46663568387080184  0.24923624695990135  0.23105088547168082  1.0000
  C   C181      1.0  0.5026986797419868  0.3673319643236986  0.24007476552069035  1.0000
  C   C182      1.0  0.5469300167257247  0.3641798149279963  0.26708490243590577  1.0000
  C   C183      1.0  0.5541823847289012  0.3767249084174728  0.2996382634784747  1.0000
  C   C184      1.0  0.5167682649327827  0.39191946472396183  0.30554342742527063  1.0000
  C   C185      1.0  0.4728845357402959  0.3952715642046517  0.2782962988120524  1.0000
  C   C186      1.0  0.4661928465151626  0.38326944953706993  0.24544842723696103  1.0000
  H   H121      1.0  0.5754067772359961  0.35196790422611784  0.2630557936130456  1.0000
  H   H122      1.0  0.5883855644721658  0.3742128329387653  0.3205756446607498  1.0000
  H   H123      1.0  0.44438853928101196  0.407374538054417  0.2822928800078916  1.0000
  H   H124      1.0  0.43213234428341313  0.3859131056340937  0.22445768275438688  1.0000
  C   C187      1.0  0.6014063684813915  0.2971631754366394  0.06766370962853306  1.0000
  C   C188      1.0  0.5572400870749047  0.28464986940146647  0.06361971732038126  1.0000
  C   C189      1.0  0.5249750737986745  0.28124515120735666  0.029387962763333553  1.0000
  C   C190      1.0  0.5373464918200739  0.2897139098884903  0.9989378125936835  1.0000
  C   C191      1.0  0.5823055809438219  0.3015381141010327  0.0027778503019857403  1.0000
  C   C192      1.0  0.6142500740823923  0.3053116534917891  0.03715940249358512  1.0000
  H   H125      1.0  0.5475972459348416  0.2777675541006231  0.0868817792797987  1.0000
  H   H126      1.0  0.4903490390690102  0.2719456722490453  0.02652352414992154  1.0000
  H   H127      1.0  0.5919723986456191  0.308209147570165  0.9793615806877972  1.0000
  H   H128      1.0  0.6485077237340693  0.3149487219165295  0.04016376730764246  1.0000
  N   N1        1.0  0.6834318808397284  0.8355711470995902  0.9480027616906237  1.0000
  C   C193      1.0  0.6929741766065954  0.8593203767435108  0.9343337759322263  1.0000
  C   C194      1.0  0.6525153984683913  0.8212002353341659  0.9183158016677209  1.0000
  C   C195      1.0  0.6570365779096656  0.8388189476505381  0.9760451029331173  1.0000
  C   C196      1.0  0.7310884930901014  0.8228081861764349  0.9632314880960743  1.0000
  H   H129      1.0  0.7161955358170535  0.8707464646310554  0.9559320004233368  1.0000
  H   H130      1.0  0.6577319047258318  0.8693520314035167  0.922391145507033  1.0000
  H   H131      1.0  0.7128544442048207  0.8574168844429643  0.9131198640074014  1.0000
  H   H132      1.0  0.6440632166936278  0.8033402066468333  0.9280154885001286  1.0000
  H   H133      1.0  0.6162721178938446  0.8302954082072088  0.9059308809394785  1.0000
  H   H134      1.0  0.6711721987671773  0.818040293243777  0.8966550325816084  1.0000
  H   H135      1.0  0.6499750421572579  0.8211699683642629  0.9872356366318439  1.0000
  H   H136      1.0  0.6200709186600549  0.8476258452959565  0.96503249254001  1.0000
  H   H137      1.0  0.678579374866277  0.8500092975882525  0.9986498282856412  1.0000
  H   H138      1.0  0.7518082058177932  0.8200766822843419  0.942636110501953  1.0000
  H   H139      1.0  0.7250953080085328  0.8047237554654397  0.9735766537908722  1.0000
  H   H140      1.0  0.7553670056060992  0.833102926518709  0.9858125232640255  1.0000
  N   N2        1.0  0.03313875942028677  0.7191208649497071  0.24699398903479433  1.0000
  C   C197      1.0  0.024169131329317084  0.7182921073438324  0.2828151678052442  1.0000
  C   C198      1.0  0.08068845199959918  0.7067558083534179  0.24827215527250346  1.0000
  C   C199      1.0  0.03558480383193574  0.7444848428839519  0.23628720016680163  1.0000
  C   C200      1.0  0.9919947491520321  0.7070955772150496  0.220820566135894  1.0000
  H   H141      1.0  0.9882189557187746  0.7271940363904361  0.2827013702391787  1.0000
  H   H142      1.0  0.05396010011048902  0.7276969806321768  0.3030192993463452  1.0000
  H   H143      1.0  0.02310866776313225  0.6994834545191452  0.2922933130064246  1.0000
  H   H144      1.0  0.08072570670864399  0.6877132519674997  0.25713467843485543  1.0000
  H   H145      1.0  0.08857419595504723  0.7067995026238911  0.2216278830269865  1.0000
  H   H146      1.0  0.11230307678119433  0.7157732893183918  0.2675589056710803  1.0000
  H   H147      1.0  0.04165643545163311  0.7459129511317683  0.2091762847759631  1.0000
  H   H148      1.0  0.06665412596530551  0.7540189457682346  0.25534246987443604  1.0000
  H   H149      1.0  0.0005791316262915291  0.7544848295789284  0.23580533131859932  1.0000
  H   H150      1.0  0.9557544038326484  0.716215906921804  0.21950647449486987  1.0000
  H   H151      1.0  0.9888275899806016  0.6879621840483997  0.22824376155108533  1.0000
  H   H152      1.0  0.9973258916321026  0.7074143049246268  0.19338524005704344  1.0000
  N   N3        1.0  0.027893188212091635  0.8770396024874666  0.12629270372365697  1.0000
  C   C201      1.0  0.0676257668308784  0.873147470927664  0.10818586134730614  1.0000
  C   C202      1.0  0.027697744116735423  0.8567332454945721  0.15083102077224908  1.0000
  C   C203      1.0  0.9793056026727006  0.878581853915506  0.09918211388156228  1.0000
  C   C204      1.0  0.036976892183612  0.8996973873068123  0.14705861218918553  1.0000
  H   H153      1.0  0.062416751031291184  0.8560966052944475  0.09255087320717065  1.0000
  H   H154      1.0  0.10488279335448336  0.8721795046930209  0.12787786414866917  1.0000
  H   H155      1.0  0.06870540083466747  0.8880626221869163  0.08932878913983078  1.0000
  H   H156      1.0  0.9993299964666951  0.8594559989813784  0.16590813807734292  1.0000
  H   H157      1.0  0.020031914482545377  0.8393712164435717  0.13610657121950492  1.0000
  H   H158      1.0  0.0641654139315504  0.8546816843070963  0.17111642714843545  1.0000
  H   H159      1.0  0.9485329872377269  0.881640825773858  0.1119257091864908  1.0000
  H   H160      1.0  0.9713209223105419  0.8618038265164444  0.0829530875277876  1.0000
  H   H161      1.0  0.9780365457138663  0.8936370298945892  0.08008977565130997  1.0000
  H   H162      1.0  0.07342412998257952  0.8990527491098871  0.16767022549083882  1.0000
  H   H163      1.0  0.008112936509748092  0.9031694212927807  0.1614551453918918  1.0000
  H   H164      1.0  0.037439831212398245  0.9154307615488559  0.12946531459943744  1.0000
  N   N4        1.0  0.01346921861254513  0.9877876773833478  0.9570714765752074  1.0000
  C   C205      1.0  0.04480259304264966  0.9886042646440751  0.9944629038852101  1.0000
  C   C206      1.0  0.9627332668452887  0.9805250744141008  0.9567783080584376  1.0000
  C   C207      1.0  0.03462277578753148  0.9701158211066544  0.9364451449487691  1.0000
  C   C208      1.0  0.011640393819176253  0.011842678274099237  0.9405355095540474  1.0000
  H   H165      1.0  0.03027623615442132  0.0019359867601542733  0.010749203583160893  1.0000
  H   H166      1.0  0.08374473311603414  0.9934397018477442  0.9958135121200663  1.0000
  H   H167      1.0  0.04620997117125869  0.9708058428574592  0.007726063990268095  1.0000
  H   H168      1.0  0.9455528640788724  0.9933265740547176  0.9722255650928211  1.0000
  H   H169      1.0  0.9381116282731636  0.9798588016641646  0.9290026735526398  1.0000
  H   H170      1.0  0.9625910161952743  0.9623235952854577  0.9686792345527552  1.0000
  H   H171      1.0  0.011717238422170428  0.9689746926598292  0.9080843652453496  1.0000
  H   H172      1.0  0.03645708573489692  0.951756078491522  0.948123280851073  1.0000
  H   H173      1.0  0.07292416304255367  0.9749706372458175  0.9360850110179605  1.0000
  H   H174      1.0  0.9896873614247612  0.011553796529701454  0.9119272350642597  1.0000
  H   H175      1.0  0.049406703416241315  0.018224963852969456  0.9412262405143633  1.0000
  H   H176      1.0  0.9940159748937258  0.025510417902303795  0.9544392232824823  1.0000
  N   N5        1.0  0.5471719948008905  0.620010499823032  0.7201788924547118  1.0000
  C   C209      1.0  0.5997457211163708  0.6161533173921109  0.7400559376497704  1.0000
  C   C210      1.0  0.5235035786888659  0.5964236130236035  0.7100973365342823  1.0000
  C   C211      1.0  0.5443719016397436  0.6340841486538549  0.6873925551483324  1.0000
  C   C212      1.0  0.5211873388911733  0.6333438427108224  0.743022909352214  1.0000
  H   H177      1.0  0.6187225453345255  0.6335513906719292  0.7484386610884493  1.0000
  H   H178      1.0  0.6205315480138818  0.6063910725099957  0.7233267964015546  1.0000
  H   H179      1.0  0.6033356851174495  0.6052939253507997  0.7647145855765684  1.0000
  H   H180      1.0  0.5427762209247552  0.5859013533766516  0.6930999362169554  1.0000
  H   H181      1.0  0.5246997594098433  0.5853191512039789  0.7341691718314265  1.0000
  H   H182      1.0  0.48396472129444323  0.5985924063544035  0.6945993157847232  1.0000
  H   H183      1.0  0.5634439841297672  0.651620874691613  0.693802397034226  1.0000
  H   H184      1.0  0.5053105478787351  0.6380870692965519  0.6722532347035467  1.0000
  H   H185      1.0  0.5622584890881733  0.6242264475460204  0.6690683453513085  1.0000
  H   H186      1.0  0.4812783880088765  0.6363638850114842  0.729005141852921  1.0000
  H   H187      1.0  0.5376309106048688  0.6514191060688719  0.7504979992240828  1.0000
  H   H188      1.0  0.5232653264027258  0.6235297970395642  0.7683842204632754  1.0000
  N   N6        1.0  0.4081308909054171  0.764944326412597  0.24199570832824197  1.0000
  C   C213      1.0  0.4012002936336406  0.7482061846438277  0.26978903144609573  1.0000
  C   C214      1.0  0.398307892219568  0.7522137041817906  0.20723768328763142  1.0000
  C   C215      1.0  0.45968998536348465  0.7737179777017593  0.25217528800971495  1.0000
  C   C216      1.0  0.3734556604346329  0.7856504510324858  0.23871961125269334  1.0000
  H   H189      1.0  0.4076569804991173  0.7572321330204074  0.2963153855883471  1.0000
  H   H190      1.0  0.42756942386470004  0.7326656546043162  0.2732966112783456  1.0000
  H   H191      1.0  0.3630854098397227  0.7406984456885085  0.26267424535191153  1.0000
  H   H192      1.0  0.35983581625838873  0.7452011524532997  0.19882048615410178  1.0000
  H   H193      1.0  0.40317239052293785  0.7643047587637092  0.18563337063458132  1.0000
  H   H194      1.0  0.4240678308036514  0.7366174464325079  0.20862236336615445  1.0000
  H   H195      1.0  0.486861340458848  0.75870037749679  0.2537784874285108  1.0000
  H   H196      1.0  0.4689664053242453  0.7828342287399843  0.2787324782637399  1.0000
  H   H197      1.0  0.46587346105509525  0.7868615954040791  0.23228463116292236  1.0000
  H   H198      1.0  0.3778314998340034  0.7985577421521945  0.21782086823520472  1.0000
  H   H199      1.0  0.3800577139802757  0.7958355796303243  0.2643497588332298  1.0000
  H   H200      1.0  0.3341338282821024  0.7797538372684356  0.2311248162116204  1.0000
  N   N7        1.0  0.8716116179065008  0.46712977533094063  0.7705413787900199  1.0000
  C   C217      1.0  0.9143772407655865  0.48325563988176246  0.7832229476419655  1.0000
  C   C218      1.0  0.8346530730218621  0.47206357181227965  0.790770911828751  1.0000
  C   C219      1.0  0.8885658553392896  0.44174763635940845  0.7758901770764904  1.0000
  C   C220      1.0  0.8485823952472457  0.47145142386012656  0.7320315036042045  1.0000
  H   H201      1.0  0.9427115171786546  0.48001068923971774  0.7682560858265719  1.0000
  H   H202      1.0  0.932738750136633  0.4804928960909418  0.8122281177446599  1.0000
  H   H203      1.0  0.9026133827103678  0.5025196069646394  0.7793737169208007  1.0000
  H   H204      1.0  0.8017237583091383  0.4602551342407443  0.7816111578011827  1.0000
  H   H205      1.0  0.850495901373468  0.4690917814178769  0.820013462587609  1.0000
  H   H206      1.0  0.8203528718771639  0.4909554222731152  0.7867376454365882  1.0000
  H   H207      1.0  0.9061150455441654  0.43767639572995887  0.8046257714915753  1.0000
  H   H208      1.0  0.9160007634521652  0.4373135455139727  0.7605645055962045  1.0000
  H   H209      1.0  0.8571174376520921  0.429123677777343  0.7662040881453399  1.0000
  H   H210      1.0  0.8161933251774873  0.45964616328409197  0.722048762674893  1.0000
  H   H211      1.0  0.8747772616887303  0.4675014804320548  0.7155497803804141  1.0000
  H   H212      1.0  0.8347185125024275  0.4903387394733551  0.7267134778866087  1.0000
  N   N8        1.0  0.4328183467687041  0.8032125668656231  0.05453855799282012  1.0000
  C   C221      1.0  0.4452684089220924  0.7802969512256951  0.07436781127573218  1.0000
  C   C222      1.0  0.47038089499880165  0.8214202476908727  0.07065338061640147  1.0000
  C   C223      1.0  0.38346479647486015  0.8118111987422777  0.056615453050639634  1.0000
  C   C224      1.0  0.43229726590582646  0.799295760748799  0.016647748738150003  1.0000
  H   H213      1.0  0.4187416108865425  0.7658550992134464  0.06234881275726095  1.0000
  H   H214      1.0  0.44500936620625237  0.7823441958681101  0.10285724151787327  1.0000
  H   H215      1.0  0.4828892434070413  0.7737277535014278  0.07437260176020095  1.0000
  H   H216      1.0  0.5080722410581021  0.8155933850862314  0.06936426599822862  1.0000
  H   H217      1.0  0.46198748622341856  0.8390064616739683  0.05654163934911198  1.0000
  H   H218      1.0  0.4720349195738877  0.8246380822476395  0.09938527248761335  1.0000
  H   H219      1.0  0.37275187927427267  0.8290397161221515  0.04181977115540764  1.0000
  H   H220      1.0  0.38305132481289456  0.8151162408767247  0.08497009686191405  1.0000
  H   H221      1.0  0.35423151900430166  0.7984089244887489  0.04512374895383085  1.0000
  H   H222      1.0  0.4241936961500533  0.8162717925227404  0.0008763342892161852  1.0000
  H   H223      1.0  0.40404103061570534  0.785842346169459  0.003465848168807461  1.0000
  H   H224      1.0  0.46881436052237274  0.7923392301571522  0.014367023726477468  1.0000
  N   N9        1.0  0.23566075497246525  0.11675403817388297  0.06045753174978907  1.0000
  C   C225      1.0  0.28365308794887706  0.11697936090131458  0.08829740859133639  1.0000
  C   C226      1.0  0.24134918438382957  0.10325532286780117  0.02881604881868971  1.0000
  C   C227      1.0  0.21959810131348176  0.1417571519824503  0.04991973629251034  1.0000
  C   C228      1.0  0.19797414706616262  0.1049549247041371  0.07476580542595146  1.0000
  H   H225      1.0  0.2806589283217213  0.127069814518859  0.11248929120831885  1.0000
  H   H226      1.0  0.3132241489988429  0.12556544656332183  0.07851957109865415  1.0000
  H   H227      1.0  0.2963625082462457  0.09842803413041909  0.09753377394143037  1.0000
  H   H228      1.0  0.20575244189399858  0.10285466063103707  0.0072245724220336704  1.0000
  H   H229      1.0  0.26969000153568695  0.111560891577507  0.017387196145378425  1.0000
  H   H230      1.0  0.2530365000253187  0.08425936611118957  0.03588888567369941  1.0000
  H   H231      1.0  0.2476690124111045  0.15144044624266897  0.039842506233042085  1.0000
  H   H232      1.0  0.21358670258614104  0.15229556625524107  0.07298226657463358  1.0000
  H   H233      1.0  0.18404028837312153  0.1422282659781088  0.02836387451690303  1.0000
  H   H234      1.0  0.1622111160483795  0.1030589759675857  0.05388532465537477  1.0000
  H   H235      1.0  0.1905660307975436  0.11540403253236942  0.09742780338372015  1.0000
  H   H236      1.0  0.2102779411157329  0.08659769232993937  0.0852094478148071  1.0000
  N   N10       1.0  0.2358118668668042  0.2237024081513299  0.3069452603069776  1.0000
  C   C229      1.0  0.23555732058008738  0.1973377792678727  0.3015443589237167  1.0000
  C   C230      1.0  0.20526449361855556  0.2299595237434902  0.33149087012474043  1.0000
  C   C231      1.0  0.2149839581772556  0.23581008342703402  0.272120426670349  1.0000
  C   C232      1.0  0.2873171575626905  0.23167204620454032  0.3225720054351882  1.0000
  H   H237      1.0  0.2586405366960858  0.19189569074712917  0.2834686888799001  1.0000
  H   H238      1.0  0.19746054446719405  0.19075494763734827  0.28915142674744704  1.0000
  H   H239      1.0  0.25010497991259084  0.1874870966857314  0.3272401084099984  1.0000
  H   H240      1.0  0.2038749856685199  0.24974989561905428  0.3358433469684421  1.0000
  H   H241      1.0  0.16638608542796351  0.22401435345173631  0.32035922390196264  1.0000
  H   H242      1.0  0.21963788369248846  0.22111013574727909  0.3580454058225162  1.0000
  H   H243      1.0  0.21382672386783927  0.2557078620754392  0.27516241834513205  1.0000
  H   H244      1.0  0.17641382327934266  0.22989403283016138  0.2593854619549088  1.0000
  H   H245      1.0  0.2372635362465475  0.231637985345975  0.2529353166826209  1.0000
  H   H246      1.0  0.30425873513899904  0.22268665302112758  0.34870511064435206  1.0000
  H   H247      1.0  0.2889030966514911  0.2514737234401369  0.32701533050149595  1.0000
  H   H248      1.0  0.31116982400846316  0.22718117961976936  0.30452172941845035  1.0000
  N   N11       1.0  0.9180713610406956  0.3275984644956684  0.610790384612264  1.0000
  C   C233      1.0  0.962969640543968  0.34113360026923645  0.6290258388484433  1.0000
  C   C234      1.0  0.8928118670457132  0.3195384130464681  0.6375695068720856  1.0000
  C   C235      1.0  0.9323640543914766  0.30640469239866047  0.5924353080846471  1.0000
  C   C236      1.0  0.8842365873608764  0.3433720643580616  0.5842143402168717  1.0000
  H   H249      1.0  0.9840896235439239  0.3467729932656469  0.609886703239234  1.0000
  H   H250      1.0  0.988672685284185  0.329952856500509  0.6499233002851011  1.0000
  H   H251      1.0  0.9535695295571897  0.3575872852343143  0.6424389707562347  1.0000
  H   H252      1.0  0.880915259556403  0.33513152897320986  0.6515255162869783  1.0000
  H   H253      1.0  0.8592312368020322  0.30887386205728307  0.6250175418449488  1.0000
  H   H254      1.0  0.9177495923843579  0.308013225199347  0.658520911163901  1.0000
  H   H255      1.0  0.8996776641699078  0.2953676200490062  0.5790606582455596  1.0000
  H   H256      1.0  0.9591632615186471  0.2945166542748705  0.6115929682684499  1.0000
  H   H257      1.0  0.950729250043197  0.31187288423432635  0.5715982170964583  1.0000
  H   H258      1.0  0.8500379073337195  0.33371445783842285  0.5697698361441121  1.0000
  H   H259      1.0  0.9024101649070043  0.34991807091960797  0.5637928319652022  1.0000
  H   H260      1.0  0.8726206393571421  0.3595046100652562  0.5973027760331753  1.0000
  N   N12       1.0  0.3094765226859508  0.7210249241733897  0.44531673845728725  1.0000
  C   C237      1.0  0.25849240315453037  0.7307225642552172  0.43969135363702966  1.0000
  C   C238      1.0  0.34180731545099674  0.7305296685541397  0.4791934869896334  1.0000
  C   C239      1.0  0.32901789638544593  0.7283152060364342  0.4151355899491923  1.0000
  C   C240      1.0  0.3087027603550143  0.6944661498888379  0.4471636948015157  1.0000
  H   H261      1.0  0.23329967542514166  0.7237399240954786  0.4143829009044007  1.0000
  H   H262      1.0  0.25743752303802825  0.7507289138685204  0.4377816711899947  1.0000
  H   H263      1.0  0.24243589408807537  0.7256171043902029  0.4619377269327712  1.0000
  H   H264      1.0  0.32834780178569056  0.7252558591358591  0.5026008031704293  1.0000
  H   H265      1.0  0.380590307891161  0.7235030280632085  0.4840004575506357  1.0000
  H   H266      1.0  0.3433335081406151  0.750537041044646  0.4787964814868907  1.0000
  H   H267      1.0  0.3674569714384445  0.7212554158125632  0.4184993152317371  1.0000
  H   H268      1.0  0.3300212372784456  0.7482490231365082  0.4128532080002795  1.0000
  H   H269      1.0  0.30560768017883405  0.7213386401242453  0.3891800049452966  1.0000
  H   H270      1.0  0.28551172149582055  0.6866398843171929  0.42181480934849075  1.0000
  H   H271      1.0  0.29335337898138064  0.6882338578836231  0.4691991394310139  1.0000
  H   H272      1.0  0.3466155913913976  0.6865434992917095  0.4517637247940162  1.0000
  N   N13       1.0  0.14858022491288528  0.8300807139847762  0.8089261251938078  1.0000
  C   C241      1.0  0.17846070155379481  0.8109229288563983  0.797880220372646  1.0000
  C   C242      1.0  0.14516331835916288  0.8511368114856335  0.7851250086164067  1.0000
  C   C243      1.0  0.17237288764241573  0.8371312380248457  0.8463703056205415  1.0000
  C   C244      1.0  0.09822731237486419  0.8210696261551177  0.8061395717506726  1.0000
  H   H273      1.0  0.21680958458863597  0.8169262886176757  0.7994116036377511  1.0000
  H   H274      1.0  0.16134645521322064  0.8052240290097534  0.7697577455206444  1.0000
  H   H275      1.0  0.18157681556165597  0.7944873764812995  0.8147623186321375  1.0000
  H   H276      1.0  0.12069460137574545  0.8655303530284418  0.7913852116172362  1.0000
  H   H277      1.0  0.18232097959738985  0.8589012917838095  0.7873103753780788  1.0000
  H   H278      1.0  0.12910541750433763  0.8460820153764701  0.7565167763987364  1.0000
  H   H279      1.0  0.15081435145734834  0.8516909159555435  0.8554268301023389  1.0000
  H   H280      1.0  0.21066839399083287  0.8437827054505774  0.8494293529242457  1.0000
  H   H281      1.0  0.17512506198080027  0.8215881155359748  0.8648975420360225  1.0000
  H   H282      1.0  0.07484016258749546  0.8348173944614866  0.8151418248748474  1.0000
  H   H283      1.0  0.099230968338206  0.8045508836273041  0.8224961994181419  1.0000
  H   H284      1.0  0.07877818335345194  0.8164416825379749  0.777950953105116  1.0000
  N   N14       1.0  0.02708685412835732  0.8672198425723993  0.5972759316918923  1.0000
  C   C245      1.0  0.9911353809270164  0.8708794032714647  0.6187297861899795  1.0000
  C   C246      1.0  0.008370100288042082  0.8487756696500682  0.5694077751432092  1.0000
  C   C247      1.0  0.07520206565204601  0.8591187431954748  0.6210544124746933  1.0000
  C   C248      1.0  0.03386563719634861  0.8900870023816148  0.5799343702107643  1.0000
  H   H285      1.0  0.0044061407649249595  0.8844530244655049  0.6403321644846184  1.0000
  H   H286      1.0  0.985359575652518  0.8539734052495688  0.6323133655324245  1.0000
  H   H287      1.0  0.9542823622142765  0.8769675134915929  0.6017831340131644  1.0000
  H   H288      1.0  0.03473066702665317  0.8455655053272956  0.5527828776753625  1.0000
  H   H289      1.0  0.0036356884681225665  0.8311123232610294  0.5814488540313009  1.0000
  H   H290      1.0  0.9719109883490397  0.8540576118673873  0.5510342618466125  1.0000
  H   H291      1.0  0.1032490431260702  0.8558526246043612  0.6058233996940277  1.0000
  H   H292      1.0  0.07129486471823476  0.8418604955102845  0.6343446361904508  1.0000
  H   H293      1.0  0.09051527763470224  0.8724418465083109  0.6425881879257888  1.0000
  H   H294      1.0  0.04799080437431891  0.9044199002318797  0.600154108463222  1.0000
  H   H295      1.0  0.9983119228144052  0.8966613488153852  0.5616083408202419  1.0000
  H   H296      1.0  0.06099627968203358  0.887842221261716  0.5636918036446779  1.0000
  N   N15       1.0  0.73434915668206  0.9765129329990768  0.8049951849650625  1.0000
  C   C249      1.0  0.6970783898806869  0.9943157982338995  0.785701163133286  1.0000
  C   C250      1.0  0.7195044818950401  0.9520931165144801  0.7911547592023878  1.0000
  C   C251      1.0  0.737467901854344  0.9774935835255449  0.8436736575754119  1.0000
  C   C252      1.0  0.7832869636287606  0.9821798217493127  0.7995230251524635  1.0000
  H   H297      1.0  0.7071152810091385  0.012925933770123077  0.7956980768193834  1.0000
  H   H298      1.0  0.6596979003721413  0.9905109833049894  0.7892148527903564  1.0000
  H   H299      1.0  0.6939314780040353  0.994165214202046  0.7564326960311571  1.0000
  H   H300      1.0  0.7470729819638794  0.938251342206969  0.8049280359007415  1.0000
  H   H301      1.0  0.683365328995586  0.9469322575962253  0.7957548458620799  1.0000
  H   H302      1.0  0.716078979520872  0.9506499170319547  0.7619416819768604  1.0000
  H   H303      1.0  0.7483232324848059  0.9956743453263163  0.8551061017567195  1.0000
  H   H304      1.0  0.7653036416838075  0.9643069740552427  0.8589761968220344  1.0000
  H   H305      1.0  0.701451543977437  0.9728669569983975  0.8489189522673296  1.0000
  H   H306      1.0  0.8127328264573612  0.9696045537497902  0.8146745946173898  1.0000
  H   H307      1.0  0.7950884477148125  0.0007267537817041703  0.8087883168294634  1.0000
  H   H308      1.0  0.7828916586362779  0.9808969698625183  0.7707823490976332  1.0000
  N   N16       1.0  0.6056077060850872  0.22203061077969016  0.9847336133145907  1.0000
  C   C253      1.0  0.6289754534929061  0.24189233325506426  0.008648829928906919  1.0000
  C   C254      1.0  0.5552129584566475  0.22950513203061668  0.9640590013403981  1.0000
  C   C255      1.0  0.6024649774828774  0.20056331046597445  0.006369453600105546  1.0000
  C   C256      1.0  0.6356441545899305  0.21628326358193084  0.9596539797347255  1.0000
  H   H309      1.0  0.6670928798755396  0.23696398437465388  0.024740814791984977  1.0000
  H   H310      1.0  0.6070337366544944  0.24689532019211655  0.027757149338143015  1.0000
  H   H311      1.0  0.6318375871576224  0.2583619085090686  0.9930576110329051  1.0000
  H   H312      1.0  0.5363617495434815  0.21508966367430937  0.9454724064799127  1.0000
  H   H313      1.0  0.5313412624249461  0.23436074773862234  0.9819280741804582  1.0000
  H   H314      1.0  0.5565027471887362  0.24561125168156897  0.9474264021902179  1.0000
  H   H315      1.0  0.5798676883640286  0.20439934318259612  0.02549937205557895  1.0000
  H   H316      1.0  0.6398991669376809  0.1944351561031087  0.02232047772684287  1.0000
  H   H317      1.0  0.5849505550913454  0.18527235544492465  0.9890439136998338  1.0000
  H   H318      1.0  0.618848583067112  0.201612921101262  0.9407015754807954  1.0000
  H   H319      1.0  0.6740884460256826  0.21054476828211743  0.973960746344082  1.0000
  H   H320      1.0  0.6384245127797151  0.2321975049403019  0.9429738334089158  1.0000
  N   N17       1.0  0.9445713527745011  0.1785714417074868  0.034725885763832925  1.0000
  C   C257      1.0  0.9678312983760401  0.17988772112776358  0.00483496968480579  1.0000
  C   C258      1.0  0.9236661097539263  0.20244897129694445  0.03994497150661476  1.0000
  C   C259      1.0  0.9824423359016604  0.17133695093068332  0.06780290505970243  1.0000
  C   C260      1.0  0.9045063890032462  0.16062248554801808  0.02611561604399193  1.0000
  H   H321      1.0  0.9826761469588878  0.16203117212015108  0.9994395268194929  1.0000
  H   H322      1.0  0.9987370486190227  0.19296069705251384  0.010601245949804161  1.0000
  H   H323      1.0  0.9409174220045946  0.18577136282867723  0.9795745440080381  1.0000
  H   H324      1.0  0.9057343140525055  0.20217901353566695  0.06230358291607064  1.0000
  H   H325      1.0  0.9530390277373347  0.21638567344357373  0.04625481626720845  1.0000
  H   H326      1.0  0.8951242283810286  0.2083954976784325  0.01528180275470725  1.0000
  H   H327      1.0  0.9664886837851979  0.1702316175297602  0.09111759012562819  1.0000
  H   H328      1.0  0.013588257147439942  0.18437269677358392  0.07485130447768887  1.0000
  H   H329      1.0  0.998956331578864  0.15338985894815604  0.064639270593071  1.0000
  H   H330      1.0  0.8858966610928684  0.15914823976324202  0.04800423776764772  1.0000
  H   H331      1.0  0.9191144551844764  0.14241608992457683  0.02185802787112423  1.0000
  H   H332      1.0  0.8755898283150457  0.16548929940526103  0.0010535452605824336  1.0000
  N   N18       1.0  0.5300546089686234  0.5999101725382348  0.5125061531527461  1.0000
  C   C261      1.0  0.5301492814319542  0.5769130810471215  0.49317693866829715  1.0000
  C   C262      1.0  0.5809032314037909  0.6095526283735235  0.5235166770382513  1.0000
  C   C263      1.0  0.5125780327818255  0.5958141746751993  0.5447529445587207  1.0000
  C   C264      1.0  0.4966123677762015  0.6173631791256299  0.4886382397941317  1.0000
  H   H333      1.0  0.4923352707577685  0.5690288444979109  0.4848450792282006  1.0000
  H   H334      1.0  0.5555256943404054  0.5633728042139337  0.5100824046932935  1.0000
  H   H335      1.0  0.5420182692254875  0.5795117771039675  0.4682211437677541  1.0000
  H   H336      1.0  0.6073553352483246  0.5967725772741822  0.5412456190297076  1.0000
  H   H337      1.0  0.595183345146569  0.6134155635545046  0.49995232047741306  1.0000
  H   H338      1.0  0.5821310564087512  0.6266664308387376  0.5387192043758822  1.0000
  H   H339      1.0  0.5118045707732942  0.6128924884770827  0.5597785860484025  1.0000
  H   H340      1.0  0.5374485933212491  0.5829535889067126  0.5635716678693072  1.0000
  H   H341      1.0  0.4744383500142783  0.588334055646644  0.5375290227135352  1.0000
  H   H342      1.0  0.49528872285836295  0.6349543381695562  0.5022592112403728  1.0000
  H   H343      1.0  0.45801363969095205  0.6104982503205995  0.47940110316681106  1.0000
  H   H344      1.0  0.5088992522663338  0.6209655471495014  0.4641021663134581  1.0000
  N   N19       1.0  0.49856061187532025  0.49084028059466656  0.3316739988782152  1.0000
  C   C265      1.0  0.4469815892566101  0.482607113366612  0.3172170766368928  1.0000
  C   C266      1.0  0.5020415620893341  0.5056935487433194  0.36399904454759474  1.0000
  C   C267      1.0  0.5128965960897702  0.5053724442717249  0.3042765553722251  1.0000
  C   C268      1.0  0.5322324256315241  0.4697247074075683  0.3411928060004033  1.0000
  H   H345      1.0  0.44284759870641316  0.4712132026759426  0.29291914703613625  1.0000
  H   H346      1.0  0.42037216655116344  0.498051698965659  0.30999447062114693  1.0000
  H   H347      1.0  0.43485144541797455  0.4716944554120891  0.3372021222346473  1.0000
  H   H348      1.0  0.47662378877816786  0.5216597879037276  0.357899459320712  1.0000
  H   H349      1.0  0.4918102805034506  0.4952062068496361  0.3853358252698317  1.0000
  H   H350      1.0  0.5403295873556087  0.5124197303489312  0.37553269502113046  1.0000
  H   H351      1.0  0.5515690714146201  0.5119943462111136  0.3143239751170789  1.0000
  H   H352      1.0  0.4880614392621396  0.5214262289490361  0.2965088128765726  1.0000
  H   H353      1.0  0.510779965008203  0.4946757329723826  0.27954498705506575  1.0000
  H   H354      1.0  0.5716421182101202  0.47515747755900095  0.3516054414372394  1.0000
  H   H355      1.0  0.5296622894806179  0.45763936334527555  0.3177448492122902  1.0000
  H   H356      1.0  0.5231163694089042  0.45861519399174205  0.3623646951627015  1.0000
  N   N20       1.0  0.4203830311369083  0.31762942743144296  0.2836960133942857  1.0000
  C   C269      1.0  0.3951656100922634  0.3350727102745818  0.25581366644204384  1.0000
  C   C270      1.0  0.3971044694408009  0.318681488197429  0.31371884591484256  1.0000
  C   C271      1.0  0.47344396318741705  0.32374633876164477  0.2969976727230409  1.0000
  C   C272      1.0  0.41594148128580694  0.29311964962546816  0.26816367116890427  1.0000
  H   H357      1.0  0.4123046089241342  0.3350856425746412  0.2329707754596234  1.0000
  H   H358      1.0  0.397372245539796  0.3537216600829936  0.2667457592596667  1.0000
  H   H359      1.0  0.35518424033156765  0.33082876110851556  0.24482650371304812  1.0000
  H   H360      1.0  0.4149553031603837  0.3056919710294471  0.33525783459351294  1.0000
  H   H361      1.0  0.4002253364961368  0.3369874244842377  0.32604906479027035  1.0000
  H   H362      1.0  0.35679709477807364  0.3145881888548133  0.30461746411894314  1.0000
  H   H363      1.0  0.49372228048447975  0.31111508254843717  0.31831211120460207  1.0000
  H   H364      1.0  0.4783645289352898  0.3422794723717208  0.3084056490108546  1.0000
  H   H365      1.0  0.4922311781794407  0.3228919234000505  0.27506593962009723  1.0000
  H   H366      1.0  0.43539210811090906  0.2794887311475105  0.2882147003281787  1.0000
  H   H367      1.0  0.43269031887173326  0.29196500069199616  0.24512345469766295  1.0000
  H   H368      1.0  0.37647002838901783  0.28768419432130077  0.2580398882103834  1.0000
  N   N21       1.0  0.8152263477838929  0.685830853210543  0.5733354728409876  1.0000
  C   C273      1.0  0.8052799865891642  0.6789801492242394  0.5351681781460854  1.0000
  C   C274      1.0  0.7794079852195279  0.7047644424785316  0.5771840812419773  1.0000
  C   C275      1.0  0.8663220882354543  0.6950091908382848  0.5863371053764136  1.0000
  C   C276      1.0  0.8097397965927303  0.6645333562439731  0.5946421959678498  1.0000
  H   H369      1.0  0.8311758459646151  0.6644941742398633  0.5312832283836159  1.0000
  H   H370      1.0  0.8094447937475361  0.6946161544339627  0.518385205838158  1.0000
  H   H371      1.0  0.7667577761618701  0.6721700794680981  0.5245456380883321  1.0000
  H   H372      1.0  0.7853929788040391  0.7101605789103025  0.6056608232293622  1.0000
  H   H373      1.0  0.7828931214669617  0.7212438787142924  0.5618601831071476  1.0000
  H   H374      1.0  0.7404352432104031  0.6984626773229828  0.5673942454231785  1.0000
  H   H375      1.0  0.8756611033472295  0.6992136385676613  0.6154169692136836  1.0000
  H   H376      1.0  0.8713924889431435  0.7118847903134273  0.5723732787243517  1.0000
  H   H377      1.0  0.8943153288840298  0.6815734306635008  0.582593453531246  1.0000
  H   H378      1.0  0.8156446125391739  0.6691631394493406  0.6234717278659857  1.0000
  H   H379      1.0  0.8369991807480822  0.6500777012439188  0.5931984147995877  1.0000
  H   H380      1.0  0.7719829942466265  0.6568305993338257  0.584989025799113  1.0000
  N   N22       1.0  0.8174105421413439  0.23105430605752955  0.8178488381452457  1.0000
  C   C277      1.0  0.7715656100126213  0.2321424697633703  0.8298429273733378  1.0000
  C   C278      1.0  0.8583748675400181  0.2209598272022666  0.846866810016613  1.0000
  C   C279      1.0  0.8304661031092264  0.25553413640255057  0.8089394923213434  1.0000
  C   C280      1.0  0.8092820580581843  0.2155173087008176  0.7857514146203979  1.0000
  H   H381      1.0  0.739841344395309  0.2399024349723688  0.8088690375639158  1.0000
  H   H382      1.0  0.7765135263708451  0.24339042731628738  0.8543663810923494  1.0000
  H   H383      1.0  0.7605190640993286  0.21387026361022993  0.8362966233478566  1.0000
  H   H384      1.0  0.8655373376040026  0.23210356443268618  0.8716390217555284  1.0000
  H   H385      1.0  0.8497137776108479  0.20253192148555085  0.8542937646977973  1.0000
  H   H386      1.0  0.8935014334157259  0.2195723370913281  0.8386064133852261  1.0000
  H   H387      1.0  0.8366666626931993  0.26776637173916285  0.8325351023115933  1.0000
  H   H388      1.0  0.8005647583128869  0.26365715432423886  0.7869435755207947  1.0000
  H   H389      1.0  0.8651522262986893  0.25527698122588593  0.7999794631992825  1.0000
  H   H390      1.0  0.8422446682970343  0.21526710933592114  0.7748605184434781  1.0000
  H   H391      1.0  0.7769670463108196  0.22178840683220932  0.7639257256160044  1.0000
  H   H392      1.0  0.8026406782372849  0.1964890132084522  0.7920711738821975  1.0000
  N   N23       1.0  0.5824873219594404  0.36046600796666145  0.5881924392447944  1.0000
  C   C281      1.0  0.6040408815456133  0.37163915260273733  0.5613349103262141  1.0000
  C   C282      1.0  0.5659410281254941  0.3794864227940091  0.6093019105354741  1.0000
  C   C283      1.0  0.6203141957961699  0.34503928441239257  0.6124504002022575  1.0000
  C   C284      1.0  0.5394915732221273  0.3457601783126738  0.569654973334979  1.0000
  H   H393      1.0  0.6185461067355553  0.3579135896562363  0.5456608737137073  1.0000
  H   H394      1.0  0.6352735126976855  0.38377684932982803  0.5741580399509792  1.0000
  H   H395      1.0  0.5758780514351796  0.38268918685930203  0.5418697919461244  1.0000
  H   H396      1.0  0.5521468383583737  0.37176876046847745  0.6312233614472051  1.0000
  H   H397      1.0  0.596837282190401  0.3917898230892458  0.6220578350537624  1.0000
  H   H398      1.0  0.535438556785982  0.3906179145717843  0.5922873625863909  1.0000
  H   H399      1.0  0.6337420784012808  0.33043010820759094  0.5975887559320736  1.0000
  H   H400      1.0  0.605535097979205  0.3366068947174783  0.6334372436161448  1.0000
  H   H401      1.0  0.6530603067532421  0.35569926238683736  0.6269024355515325  1.0000
  H   H402      1.0  0.5103650230966479  0.35699903690380896  0.5510968579732566  1.0000
  H   H403      1.0  0.5221729840434531  0.3371691306927268  0.5891399727868193  1.0000
  H   H404      1.0  0.550575681175186  0.3312459472743572  0.5533797043636249  1.0000
  N   N24       1.0  0.8840919100717396  0.2672090923553124  0.24916030704911787  1.0000
  C   C285      1.0  0.8494644000155012  0.26183730531811367  0.270849487519001  1.0000
  C   C286      1.0  0.8566086906470981  0.2675278070654241  0.2107960470247349  1.0000
  C   C287      1.0  0.923524769071148  0.24849555228146167  0.2555276715577694  1.0000
  C   C288      1.0  0.906629621943094  0.29101847939413095  0.25944888616833073  1.0000
  H   H405      1.0  0.86858996379409  0.2620883350542671  0.30005317576667107  1.0000
  H   H406      1.0  0.8323357880247036  0.24383604828446548  0.2643863975480606  1.0000
  H   H407      1.0  0.8186400491517157  0.275313194953081  0.2660500702735353  1.0000
  H   H408      1.0  0.8388198296935373  0.24989490053427849  0.20215721618216895  1.0000
  H   H409      1.0  0.8265835505865199  0.2815182025331334  0.20527634907089048  1.0000
  H   H410      1.0  0.8816287772317596  0.2715437682653468  0.19362871851458566  1.0000
  H   H411      1.0  0.9451027724488336  0.2479347502360365  0.28425663790539446  1.0000
  H   H412      1.0  0.9505523067540568  0.25199587443336535  0.2397067758489645  1.0000
  H   H413      1.0  0.9080327083838186  0.2302527767248991  0.24825775434021521  1.0000
  H   H414      1.0  0.9269366451367856  0.2916296329106646  0.2883356977890446  1.0000
  H   H415      1.0  0.8780291481648866  0.30565426061560713  0.2549339663593366  1.0000
  H   H416      1.0  0.9338559629620012  0.29548989975987877  0.24422611306238867  1.0000
  N   N25       1.0  0.19374226688554197  0.4302505300121731  0.33301362515347827  1.0000
  C   C289      1.0  0.22515128707663834  0.4154669504411547  0.31578418274933495  1.0000
  C   C290      1.0  0.18870956908640957  0.4178883878791263  0.3655569469272401  1.0000
  C   C291      1.0  0.14412577908657132  0.4336143548307028  0.3077162351760508  1.0000
  C   C292      1.0  0.21689286249512674  0.453982910133639  0.34294831976401924  1.0000
  H   H417      1.0  0.22989711115597067  0.4242012794257044  0.2911435622465449  1.0000
  H   H418      1.0  0.20920235741071935  0.3972930841387796  0.3082929579263193  1.0000
  H   H419      1.0  0.2628601921514788  0.4125745129078985  0.33403219164951353  1.0000
  H   H420      1.0  0.16494184656097355  0.4283964102316185  0.37917894548428593  1.0000
  H   H421      1.0  0.17178412117575248  0.39979766091615887  0.3591008171078511  1.0000
  H   H422      1.0  0.22544227503078074  0.4151621847382611  0.38533721783020103  1.0000
  H   H423      1.0  0.11932928142934962  0.44461871821455257  0.3198755141474402  1.0000
  H   H424      1.0  0.12572492305999172  0.4160083277088067  0.29969249263012077  1.0000
  H   H425      1.0  0.14654285628742936  0.44294111084232973  0.28286328871674177  1.0000
  H   H426      1.0  0.2540631634029893  0.45217807106812835  0.3624992546466305  1.0000
  H   H427      1.0  0.19391003062961354  0.4658278002706939  0.3554936419189257  1.0000
  H   H428      1.0  0.22258674987810045  0.46363142451043876  0.31923689948918177  1.0000
  N   N26       1.0  0.17028310971686933  0.30953731239569005  0.5093211720368915  1.0000
  C   C293      1.0  0.12826541263420418  0.3267562096189311  0.49833257410103804  1.0000
  C   C294      1.0  0.15134832520679758  0.2853616830884855  0.5138458440680457  1.0000
  C   C295      1.0  0.2039716981900997  0.3175068392155507  0.5436708203682808  1.0000
  C   C296      1.0  0.1973893247382036  0.3085622014218264  0.4814424708229496  1.0000
  H   H429      1.0  0.14087136785134857  0.34495582677745806  0.4929700172239812  1.0000
  H   H430      1.0  0.1082284869202937  0.3287809684877161  0.5193444856709233  1.0000
  H   H431      1.0  0.10097282643563762  0.3207806863975271  0.473285170903129  1.0000
  H   H432      1.0  0.12461842867527004  0.27903401595770466  0.4886875576979932  1.0000
  H   H433      1.0  0.18178608473223634  0.27172312475563326  0.5213558290525676  1.0000
  H   H434      1.0  0.13160886210299375  0.28534572556600507  0.5352367209550561  1.0000
  H   H435      1.0  0.18438369612010114  0.31836252618227523  0.5652128452242619  1.0000
  H   H436      1.0  0.218674113854551  0.33576766486801557  0.5412050082585965  1.0000
  H   H437      1.0  0.23612470085324788  0.30492575524895627  0.5528489329640957  1.0000
  H   H438      1.0  0.1726962172309582  0.30270876687406967  0.45520215921430385  1.0000
  H   H439      1.0  0.22941228767522576  0.29578481606324936  0.48871278874908536  1.0000
  H   H440      1.0  0.21165431006709798  0.32659140194225983  0.47695794032331373  1.0000
  N   N27       1.0  0.20581894425221758  0.233952629955652  0.8230337884577521  1.0000
  C   C297      1.0  0.24981583055067347  0.2189928612774096  0.8400774225762933  1.0000
  C   C298      1.0  0.16024949599111493  0.22130101830494175  0.8245595237276812  1.0000
  C   C299      1.0  0.2046708122046068  0.23834707374546746  0.7852330170909865  1.0000
  C   C300      1.0  0.2085574128485288  0.25721409074607204  0.8421174940757304  1.0000
  H   H441      1.0  0.2847456331507596  0.22811504631921162  0.8392620469344253  1.0000
  H   H442      1.0  0.24884970430165265  0.20137144962777476  0.82608860134352  1.0000
  H   H443      1.0  0.25194206927036444  0.21527627004882532  0.8686579720038591  1.0000
  H   H444      1.0  0.12633292455698308  0.23208742645485766  0.8116587466001246  1.0000
  H   H445      1.0  0.1565845551343179  0.20379578498318712  0.8099803823905767  1.0000
  H   H446      1.0  0.1596084209164037  0.2176242666923342  0.8526162279967147  1.0000
  H   H447      1.0  0.17269743663424286  0.25006749119020827  0.7719681061459237  1.0000
  H   H448      1.0  0.20068378591172675  0.22130032582401618  0.7695116167766684  1.0000
  H   H449      1.0  0.23881225759378388  0.2474946374272141  0.7828904422675933  1.0000
  H   H450      1.0  0.20966645403164375  0.2546979607200804  0.8707781340444588  1.0000
  H   H451      1.0  0.17589248036088545  0.26897111216734615  0.8297894315948722  1.0000
  H   H452      1.0  0.2421319267160671  0.26741639800069983  0.841047056722301  1.0000
  N   N28       1.0  0.5223426618384706  0.3621596386253186  0.08995056730761132  1.0000
  C   C301      1.0  0.5713361231073042  0.3567735087845947  0.11498765007858854  1.0000
  C   C302      1.0  0.48458444044911353  0.3640975734178811  0.11018621199937269  1.0000
  C   C303      1.0  0.5088058609213972  0.3425895273291614  0.06323630469628315  1.0000
  C   C304      1.0  0.5247141238839754  0.3851318438873823  0.07142725232606154  1.0000
  H   H453      1.0  0.6008210375381101  0.3549114010142829  0.10070121193452285  1.0000
  H   H454      1.0  0.5709593267587173  0.33953570195254645  0.12930188045338245  1.0000
  H   H455      1.0  0.5827436985143639  0.3710002570100637  0.13579955509457553  1.0000
  H   H456      1.0  0.4472837288975185  0.368679800663174  0.09237963272872755  1.0000
  H   H457      1.0  0.48109457583492954  0.34682775929614057  0.1237515721180445  1.0000
  H   H458      1.0  0.4943808333632443  0.3780613895778555  0.13158642395533207  1.0000
  H   H459      1.0  0.47232865270168684  0.34609600782215344  0.04355797336407455  1.0000
  H   H460      1.0  0.5060957543147694  0.3250715371258326  0.07638031277498218  1.0000
  H   H461      1.0  0.5369699893593761  0.3402171232559922  0.04790443402126152  1.0000
  H   H462      1.0  0.48841952784264053  0.3897277322742613  0.05218171242368325  1.0000
  H   H463      1.0  0.5530406847141778  0.38418567789974745  0.05601528264711497  1.0000
  H   H464      1.0  0.5347661975007538  0.4002690467781871  0.09087741991254158  1.0000
  N   N29       1.0  0.6795115087011038  0.7607497661561191  0.7531188365554821  1.0000
  C   C305      1.0  0.6508171464198507  0.7549027030569051  0.7788920051143388  1.0000
  C   C306      1.0  0.732399260870616  0.7545097928586764  0.7689463872747071  1.0000
  C   C307      1.0  0.6745688780436716  0.7867635887337636  0.744811864732284  1.0000
  C   C308      1.0  0.6603169629807549  0.7468021517922415  0.7197958576373059  1.0000
  H   H465      1.0  0.6535131299057869  0.7354199807781321  0.7857217925617793  1.0000
  H   H466      1.0  0.6106799588886161  0.7594438047466398  0.7679358404412222  1.0000
  H   H467      1.0  0.6641903594189974  0.7651364552986986  0.8043747204131407  1.0000
  H   H468      1.0  0.7551438598319999  0.758689801401333  0.750203034172631  1.0000
  H   H469      1.0  0.7480344454046544  0.7647337233831284  0.7941926488377693  1.0000
  H   H470      1.0  0.7374614085506731  0.734979818473257  0.7755207738513386  1.0000
  H   H471      1.0  0.693331206183076  0.79163146506101  0.7239387645206982  1.0000
  H   H472      1.0  0.6914332409032895  0.7978004237323757  0.7689717720816267  1.0000
  H   H473      1.0  0.6348625366288382  0.7924385385030867  0.7351372609350123  1.0000
  H   H474      1.0  0.6651019247785002  0.7271108564651998  0.7248870311155821  1.0000
  H   H475      1.0  0.6799528165993134  0.7512066786097713  0.6992357669888816  1.0000
  H   H476      1.0  0.6199710844555334  0.7503598096518268  0.7077669254767162  1.0000
  N   N30       1.0  0.7366560299942121  0.7627864262338497  0.31626030725147597  1.0000
  C   C309      1.0  0.7095439253528448  0.7401668785706248  0.3166598208412198  1.0000
  C   C310      1.0  0.7047668867519666  0.7797542426617097  0.290538808521139  1.0000
  C   C311      1.0  0.7824088141375988  0.7576110900772514  0.305327178848596  1.0000
  C   C312      1.0  0.7499030047115426  0.773657041897779  0.35244099903553644  1.0000
  H   H477      1.0  0.6752169308312529  0.7433402164290374  0.3254340888382507  1.0000
  H   H478      1.0  0.7327303823140171  0.7266354425728181  0.33505537018395626  1.0000
  H   H479      1.0  0.6976367547630475  0.7319360335679402  0.289420685882024  1.0000
  H   H480      1.0  0.723473248074929  0.7972777670456742  0.28996378611702633  1.0000
  H   H481      1.0  0.6953078317709176  0.7724436765014284  0.26275911194408025  1.0000
  H   H482      1.0  0.6691396148072078  0.7835140816217854  0.29722292161008984  1.0000
  H   H483      1.0  0.8035533472117381  0.7743393114410795  0.3044821852346979  1.0000
  H   H484      1.0  0.7738657692853744  0.7493340878017646  0.27816857564395053  1.0000
  H   H485      1.0  0.8077211311717643  0.7450284632338448  0.3242131127186054  1.0000
  H   H486      1.0  0.770644124992256  0.7907153010392649  0.3529181559339785  1.0000
  H   H487      1.0  0.7739928518152033  0.761329047568025  0.37255142595915003  1.0000
  H   H488      1.0  0.716223291771183  0.7779483995483313  0.36147242737919333  1.0000
  N   N31       1.0  0.45652307655059077  0.3521349504363055  0.7638530969448674  1.0000
  C   C313      1.0  0.4962919274305982  0.3644611161222373  0.7908693681766082  1.0000
  C   C314      1.0  0.41601942387739754  0.3457180830620691  0.779853206949508  1.0000
  C   C315      1.0  0.4769127290813557  0.3300114385758543  0.7516069202588723  1.0000
  C   C316      1.0  0.43688365468051027  0.368315235689823  0.7329625743078381  1.0000
  H   H489      1.0  0.48221934983137305  0.3809625424302017  0.8014176753913411  1.0000
  H   H490      1.0  0.5270754323277372  0.36989983518945974  0.7794749844269735  1.0000
  H   H491      1.0  0.5129964026945003  0.35256802441110974  0.8141825599663179  1.0000
  H   H492      1.0  0.38544471475294806  0.33631323391127216  0.7601835050678247  1.0000
  H   H493      1.0  0.4293605025342683  0.33321578528205886  0.802863622934038  1.0000
  H   H494      1.0  0.3998477795623735  0.3618607524011782  0.7897667129793265  1.0000
  H   H495      1.0  0.4935949801018206  0.3177823721125536  0.7744872476165893  1.0000
  H   H496      1.0  0.5063340581021138  0.3341540215749663  0.7382247230497634  1.0000
  H   H497      1.0  0.44754427767848054  0.31959913300161674  0.7324364469420841  1.0000
  H   H498      1.0  0.466607387851789  0.37356830596346274  0.720357444792174  1.0000
  H   H499      1.0  0.42102898271443034  0.38516186562258975  0.7412573841240901  1.0000
  H   H500      1.0  0.40700432796695174  0.3594834795978531  0.7119998107696317  1.0000
  N   N32       1.0  0.3604331681610647  0.9798926753469499  0.2632367633105949  1.0000
  C   C317      1.0  0.39985268350006464  0.997230937354535  0.2792806396225428  1.0000
  C   C318      1.0  0.3819138755741643  0.9552879669176557  0.2655853926783516  1.0000
  C   C319      1.0  0.33818995652536477  0.9861738715399256  0.22524258592982876  1.0000
  C   C320      1.0  0.3216060521880463  0.9809451167564937  0.2826513448519696  1.0000
  H   H501      1.0  0.38467222010890295  0.015952714260052403  0.27797364016759113  1.0000
  H   H502      1.0  0.42940208770094584  0.9970146276372105  0.26493584624538724  1.0000
  H   H503      1.0  0.4176572796898082  0.9929860062424846  0.30795742576176727  1.0000
  H   H504      1.0  0.3532187563966464  0.9417639845143032  0.25350235116279146  1.0000
  H   H505      1.0  0.4108119792457912  0.9537149046312047  0.2507219990035682  1.0000
  H   H506      1.0  0.39902332480111546  0.9498193868170622  0.29384171264851044  1.0000
  H   H507      1.0  0.36541592614481055  0.9842923437084964  0.20906318816125155  1.0000
  H   H508      1.0  0.3232596928267578  0.0049508155271369425  0.22228948615712585  1.0000
  H   H509      1.0  0.30663474949492225  0.974234244421568  0.21309619149226464  1.0000
  H   H510      1.0  0.29152016276343556  0.9678533389747825  0.27145319230571757  1.0000
  H   H511      1.0  0.30337693621473627  0.999058716259604  0.2802933583928674  1.0000
  H   H512      1.0  0.33691226371257127  0.9767649000000687  0.31160438140029495  1.0000
