data_image0
_chemical_formula_structural       C2HC2HCHCHSH2SH2CHCNH2C2H4CNSH3CH2CHCH3CH2Fe2S2FeS2FeSFeS3FeHSHCNC5H2C4HC2H4C6H5C3HC2HNH2CH7C2H4NH5CSHCH4NC2HC2HCH2CHCH2CH2CHCH4SHC2S2H2FeH2C2HCSH6SCSHSFeSFeSNHC4H3C6H4CH2NH6C3H3FeCHCHCFeSH6CH3SH3CSCH2CHCH6S2H2FeCHC2HCH4C5HCHCHCHCN2HSH2CH3CSHFeSHFeS2FeS2FeSFeS3C2H2C5FeCHCHC6H6C3H6CH3NHCH2FeNC3HC2H5CH3NCHS2CHC3H5CHCH3SCH6CH3CH3CFeH2CFeS2FeSHFeSFeS3HCHC3H2C6H5NH3CHCH4CH2SH2SH2CH2SHCNHCH4NHSHCH2CHC2NHCHC3H4CH5FeNHFeNSCH3CSCS2H2SCHSH2C6H4C2H2CHFeHCHSCH7CNCHSCH4CHSHC2H4CH5CHCHCFeS2FeS2FeSFeS3HSH3C2HC4HC6H4C2HFeC2H4C6H8FeHCSC3HCH2NH6CH3NH2SNCSC2HCH5CH3CH2C2H7SFeHCHSHCHC3H2C4FeH2CHCNH2SCH3FeH2SH3CHSHCS2CH2CHFeSH3C2FeHC4H6NSH3CHCHCNH3CHNH2CH4CH2CSCHCHC2H6FeCFeHSHCHSHFeS2FeS2FeSFeS3HSHC3H2CH2C6H4C5H4SHC6H7C2H3NHCSHCHCH5CNC3H2CH6NH2SCH3NH2FeCHCH3FeH4CH6NHCH3CSCH4SHCSFeSFeSHFeH2CHNH2C6H4C2H2CHCH4CHSHSCH3CSCH2C2FeS2FeSCH4CH2CHCH2SH4CSCFeC2H2NH2SC2HCSC3NCH2CH4FeCHCH4SHCHFeHC3SHFeSHCHC2FeS2FeSFeSHFeS2FeSFeSH2FeHS3HCH2FeS2CH3C2SFeC9H7C3HC3SH3C2HNHC2HCH2SH2C3S2HCH3CNH5CHCH7CHCHSH3CNHFeH5SFeH4C6H4CHNC2HC2HCSC3HNFeH3CFeHS2CH2CSHCHCH2C2H4FeHCS2H4NFe2S2Fe2S3HC3HFeS2H3CSCSH3C2NH4NCH2C6H4C4H3CH8CHCHCSHC3HCFeSHFeHSH5Fe2SHSHCHSH6SCFeHCH2FeHFeSCFeHSFeS2FeS2FeSFeSC2SFeS2H2S2H3CH2SH2S2HCH6CHC6H4FeH3CHC4HSH2S2C7H2NCH2SNSCH3NH4CH2CSHCHC2H3C2SFeC2H5CHC2HC3HNCHSHFeH2CHCFeH6FeSC2H2CSHSFeS2FeHFeHFeS2C2HCHCS2HFeSFeS2FeS2FeS2HS2H2C2H2NSHCH2FeHC2HCH4C6H4C4H2C7HCH2SHCFeH6SH2CFeH5CFe2C4HS2CH4CHCHCNHCFeNCSH4CSC3HNHFeHFeH2CSC3HSCH5C3SCHCH3NH3CH3CSH2CSH4SFeCFeCHCHCFeSHFeH4C3H4CHS3C3HSHFeCHCH2C2HNH2SHCHC3H2C2H2SCHNSHCHCSCH3CH3FeSCFeSHFeSCSFeSHFeSHFeSFeHSHCSFeS2HS2FeSCSFeSHSFeSFeS2H7FeHC3H4NCHC6H4C4H3C5H3SHC5H2SHC2HCH3CNFe2H2C2HSHNHCH3C3HNC2H7SC2HCH2CHCHSCSCH2CH3CH3CFeH7CH6CH2CNHS2H5C2HCSH2CHFeHCHCSCH5FeS2FeSHFeS2FeS2FeHCHSCH3FeC6H4CHCH2C2H2FeCH2CH5SC2NCH2CH3C2H3CH3CSCHCHNCHCSHCSH3CSH6CHCH3CHNCNCSC2H2S2CSNCHC2FeH2SCHCFeCSHSCHCH2FeH2CH3FeS2FeS2FeSFeS3HCHC2FeSHNC6H4C6H5NC2HCHCH3SHCH2SH3CH5CSC2H2NCSHC2HC2H4CH12FeCH2CHSHCHCH2SH2SFeSFeSC2HSHC6H6CSH4FeC4H3C3FeH6FeCSCHNHCSH5CH3CH2C2HCH3NH5CSHC2FeHS2CNHSHSC6H7SHC2H2SC2H2CHC2HCH2FeSFeHFeS2FeS2FeSFeS5HFeSC6H5C4H4FeC5NH4CH4C2HC2H3CH2CH2SHCNCH3NH3C2H10CHCHCH2CSCNH6CH2CH2CHCH3FeSHFeSHFeSFeSHSHSHCHSHFeH4C6H5CNH2CSHCSC2H2FeNHNC4HCH9CNSH2S2HC3HFeH2SHCH3SH2CHNCH6CH3C3HNCH4CFeHSFeHSHCHS2HNCSC6H5C2H3CHCHCNCHCH2C3H8C3H4C2SCH8CSHCHCHCH5FeS2FeS2FeSFeS3CH4C2SNSHCH3C7H4C6H4C6H4C3HN2H10C2HCH2SHCH2SH2NH7C2HC2HSH3C4H2CH3CH3CH3CH2CFe2H2C2HSFeSHCSC4H2SCHSHCNCFeH4CHFeHCH6CSCSCFeH6CHFeH2S2C3HNC3HCH5CSCHC2H3SFeCNSC2HCSH2CHSH4CH4C2H4NHC2H3FeHSHNH3SFeS2FeS2FeSFeS3HSC6H4C6H3C6H10NHCHCH2C3H2NCH5CHC2H4CH2SFeHCH2SH2C3H2CH2FeSHCH2FeCH2CHCHSHCHCNH6S2CHFe2CSNCH2S2C6H8S2CH2CH2FeC2H6NC
_chemical_formula_sum              "C960 H1536 S384 N96 Fe192"
_cell_length_a       49.0955
_cell_length_b       98.5363
_cell_length_c       52.0832
_cell_angle_alpha    84.6935
_cell_angle_beta     87.5115
_cell_angle_gamma    85.4685

_space_group_name_H-M_alt    "P 1"
_space_group_IT_number       1

loop_
  _space_group_symop_operation_xyz
  'x, y, z'

loop_
  _atom_site_type_symbol
  _atom_site_label
  _atom_site_symmetry_multiplicity
  _atom_site_fract_x
  _atom_site_fract_y
  _atom_site_fract_z
  _atom_site_occupancy
  C   C1        1.0  0.15994  0.04428  0.27696  1.0000
  C   C2        1.0  0.26518  0.00468  0.29507  1.0000
  H   H1        1.0  0.24595  0.02124  0.23793  1.0000
  C   C3        1.0  0.30441  0.00584  0.26407  1.0000
  C   C4        1.0  0.25903  0.01573  0.25217  1.0000
  H   H2        1.0  0.14181  0.05149  0.22932  1.0000
  C   C5        1.0  0.30445  0.08140  0.02266  1.0000
  H   H3        1.0  0.29579  0.08801  0.00601  1.0000
  C   C6        1.0  0.02686  0.00902  0.30079  1.0000
  H   H4        1.0  0.15257  0.05368  0.28624  1.0000
  S   S1        1.0  0.14808  0.99915  0.31422  1.0000
  H   H5        1.0  0.29521  0.01593  0.22670  1.0000
  H   H6        1.0  0.07106  0.00701  0.30216  1.0000
  S   S2        1.0  0.21248  0.01616  0.28419  1.0000
  H   H7        1.0  0.17693  0.04683  0.26292  1.0000
  H   H8        1.0  0.30348  0.08762  0.03952  1.0000
  C   C7        1.0  0.28703  0.01273  0.24572  1.0000
  H   H9        1.0  0.12406  0.02731  0.29940  1.0000
  C   C8        1.0  0.24788  0.01178  0.27690  1.0000
  N   N1        1.0  0.13759  0.03846  0.26445  1.0000
  H   H10       1.0  0.11760  0.05811  0.25283  1.0000
  H   H11       1.0  0.13227  0.02136  0.24269  1.0000
  C   C9        1.0  0.29320  0.00180  0.28870  1.0000
  C   C10       1.0  0.05225  0.01142  0.31056  1.0000
  H   H12       1.0  0.30636  0.99646  0.30309  1.0000
  H   H13       1.0  0.33126  0.05834  0.04398  1.0000
  H   H14       1.0  0.29087  0.07291  0.02734  1.0000
  H   H15       1.0  0.15703  0.01808  0.26723  1.0000
  C   C11       1.0  0.14846  0.02599  0.25252  1.0000
  N   N2        1.0  0.33278  0.07610  0.01666  1.0000
  S   S3        1.0  0.33997  0.00164  0.25733  1.0000
  H   H16       1.0  0.34348  0.07307  0.05660  1.0000
  H   H17       1.0  0.25708  0.00158  0.31417  1.0000
  H   H18       1.0  0.09870  0.03043  0.27550  1.0000
  C   C12       1.0  0.11597  0.03493  0.28401  1.0000
  H   H19       1.0  0.02633  0.00269  0.28493  1.0000
  H   H20       1.0  0.10904  0.04452  0.23464  1.0000
  C   C13       1.0  0.12602  0.04860  0.24439  1.0000
  H   H21       1.0  0.10733  0.04400  0.29373  1.0000
  C   C14       1.0  0.34350  0.06735  0.03916  1.0000
  H   H22       1.0  0.16903  0.03688  0.29225  1.0000
  H   H23       1.0  0.16538  0.02817  0.23817  1.0000
  H   H24       1.0  0.33915  0.01844  0.06507  1.0000
  C   C15       1.0  0.33303  0.06796  0.99421  1.0000
  H   H25       1.0  0.32034  0.05905  0.99810  1.0000
  H   H26       1.0  0.34303  0.09431  0.99319  1.0000
  Fe  Fe1       1.0  0.18639  0.00963  0.32040  1.0000
  Fe  Fe2       1.0  0.15415  0.06480  0.52017  1.0000
  S   S4        1.0  0.14757  0.04578  0.54584  1.0000
  S   S5        1.0  0.15957  0.06524  0.47671  1.0000
  Fe  Fe3       1.0  0.14979  0.08299  0.56574  1.0000
  S   S6        1.0  0.14345  0.06512  0.59485  1.0000
  S   S7        1.0  0.14212  0.10520  0.57449  1.0000
  Fe  Fe4       1.0  0.17631  0.05397  0.57176  1.0000
  S   S8        1.0  0.20837  0.03803  0.58685  1.0000
  Fe  Fe5       1.0  0.11555  0.05852  0.56628  1.0000
  S   S9        1.0  0.07566  0.05039  0.58040  1.0000
  S   S10       1.0  0.18533  0.07238  0.54471  1.0000
  S   S11       1.0  0.11944  0.07706  0.53854  1.0000
  Fe  Fe6       1.0  0.17395  0.00920  0.37902  1.0000
  H   H27       1.0  0.21174  0.14056  0.62557  1.0000
  S   S12       1.0  0.18689  0.01124  0.41974  1.0000
  H   H28       1.0  0.01597  0.10642  0.57275  1.0000
  C   C16       1.0  0.20716  0.22092  0.63726  1.0000
  N   N3        1.0  0.20150  0.15822  0.59919  1.0000
  C   C17       1.0  0.08298  0.99784  0.63524  1.0000
  C   C18       1.0  0.21052  0.23450  0.64136  1.0000
  C   C19       1.0  0.22690  0.15634  0.58322  1.0000
  C   C20       1.0  0.04933  0.05750  0.56054  1.0000
  C   C21       1.0  0.05532  0.06333  0.53562  1.0000
  H   H29       1.0  0.21028  0.17815  0.60886  1.0000
  H   H30       1.0  0.07595  0.06240  0.52760  1.0000
  C   C22       1.0  0.02883  0.09773  0.58223  1.0000
  C   C23       1.0  0.15243  0.11102  0.60341  1.0000
  C   C24       1.0  0.14146  0.12377  0.61070  1.0000
  C   C25       1.0  0.06247  0.11268  0.59331  1.0000
  H   H31       1.0  0.05059  0.12186  0.58435  1.0000
  C   C26       1.0  0.05320  0.01997  0.33047  1.0000
  C   C27       1.0  0.17202  0.10348  0.61867  1.0000
  H   H32       1.0  0.12621  0.12965  0.59905  1.0000
  H   H33       1.0  0.08447  0.11485  0.59210  1.0000
  H   H34       1.0  0.26740  0.05457  0.52563  1.0000
  H   H35       1.0  0.18060  0.09365  0.61326  1.0000
  C   C28       1.0  0.17663  0.02616  0.43513  1.0000
  C   C29       1.0  0.17481  0.02539  0.46221  1.0000
  C   C30       1.0  0.16829  0.03722  0.47513  1.0000
  C   C31       1.0  0.16446  0.04998  0.46109  1.0000
  C   C32       1.0  0.16606  0.05073  0.43402  1.0000
  C   C33       1.0  0.17180  0.03885  0.42105  1.0000
  H   H36       1.0  0.17832  0.01560  0.47321  1.0000
  H   H37       1.0  0.16667  0.03648  0.49591  1.0000
  H   H38       1.0  0.16309  0.06056  0.42301  1.0000
  H   H39       1.0  0.17328  0.03957  0.40019  1.0000
  H   H40       1.0  0.02139  0.09609  0.60268  1.0000
  C   C34       1.0  0.19938  0.01294  0.61205  1.0000
  C   C35       1.0  0.19332  0.02712  0.61108  1.0000
  C   C36       1.0  0.17468  0.03255  0.62918  1.0000
  H   H41       1.0  0.21373  0.00869  0.59803  1.0000
  C   C37       1.0  0.06698  0.10240  0.55286  1.0000
  C   C38       1.0  0.03449  0.07016  0.52073  1.0000
  H   H42       1.0  0.02504  0.08844  0.57261  1.0000
  N   N4        1.0  0.05813  0.10033  0.58035  1.0000
  H   H43       1.0  0.07207  0.07907  0.58333  1.0000
  H   H44       1.0  0.06394  0.09327  0.54250  1.0000
  C   C39       1.0  0.05646  0.01461  0.60798  1.0000
  H   H45       1.0  0.23462  0.05338  0.54197  1.0000
  H   H46       1.0  0.08906  0.10431  0.55068  1.0000
  H   H47       1.0  0.10595  0.02318  0.59285  1.0000
  H   H48       1.0  0.17557  0.15625  0.56765  1.0000
  H   H49       1.0  0.20347  0.03640  0.53025  1.0000
  H   H50       1.0  0.08395  0.03245  0.63128  1.0000
  H   H51       1.0  0.21136  0.05634  0.50005  1.0000
  C   C40       1.0  0.18629  0.00421  0.63072  1.0000
  C   C41       1.0  0.17046  0.12167  0.64773  1.0000
  H   H52       1.0  0.23312  0.14529  0.58199  1.0000
  H   H53       1.0  0.24413  0.16101  0.59145  1.0000
  H   H54       1.0  0.01750  0.05350  0.58942  1.0000
  H   H55       1.0  0.23002  0.02327  0.53694  1.0000
  N   N5        1.0  0.24205  0.04032  0.51119  1.0000
  H   H56       1.0  0.17033  0.04348  0.62889  1.0000
  H   H57       1.0  0.06786  0.08641  0.61361  1.0000
  H   H58       1.0  0.12553  0.01060  0.61297  1.0000
  H   H59       1.0  0.22430  0.16115  0.56319  1.0000
  H   H60       1.0  0.24405  0.05808  0.48391  1.0000
  C   C42       1.0  0.18112  0.10885  0.64063  1.0000
  S   S13       1.0  0.16381  0.02470  0.34572  1.0000
  H   H61       1.0  0.27528  0.02475  0.51323  1.0000
  C   C43       1.0  0.22159  0.03081  0.52148  1.0000
  H   H62       1.0  0.18397  0.14059  0.58722  1.0000
  H   H63       1.0  0.02903  0.03247  0.35613  1.0000
  H   H64       1.0  0.22503  0.24014  0.62926  1.0000
  H   H65       1.0  0.15965  0.15329  0.59913  1.0000
  N   N6        1.0  0.08225  0.01176  0.62180  1.0000
  C   C44       1.0  0.17922  0.15182  0.58774  1.0000
  C   C45       1.0  0.10576  0.01274  0.60315  1.0000
  H   H66       1.0  0.09649  0.09016  0.59231  1.0000
  C   C46       1.0  0.07431  0.08848  0.59298  1.0000
  C   C47       1.0  0.22947  0.05051  0.49172  1.0000
  H   H67       1.0  0.21905  0.21623  0.62200  1.0000
  C   C48       1.0  0.26537  0.03255  0.49905  1.0000
  H   H68       1.0  0.25865  0.02712  0.48286  1.0000
  H   H69       1.0  0.28120  0.03942  0.49104  1.0000
  C   C49       1.0  0.02228  0.05803  0.57018  1.0000
  H   H70       1.0  0.14157  0.13881  0.63850  1.0000
  C   C50       1.0  0.02850  0.02572  0.34094  1.0000
  H   H71       1.0  0.05468  0.00726  0.59327  1.0000
  H   H72       1.0  0.21422  0.02505  0.50609  1.0000
  C   C51       1.0  0.25175  0.04738  0.53252  1.0000
  H   H73       1.0  0.22230  0.04559  0.47509  1.0000
  H   H74       1.0  0.26075  0.03998  0.54791  1.0000
  C   C52       1.0  0.08385  0.02185  0.64087  1.0000
  H   H75       1.0  0.05622  0.11144  0.61415  1.0000
  C   C53       1.0  0.20599  0.15173  0.62554  1.0000
  H   H76       1.0  0.03927  0.07476  0.50154  1.0000
  H   H77       1.0  0.05514  0.02506  0.59774  1.0000
  H   H78       1.0  0.22247  0.15636  0.63497  1.0000
  H   H79       1.0  0.03830  0.01395  0.62149  1.0000
  S   S14       1.0  0.18671  0.19611  0.64681  1.0000
  H   H80       1.0  0.18999  0.17826  0.58095  1.0000
  C   C54       1.0  0.15024  0.12903  0.63293  1.0000
  C   C55       1.0  0.19389  0.17297  0.60038  1.0000
  S   S15       1.0  0.08457  0.02477  0.34132  1.0000
  S   S16       1.0  0.13552  0.99858  0.37690  1.0000
  H   H81       1.0  0.05525  0.11129  0.54274  1.0000
  H   H82       1.0  0.18718  0.15287  0.63808  1.0000
  Fe  Fe7       1.0  0.12656  0.01300  0.34198  1.0000
  H   H83       1.0  0.10526  0.00534  0.58832  1.0000
  H   H84       1.0  0.17503  0.17475  0.61271  1.0000
  C   C56       1.0  0.16217  0.02387  0.64820  1.0000
  C   C57       1.0  0.16768  0.00970  0.64883  1.0000
  H   H85       1.0  0.02339  0.21554  0.64225  1.0000
  C   C58       1.0  0.18893  0.21334  0.65287  1.0000
  S   S17       1.0  0.19927  0.99505  0.35419  1.0000
  H   H86       1.0  0.10212  0.99538  0.64596  1.0000
  H   H87       1.0  0.19669  0.10307  0.65207  1.0000
  H   H88       1.0  0.06557  0.99674  0.64953  1.0000
  H   H89       1.0  0.10285  0.01980  0.65197  1.0000
  H   H90       1.0  0.14805  0.02820  0.66233  1.0000
  H   H91       1.0  0.32555  0.07423  0.97667  1.0000
  S   S18       1.0  0.14169  0.16572  0.67098  1.0000
  C   C59       1.0  0.02092  0.22445  0.69000  1.0000
  S   S19       1.0  0.15855  0.18414  0.71733  1.0000
  H   H92       1.0  0.20091  0.21953  0.75239  1.0000
  S   S20       1.0  0.15609  0.15115  0.72940  1.0000
  Fe  Fe8       1.0  0.12814  0.16861  0.71209  1.0000
  S   S21       1.0  0.08362  0.17490  0.72283  1.0000
  Fe  Fe9       1.0  0.18801  0.16639  0.73049  1.0000
  S   S22       1.0  0.21558  0.16776  0.76445  1.0000
  N   N7        1.0  0.01637  0.21061  0.68301  1.0000
  H   H93       1.0  0.15893  0.21388  0.68433  1.0000
  C   C60       1.0  0.02846  0.17200  0.72379  1.0000
  C   C61       1.0  0.05450  0.16621  0.71678  1.0000
  C   C62       1.0  0.05649  0.15392  0.70507  1.0000
  C   C63       1.0  0.03261  0.14749  0.70065  1.0000
  H   H94       1.0  0.03939  0.19124  0.68027  1.0000
  H   H95       1.0  0.07640  0.14928  0.69977  1.0000
  H   H96       1.0  0.23884  0.22927  0.72594  1.0000
  C   C64       1.0  0.30945  0.16943  0.76331  1.0000
  C   C65       1.0  0.29381  0.16994  0.78636  1.0000
  C   C66       1.0  0.26525  0.16906  0.78643  1.0000
  C   C67       1.0  0.25191  0.16768  0.76354  1.0000
  C   C68       1.0  0.26759  0.16706  0.74052  1.0000
  C   C69       1.0  0.29614  0.16797  0.74044  1.0000
  H   H97       1.0  0.30365  0.17115  0.80412  1.0000
  H   H98       1.0  0.25334  0.16963  0.80434  1.0000
  H   H99       1.0  0.25773  0.16594  0.72275  1.0000
  H   H100      1.0  0.30802  0.16754  0.72250  1.0000
  C   C70       1.0  0.31637  0.23930  0.84013  1.0000
  H   H101      1.0  0.32887  0.11003  0.81194  1.0000
  H   H102      1.0  0.24982  0.21239  0.76314  1.0000
  N   N8        1.0  0.23001  0.20810  0.72906  1.0000
  H   H103      1.0  0.21683  0.19972  0.69537  1.0000
  H   H104      1.0  0.22255  0.18754  0.72255  1.0000
  H   H105      1.0  0.22905  0.01004  0.71413  1.0000
  H   H106      1.0  0.22710  0.22350  0.69707  1.0000
  H   H107      1.0  0.31532  0.13405  0.82080  1.0000
  H   H108      1.0  0.25112  0.19412  0.70420  1.0000
  C   C71       1.0  0.17347  0.21961  0.67248  1.0000
  C   C72       1.0  0.24818  0.20391  0.75076  1.0000
  C   C73       1.0  0.20188  0.21115  0.73938  1.0000
  H   H109      1.0  0.19391  0.20199  0.75057  1.0000
  H   H110      1.0  0.18755  0.21435  0.72363  1.0000
  H   H111      1.0  0.03434  0.13786  0.69207  1.0000
  Fe  Fe10      1.0  0.17144  0.14924  0.68835  1.0000
  C   C74       1.0  0.23019  0.19689  0.71203  1.0000
  H   H112      1.0  0.30437  0.23167  0.83208  1.0000
  C   C75       1.0  0.17661  0.23343  0.67644  1.0000
  H   H113      1.0  0.02676  0.18125  0.73354  1.0000
  C   C76       1.0  0.23976  0.22039  0.71412  1.0000
  Fe  Fe11      1.0  0.17355  0.18010  0.67754  1.0000
  S   S23       1.0  0.15031  0.99919  0.67206  1.0000
  H   H114      1.0  0.06622  0.02161  0.65503  1.0000
  H   H115      1.0  0.02763  0.22418  0.71021  1.0000
  H   H116      1.0  0.30352  0.12615  0.77954  1.0000
  H   H117      1.0  0.16475  0.23829  0.69152  1.0000
  H   H118      1.0  0.24025  0.19524  0.76337  1.0000
  H   H119      1.0  0.26123  0.21852  0.70676  1.0000
  C   C77       1.0  0.19540  0.24086  0.66088  1.0000
  H   H120      1.0  0.26918  0.20049  0.74385  1.0000
  H   H121      1.0  0.20433  0.01061  0.74066  1.0000
  H   H122      1.0  0.33285  0.14765  0.80387  1.0000
  S   S24       1.0  0.20491  0.16338  0.69070  1.0000
  H   H123      1.0  0.19341  0.00907  0.70863  1.0000
  H   H124      1.0  0.32080  0.13978  0.76237  1.0000
  H   H125      1.0  0.33725  0.23436  0.84328  1.0000
  C   C78       1.0  0.20992  0.00580  0.72247  1.0000
  S   S25       1.0  0.18415  0.12842  0.67428  1.0000
  C   C79       1.0  0.04206  0.20176  0.68546  1.0000
  H   H126      1.0  0.04930  0.20074  0.70558  1.0000
  H   H127      1.0  0.05883  0.20586  0.67271  1.0000
  C   C80       1.0  0.33533  0.13676  0.81175  1.0000
  H   H128      1.0  0.03696  0.22921  0.67720  1.0000
  C   C81       1.0  0.32377  0.12905  0.77130  1.0000
  H   H129      1.0  0.30722  0.24128  0.85950  1.0000
  H   H130      1.0  0.32989  0.12244  0.75553  1.0000
  H   H131      1.0  0.32035  0.24156  0.78819  1.0000
  H   H132      1.0  0.34297  0.21279  0.91237  1.0000
  H   H133      1.0  0.20758  0.42127  0.27842  1.0000
  H   H134      1.0  0.28248  0.41408  0.28101  1.0000
  S   S26       1.0  0.16664  0.47051  0.30754  1.0000
  S   S27       1.0  0.22475  0.45182  0.26292  1.0000
  H   H135      1.0  0.23776  0.43212  0.30528  1.0000
  H   H136      1.0  0.24855  0.38909  0.29956  1.0000
  Fe  Fe12      1.0  0.19992  0.45357  0.30137  1.0000
  C   C82       1.0  0.28068  0.44756  0.27308  1.0000
  H   H137      1.0  0.25393  0.45312  0.21372  1.0000
  C   C83       1.0  0.03174  0.46030  0.28984  1.0000
  C   C84       1.0  0.05858  0.45891  0.29912  1.0000
  H   H138      1.0  0.07559  0.46200  0.28662  1.0000
  C   C85       1.0  0.21400  0.41121  0.28893  1.0000
  H   H139      1.0  0.27477  0.44709  0.29336  1.0000
  H   H140      1.0  0.21198  0.40321  0.27555  1.0000
  H   H141      1.0  0.32362  0.44257  0.27993  1.0000
  H   H142      1.0  0.30297  0.44933  0.20031  1.0000
  C   C86       1.0  0.26063  0.45035  0.25456  1.0000
  C   C87       1.0  0.26913  0.45108  0.22830  1.0000
  C   C88       1.0  0.29703  0.44892  0.22060  1.0000
  C   C89       1.0  0.31695  0.44570  0.23909  1.0000
  C   C90       1.0  0.30849  0.44503  0.26538  1.0000
  H   H143      1.0  0.32879  0.47171  0.20763  1.0000
  C   C91       1.0  0.24988  0.39763  0.31192  1.0000
  H   H144      1.0  0.02837  0.46447  0.27018  1.0000
  C   C92       1.0  0.24392  0.42193  0.31514  1.0000
  H   H145      1.0  0.25490  0.42290  0.26328  1.0000
  C   C93       1.0  0.26116  0.41327  0.27516  1.0000
  H   H146      1.0  0.26147  0.40485  0.26229  1.0000
  C   C94       1.0  0.32922  0.48303  0.20607  1.0000
  N   N9        1.0  0.33637  0.48787  0.23076  1.0000
  N   N10       1.0  0.24226  0.41100  0.29778  1.0000
  H   H147      1.0  0.29457  0.48939  0.24519  1.0000
  S   S28       1.0  0.17389  0.43710  0.32030  1.0000
  H   H148      1.0  0.19914  0.40947  0.30546  1.0000
  H   H149      1.0  0.27119  0.39715  0.31866  1.0000
  C   C95       1.0  0.31498  0.48452  0.25070  1.0000
  H   H150      1.0  0.30879  0.48751  0.19984  1.0000
  H   H151      1.0  0.31304  0.47331  0.25361  1.0000
  H   H152      1.0  0.31969  0.48797  0.26965  1.0000
  C   C96       1.0  0.16289  0.33495  0.64775  1.0000
  S   S29       1.0  0.16073  0.45687  0.36736  1.0000
  H   H153      1.0  0.23051  0.46100  0.42050  1.0000
  Fe  Fe13      1.0  0.19314  0.44095  0.35703  1.0000
  S   S30       1.0  0.21254  0.42533  0.38670  1.0000
  H   H154      1.0  0.20564  0.34379  0.49269  1.0000
  Fe  Fe14      1.0  0.17177  0.38366  0.57065  1.0000
  S   S31       1.0  0.15733  0.39824  0.59994  1.0000
  S   S32       1.0  0.19338  0.36249  0.57804  1.0000
  Fe  Fe15      1.0  0.14939  0.40259  0.52528  1.0000
  S   S33       1.0  0.13271  0.41875  0.55064  1.0000
  S   S34       1.0  0.13907  0.40389  0.48306  1.0000
  Fe  Fe16      1.0  0.17227  0.41455  0.57089  1.0000
  S   S35       1.0  0.19466  0.43223  0.58151  1.0000
  Fe  Fe17      1.0  0.11886  0.40140  0.57759  1.0000
  S   S36       1.0  0.07761  0.40317  0.59796  1.0000
  S   S37       1.0  0.19044  0.39979  0.54317  1.0000
  S   S38       1.0  0.13194  0.38547  0.55076  1.0000
  C   C97       1.0  0.05052  0.39991  0.57911  1.0000
  C   C98       1.0  0.05539  0.39572  0.55427  1.0000
  H   H155      1.0  0.15152  0.45506  0.45591  1.0000
  H   H156      1.0  0.07597  0.39483  0.54616  1.0000
  C   C99       1.0  0.17446  0.48471  0.59129  1.0000
  C   C100      1.0  0.18163  0.35201  0.60506  1.0000
  C   C101      1.0  0.19444  0.33888  0.61097  1.0000
  C   C102      1.0  0.18512  0.33035  0.63228  1.0000
  C   C103      1.0  0.13155  0.47412  0.59582  1.0000
  Fe  Fe18      1.0  0.18676  0.47177  0.34515  1.0000
  C   C104      1.0  0.15949  0.35657  0.62060  1.0000
  H   H157      1.0  0.21157  0.33528  0.59900  1.0000
  C   C105      1.0  0.14164  0.44218  0.63983  1.0000
  H   H158      1.0  0.14946  0.36665  0.61628  1.0000
  C   C106      1.0  0.19202  0.41995  0.41386  1.0000
  C   C107      1.0  0.20440  0.41471  0.43691  1.0000
  C   C108      1.0  0.18838  0.41026  0.45873  1.0000
  C   C109      1.0  0.15992  0.41068  0.45731  1.0000
  C   C110      1.0  0.14763  0.41591  0.43425  1.0000
  C   C111      1.0  0.16355  0.42072  0.41273  1.0000
  H   H159      1.0  0.22644  0.41406  0.43789  1.0000
  H   H160      1.0  0.19805  0.40616  0.47635  1.0000
  H   H161      1.0  0.12564  0.41618  0.43297  1.0000
  H   H162      1.0  0.15379  0.42468  0.39506  1.0000
  H   H163      1.0  0.17569  0.44064  0.45265  1.0000
  H   H164      1.0  0.11093  0.47358  0.58814  1.0000
  C   C112      1.0  0.15443  0.43558  0.61926  1.0000
  C   C113      1.0  0.17951  0.43961  0.60867  1.0000
  C   C114      1.0  0.19195  0.45011  0.61904  1.0000
  H   H165      1.0  0.04418  0.44514  0.35987  1.0000
  H   H166      1.0  0.21940  0.46831  0.46430  1.0000
  H   H167      1.0  0.14463  0.42752  0.61141  1.0000
  H   H168      1.0  0.21158  0.45308  0.61120  1.0000
  H   H169      1.0  0.22121  0.44399  0.43103  1.0000
  H   H170      1.0  0.20056  0.37520  0.49321  1.0000
  C   C115      1.0  0.01403  0.45087  0.33105  1.0000
  H   H171      1.0  0.03748  0.38923  0.52082  1.0000
  H   H172      1.0  0.16449  0.47853  0.44141  1.0000
  H   H173      1.0  0.14059  0.48870  0.36742  1.0000
  N   N11       1.0  0.19123  0.46011  0.44043  1.0000
  H   H174      1.0  0.19651  0.35595  0.46596  1.0000
  C   C116      1.0  0.21311  0.45437  0.42327  1.0000
  H   H175      1.0  0.19739  0.48085  0.42570  1.0000
  H   H176      1.0  0.15787  0.37368  0.47124  1.0000
  Fe  Fe19      1.0  0.14230  0.45420  0.32937  1.0000
  N   N12       1.0  0.14806  0.48364  0.57931  1.0000
  C   C117      1.0  0.19264  0.36841  0.50968  1.0000
  C   C118      1.0  0.15318  0.47840  0.55371  1.0000
  C   C119      1.0  0.20237  0.46142  0.46593  1.0000
  H   H177      1.0  0.20551  0.45334  0.40379  1.0000
  C   C120      1.0  0.15058  0.36697  0.48814  1.0000
  C   C121      1.0  0.16297  0.35065  0.52410  1.0000
  H   H178      1.0  0.13584  0.36023  0.48123  1.0000
  H   H179      1.0  0.13898  0.37384  0.50123  1.0000
  H   H180      1.0  0.14863  0.34331  0.51864  1.0000
  H   H181      1.0  0.15187  0.35717  0.53812  1.0000
  H   H182      1.0  0.17438  0.34267  0.47653  1.0000
  C   C122      1.0  0.18817  0.34993  0.48329  1.0000
  H   H183      1.0  0.21036  0.36280  0.51964  1.0000
  H   H184      1.0  0.12214  0.43908  0.64781  1.0000
  H   H185      1.0  0.18232  0.37508  0.52372  1.0000
  N   N13       1.0  0.17356  0.35898  0.50129  1.0000
  C   C123      1.0  0.16869  0.45092  0.44356  1.0000
  H   H186      1.0  0.18638  0.46565  0.47942  1.0000
  S   S39       1.0  0.22099  0.45605  0.33765  1.0000
  S   S40       1.0  0.19918  0.49044  0.36244  1.0000
  C   C124      1.0  0.02365  0.40138  0.58921  1.0000
  H   H187      1.0  0.17197  0.47304  0.40988  1.0000
  C   C125      1.0  0.02458  0.48934  0.34382  1.0000
  C   C126      1.0  0.15022  0.34808  0.64184  1.0000
  C   C127      1.0  0.18082  0.47372  0.42897  1.0000
  H   H188      1.0  0.19497  0.32023  0.63659  1.0000
  H   H189      1.0  0.17987  0.34474  0.53482  1.0000
  H   H190      1.0  0.18833  0.46515  0.64697  1.0000
  H   H191      1.0  0.16024  0.44938  0.42463  1.0000
  H   H192      1.0  0.13370  0.47754  0.54405  1.0000
  C   C128      1.0  0.03356  0.39264  0.53988  1.0000
  H   H193      1.0  0.01980  0.40470  0.60836  1.0000
  C   C129      1.0  0.04081  0.44947  0.34031  1.0000
  H   H194      1.0  0.21048  0.45130  0.47503  1.0000
  H   H195      1.0  0.16587  0.48527  0.54088  1.0000
  H   H196      1.0  0.23615  0.39572  0.32928  1.0000
  S   S41       1.0  0.09648  0.45153  0.33774  1.0000
  C   C130      1.0  0.17883  0.45693  0.63927  1.0000
  H   H197      1.0  0.17145  0.48765  0.61143  1.0000
  H   H198      1.0  0.14156  0.46358  0.59719  1.0000
  H   H199      1.0  0.18658  0.49259  0.58042  1.0000
  H   H200      1.0  0.12871  0.47720  0.61587  1.0000
  H   H201      1.0  0.16426  0.46804  0.55543  1.0000
  H   H202      1.0  0.13309  0.35176  0.65374  1.0000
  C   C131      1.0  0.15353  0.45303  0.64956  1.0000
  H   H203      1.0  0.02947  0.47953  0.33494  1.0000
  H   H204      1.0  0.23020  0.42043  0.33262  1.0000
  H   H205      1.0  0.03983  0.48987  0.35883  1.0000
  C   C132      1.0  0.06331  0.45345  0.32446  1.0000
  H   H206      1.0  0.18723  0.47488  0.59205  1.0000
  H   H207      1.0  0.01217  0.44959  0.64710  1.0000
  H   H208      1.0  0.26504  0.42232  0.32185  1.0000
  C   C133      1.0  0.07041  0.33241  0.68495  1.0000
  Fe  Fe20      1.0  0.14457  0.48368  0.67689  1.0000
  H   H209      1.0  0.23574  0.33858  0.67509  1.0000
  H   H210      1.0  0.23381  0.34927  0.70125  1.0000
  C   C134      1.0  0.21095  0.32575  0.71606  1.0000
  Fe  Fe21      1.0  0.18223  0.27291  0.69153  1.0000
  S   S42       1.0  0.17600  0.26900  0.73460  1.0000
  S   S43       1.0  0.13562  0.46187  0.67364  1.0000
  Fe  Fe22      1.0  0.16441  0.30330  0.69040  1.0000
  S   S44       1.0  0.15755  0.30129  0.73330  1.0000
  H   H211      1.0  0.20209  0.32376  0.69759  1.0000
  Fe  Fe23      1.0  0.19735  0.28841  0.73569  1.0000
  S   S45       1.0  0.22623  0.29362  0.76618  1.0000
  Fe  Fe24      1.0  0.13674  0.28236  0.72806  1.0000
  S   S46       1.0  0.09558  0.28181  0.75006  1.0000
  S   S47       1.0  0.20561  0.29171  0.69299  1.0000
  S   S48       1.0  0.14170  0.28489  0.68490  1.0000
  H   H212      1.0  0.28882  0.26734  0.80470  1.0000
  C   C135      1.0  0.01258  0.27393  0.71833  1.0000
  H   H213      1.0  0.05731  0.33203  0.66818  1.0000
  C   C136      1.0  0.06394  0.27869  0.73729  1.0000
  C   C137      1.0  0.03945  0.28229  0.75092  1.0000
  C   C138      1.0  0.06262  0.27280  0.71400  1.0000
  H   H214      1.0  0.04027  0.28675  0.76906  1.0000
  H   H215      1.0  0.08129  0.26986  0.70343  1.0000
  C   C139      1.0  0.32024  0.28810  0.77117  1.0000
  C   C140      1.0  0.30735  0.28352  0.75029  1.0000
  C   C141      1.0  0.27864  0.28493  0.74859  1.0000
  C   C142      1.0  0.26245  0.29113  0.76765  1.0000
  C   C143      1.0  0.27533  0.29576  0.78848  1.0000
  C   C144      1.0  0.30404  0.29421  0.79032  1.0000
  H   H216      1.0  0.31969  0.27879  0.73535  1.0000
  H   H217      1.0  0.26908  0.28127  0.73249  1.0000
  H   H218      1.0  0.26303  0.30059  0.80333  1.0000
  H   H219      1.0  0.31362  0.29787  0.80643  1.0000
  H   H220      1.0  0.06246  0.34127  0.69559  1.0000
  N   N14       1.0  0.24044  0.32775  0.71264  1.0000
  H   H221      1.0  0.11011  0.32223  0.71677  1.0000
  H   H222      1.0  0.25163  0.30618  0.71571  1.0000
  H   H223      1.0  0.04295  0.30739  0.72487  1.0000
  C   C145      1.0  0.03709  0.27026  0.70480  1.0000
  H   H224      1.0  0.27677  0.25058  0.80927  1.0000
  C   C146      1.0  0.25150  0.32986  0.73781  1.0000
  H   H225      1.0  0.20723  0.31690  0.73033  1.0000
  H   H226      1.0  0.03632  0.26532  0.68717  1.0000
  H   H227      1.0  0.10228  0.30990  0.67802  1.0000
  H   H228      1.0  0.24746  0.31373  0.68331  1.0000
  C   C147      1.0  0.08172  0.30808  0.68688  1.0000
  H   H229      1.0  0.29155  0.48514  0.93451  1.0000
  H   H230      1.0  0.33173  0.45665  0.90493  1.0000
  S   S49       1.0  0.13213  0.49343  0.71317  1.0000
  H   H231      1.0  0.29786  0.46355  0.91324  1.0000
  H   H232      1.0  0.33225  0.25846  0.78455  1.0000
  S   S50       1.0  0.18465  0.49326  0.67226  1.0000
  H   H233      1.0  0.08389  0.29831  0.69937  1.0000
  H   H234      1.0  0.08135  0.32889  0.73546  1.0000
  C   C148      1.0  0.08882  0.32042  0.72367  1.0000
  H   H235      1.0  0.19918  0.33488  0.72307  1.0000
  H   H236      1.0  0.24872  0.32089  0.75213  1.0000
  S   S51       1.0  0.15001  0.32485  0.67472  1.0000
  H   H237      1.0  0.24103  0.33898  0.74610  1.0000
  C   C149      1.0  0.24432  0.33983  0.69415  1.0000
  N   N15       1.0  0.07097  0.31949  0.70185  1.0000
  H   H238      1.0  0.27734  0.31644  0.70046  1.0000
  C   C150      1.0  0.25488  0.31551  0.70254  1.0000
  H   H239      1.0  0.08987  0.31079  0.73674  1.0000
  H   H240      1.0  0.03413  0.32544  0.72322  1.0000
  H   H241      1.0  0.26637  0.34157  0.69081  1.0000
  H   H242      1.0  0.31773  0.47192  0.88757  1.0000
  N   N16       1.0  0.33040  0.47454  0.92572  1.0000
  H   H243      1.0  0.06808  0.30656  0.67106  1.0000
  S   S52       1.0  0.20244  0.25779  0.66524  1.0000
  H   H244      1.0  0.32281  0.26440  0.85393  1.0000
  C   C151      1.0  0.28894  0.25787  0.81810  1.0000
  H   H245      1.0  0.27380  0.33128  0.73607  1.0000
  H   H246      1.0  0.34073  0.47258  0.96561  1.0000
  C   C152      1.0  0.33227  0.26198  0.83491  1.0000
  H   H247      1.0  0.33322  0.27174  0.82243  1.0000
  C   C153      1.0  0.31272  0.48727  0.92783  1.0000
  C   C154      1.0  0.04301  0.31702  0.71191  1.0000
  N   N17       1.0  0.31714  0.25203  0.82279  1.0000
  H   H248      1.0  0.27807  0.26058  0.83635  1.0000
  C   C155      1.0  0.33112  0.24902  0.79800  1.0000
  H   H249      1.0  0.09132  0.33454  0.67715  1.0000
  C   C156      1.0  0.31885  0.46629  0.90713  1.0000
  C   C157      1.0  0.01387  0.28015  0.74129  1.0000
  C   C158      1.0  0.33192  0.46665  0.95123  1.0000
  H   H250      1.0  0.31135  0.46388  0.95878  1.0000
  H   H251      1.0  0.05555  0.49170  0.70061  1.0000
  H   H252      1.0  0.02900  0.31599  0.69606  1.0000
  H   H253      1.0  0.34315  0.34977  0.89779  1.0000
  C   C159      1.0  0.01132  0.49224  0.70051  1.0000
  H   H254      1.0  0.31147  0.49350  0.90886  1.0000
  H   H255      1.0  0.01099  0.48125  0.70342  1.0000
  H   H256      1.0  0.32090  0.49384  0.94153  1.0000
  H   H257      1.0  0.31083  0.53407  0.01825  1.0000
  H   H258      1.0  0.29495  0.68121  0.26775  1.0000
  Fe  Fe25      1.0  0.10156  0.65795  0.30486  1.0000
  N   N18       1.0  0.30970  0.62193  0.18961  1.0000
  H   H259      1.0  0.27532  0.56448  0.04520  1.0000
  Fe  Fe26      1.0  0.16241  0.66009  0.28582  1.0000
  N   N19       1.0  0.29513  0.55514  0.01283  1.0000
  S   S53       1.0  0.19227  0.65640  0.25175  1.0000
  C   C160      1.0  0.31425  0.62493  0.21632  1.0000
  H   H260      1.0  0.32926  0.63280  0.21674  1.0000
  H   H261      1.0  0.27556  0.69547  0.28034  1.0000
  H   H262      1.0  0.28388  0.54636  0.05088  1.0000
  C   C161      1.0  0.13774  0.73248  0.30432  1.0000
  S   S54       1.0  0.12303  0.67278  0.27712  1.0000
  C   C162      1.0  0.26455  0.70942  0.23494  1.0000
  S   S55       1.0  0.17220  0.67151  0.31933  1.0000
  S   S56       1.0  0.33571  0.53632  0.09014  1.0000
  H   H263      1.0  0.26943  0.71602  0.21703  1.0000
  H   H264      1.0  0.33634  0.54624  0.01534  1.0000
  S   S57       1.0  0.32257  0.65464  0.25078  1.0000
  C   C163      1.0  0.02715  0.66896  0.28320  1.0000
  H   H265      1.0  0.29502  0.62893  0.22605  1.0000
  S   S58       1.0  0.06129  0.64775  0.30593  1.0000
  H   H266      1.0  0.04545  0.67414  0.27777  1.0000
  H   H267      1.0  0.24434  0.70536  0.23254  1.0000
  C   C164      1.0  0.28634  0.65523  0.25070  1.0000
  C   C165      1.0  0.27222  0.65693  0.22774  1.0000
  C   C166      1.0  0.24345  0.65730  0.22844  1.0000
  C   C167      1.0  0.22842  0.65624  0.25207  1.0000
  C   C168      1.0  0.24253  0.65472  0.27505  1.0000
  C   C169      1.0  0.27135  0.65406  0.27433  1.0000
  H   H268      1.0  0.28344  0.65795  0.20945  1.0000
  H   H269      1.0  0.23268  0.65848  0.21058  1.0000
  H   H270      1.0  0.23123  0.65379  0.29336  1.0000
  H   H271      1.0  0.28206  0.65270  0.29223  1.0000
  C   C170      1.0  0.28945  0.61159  0.18996  1.0000
  C   C171      1.0  0.14771  0.74361  0.31495  1.0000
  H   H272      1.0  0.29470  0.69603  0.19935  1.0000
  H   H273      1.0  0.33621  0.62306  0.09739  1.0000
  C   C172      1.0  0.28856  0.68990  0.21742  1.0000
  H   H274      1.0  0.31183  0.70982  0.26028  1.0000
  Fe  Fe27      1.0  0.13191  0.68351  0.31184  1.0000
  H   H275      1.0  0.31826  0.71091  0.22594  1.0000
  C   C173      1.0  0.29928  0.63458  0.17454  1.0000
  H   H276      1.0  0.26956  0.61527  0.19899  1.0000
  S   S59       1.0  0.13998  0.64401  0.31004  1.0000
  C   C174      1.0  0.02924  0.65611  0.29713  1.0000
  H   H277      1.0  0.29675  0.63287  0.15395  1.0000
  H   H278      1.0  0.27921  0.63866  0.18253  1.0000
  H   H279      1.0  0.26895  0.68553  0.21401  1.0000
  H   H280      1.0  0.12758  0.73410  0.28613  1.0000
  H   H281      1.0  0.29668  0.60189  0.20112  1.0000
  H   H282      1.0  0.28548  0.60918  0.17005  1.0000
  H   H283      1.0  0.31003  0.55794  0.05007  1.0000
  C   C175      1.0  0.31626  0.54402  0.00824  1.0000
  N   N20       1.0  0.28604  0.69821  0.23969  1.0000
  C   C176      1.0  0.31248  0.70394  0.24304  1.0000
  H   H284      1.0  0.30434  0.68125  0.22064  1.0000
  S   S60       1.0  0.12248  0.70651  0.30526  1.0000
  C   C177      1.0  0.14002  0.71936  0.31733  1.0000
  H   H285      1.0  0.25940  0.68449  0.26092  1.0000
  H   H286      1.0  0.31373  0.64271  0.17450  1.0000
  H   H287      1.0  0.32235  0.61568  0.22830  1.0000
  H   H288      1.0  0.26224  0.71602  0.25122  1.0000
  C   C178      1.0  0.27863  0.68950  0.26321  1.0000
  H   H289      1.0  0.32936  0.69571  0.24531  1.0000
  S   S61       1.0  0.33380  0.66933  0.17852  1.0000
  H   H290      1.0  0.31881  0.50828  0.22093  1.0000
  C   C179      1.0  0.33579  0.61666  0.17760  1.0000
  C   C180      1.0  0.33839  0.50282  0.22735  1.0000
  H   H291      1.0  0.32536  0.73360  0.18810  1.0000
  H   H292      1.0  0.17921  0.54719  0.31521  1.0000
  H   H293      1.0  0.33034  0.50775  0.10589  1.0000
  H   H294      1.0  0.08334  0.74326  0.30392  1.0000
  C   C181      1.0  0.29080  0.55605  0.04092  1.0000
  H   H295      1.0  0.33322  0.61445  0.15729  1.0000
  H   H296      1.0  0.23799  0.73966  0.30013  1.0000
  H   H297      1.0  0.34372  0.50685  0.24561  1.0000
  H   H298      1.0  0.32350  0.57084  0.00862  1.0000
  H   H299      1.0  0.28866  0.57686  0.00293  1.0000
  C   C182      1.0  0.30424  0.56821  0.00042  1.0000
  H   H300      1.0  0.26200  0.54236  0.01036  1.0000
  C   C183      1.0  0.26929  0.55223  0.00163  1.0000
  H   H301      1.0  0.25282  0.56040  0.00485  1.0000
  C   C184      1.0  0.34417  0.51159  0.11863  1.0000
  Fe  Fe28      1.0  0.11456  0.54387  0.43791  1.0000
  S   S62       1.0  0.15133  0.55067  0.45602  1.0000
  S   S63       1.0  0.10678  0.52353  0.42422  1.0000
  Fe  Fe29      1.0  0.08142  0.57122  0.44224  1.0000
  S   S64       1.0  0.11505  0.58033  0.46079  1.0000
  S   S65       1.0  0.04226  0.58383  0.43291  1.0000
  Fe  Fe30      1.0  0.14231  0.57047  0.43102  1.0000
  S   S66       1.0  0.17121  0.58107  0.40226  1.0000
  Fe  Fe31      1.0  0.12077  0.55996  0.48443  1.0000
  S   S67       1.0  0.11584  0.55908  0.52811  1.0000
  S   S68       1.0  0.10796  0.56275  0.41093  1.0000
  S   S69       1.0  0.08488  0.55169  0.46785  1.0000
  H   H302      1.0  0.06842  0.57394  0.50828  1.0000
  S   S70       1.0  0.17859  0.51703  0.60930  1.0000
  H   H303      1.0  0.19749  0.53562  0.33830  1.0000
  H   H304      1.0  0.10393  0.55070  0.58123  1.0000
  H   H305      1.0  0.10048  0.61099  0.40438  1.0000
  C   C185      1.0  0.05018  0.62199  0.39388  1.0000
  C   C186      1.0  0.16372  0.72847  0.35125  1.0000
  H   H306      1.0  0.17347  0.72690  0.36964  1.0000
  C   C187      1.0  0.18861  0.54635  0.33442  1.0000
  C   C188      1.0  0.04578  0.57575  0.50792  1.0000
  C   C189      1.0  0.04131  0.56853  0.55335  1.0000
  C   C190      1.0  0.08773  0.63304  0.37144  1.0000
  H   H307      1.0  0.03864  0.55475  0.43935  1.0000
  C   C191      1.0  0.16565  0.59903  0.39688  1.0000
  C   C192      1.0  0.15629  0.60693  0.41689  1.0000
  C   C193      1.0  0.15287  0.62126  0.41241  1.0000
  C   C194      1.0  0.15812  0.62777  0.38777  1.0000
  C   C195      1.0  0.16700  0.61985  0.36763  1.0000
  C   C196      1.0  0.17113  0.60554  0.37227  1.0000
  H   H308      1.0  0.15245  0.60206  0.43603  1.0000
  H   H309      1.0  0.14624  0.62732  0.42814  1.0000
  H   H310      1.0  0.17152  0.62478  0.34868  1.0000
  H   H311      1.0  0.17866  0.59953  0.35675  1.0000
  C   C197      1.0  0.13286  0.51420  0.40786  1.0000
  C   C198      1.0  0.12592  0.50387  0.39309  1.0000
  H   H312      1.0  0.20581  0.55314  0.33306  1.0000
  Fe  Fe32      1.0  0.16048  0.51017  0.64880  1.0000
  C   C199      1.0  0.18054  0.50959  0.39504  1.0000
  C   C200      1.0  0.16024  0.51695  0.40909  1.0000
  H   H313      1.0  0.13104  0.54272  0.37239  1.0000
  H   H314      1.0  0.14169  0.56748  0.36401  1.0000
  H   H315      1.0  0.20175  0.51171  0.39601  1.0000
  H   H316      1.0  0.16571  0.52471  0.42093  1.0000
  C   C201      1.0  0.13276  0.54672  0.54989  1.0000
  C   C202      1.0  0.15673  0.53917  0.54267  1.0000
  C   C203      1.0  0.17063  0.53015  0.56113  1.0000
  C   C204      1.0  0.16035  0.52838  0.58674  1.0000
  C   C205      1.0  0.13591  0.53559  0.59374  1.0000
  C   C206      1.0  0.12236  0.54485  0.57544  1.0000
  H   H317      1.0  0.16504  0.54063  0.52311  1.0000
  H   H318      1.0  0.18960  0.52464  0.55562  1.0000
  H   H319      1.0  0.12784  0.53431  0.61341  1.0000
  H   H320      1.0  0.03925  0.61246  0.39742  1.0000
  H   H321      1.0  0.03645  0.57926  0.55808  1.0000
  H   H322      1.0  0.10561  0.63205  0.35765  1.0000
  H   H323      1.0  0.09564  0.63584  0.38981  1.0000
  H   H324      1.0  0.15382  0.52990  0.35893  1.0000
  Fe  Fe33      1.0  0.14698  0.65623  0.34295  1.0000
  H   H325      1.0  0.13432  0.54206  0.33802  1.0000
  C   C207      1.0  0.17347  0.49946  0.37984  1.0000
  S   S71       1.0  0.10775  0.66951  0.33888  1.0000
  C   C208      1.0  0.06348  0.61711  0.35032  1.0000
  C   C209      1.0  0.16019  0.74172  0.33874  1.0000
  C   C210      1.0  0.14590  0.54081  0.35608  1.0000
  H   H326      1.0  0.06165  0.54950  0.52273  1.0000
  C   C211      1.0  0.15711  0.56435  0.34899  1.0000
  H   H327      1.0  0.03152  0.56166  0.56859  1.0000
  H   H328      1.0  0.03978  0.57427  0.48811  1.0000
  N   N21       1.0  0.03211  0.56647  0.52744  1.0000
  H   H329      1.0  0.02775  0.49774  0.32846  1.0000
  H   H330      1.0  0.05356  0.73085  0.33481  1.0000
  H   H331      1.0  0.07400  0.64179  0.36336  1.0000
  H   H332      1.0  0.03277  0.55026  0.50243  1.0000
  H   H333      1.0  0.11075  0.60740  0.37209  1.0000
  H   H334      1.0  0.08269  0.59912  0.38865  1.0000
  C   C212      1.0  0.03920  0.55214  0.52197  1.0000
  H   H335      1.0  0.17341  0.57164  0.34845  1.0000
  H   H336      1.0  0.03514  0.63039  0.38672  1.0000
  H   H337      1.0  0.16684  0.55105  0.39598  1.0000
  N   N22       1.0  0.07353  0.62027  0.37528  1.0000
  H   H338      1.0  0.04054  0.58667  0.51109  1.0000
  H   H339      1.0  0.15536  0.70721  0.35085  1.0000
  S   S72       1.0  0.15356  0.64579  0.38305  1.0000
  N   N23       1.0  0.16831  0.55007  0.35486  1.0000
  C   C213      1.0  0.18173  0.54879  0.37993  1.0000
  S   S73       1.0  0.12141  0.49970  0.65131  1.0000
  C   C214      1.0  0.09271  0.60893  0.38547  1.0000
  C   C215      1.0  0.15360  0.71729  0.34061  1.0000
  H   H340      1.0  0.05709  0.62447  0.41287  1.0000
  C   C216      1.0  0.01471  0.57386  0.44175  1.0000
  H   H341      1.0  0.19145  0.53833  0.38452  1.0000
  H   H342      1.0  0.08043  0.61635  0.33548  1.0000
  H   H343      1.0  0.06388  0.56635  0.55460  1.0000
  H   H344      1.0  0.02905  0.54486  0.53618  1.0000
  H   H345      1.0  0.04829  0.62529  0.34252  1.0000
  C   C217      1.0  0.01930  0.55966  0.44535  1.0000
  H   H346      1.0  0.19790  0.55610  0.38011  1.0000
  H   H347      1.0  0.05339  0.60733  0.35224  1.0000
  H   H348      1.0  0.10474  0.50167  0.39226  1.0000
  C   C218      1.0  0.14616  0.49654  0.37904  1.0000
  H   H349      1.0  0.25741  0.74351  0.32679  1.0000
  H   H350      1.0  0.14706  0.56580  0.33010  1.0000
  C   C219      1.0  0.04521  0.74086  0.34134  1.0000
  C   C220      1.0  0.13314  0.49729  0.57634  1.0000
  H   H351      1.0  0.09910  0.73569  0.34869  1.0000
  H   H352      1.0  0.03744  0.73901  0.36165  1.0000
  H   H353      1.0  0.14477  0.50462  0.56349  1.0000
  H   H354      1.0  0.12993  0.50174  0.59521  1.0000
  H   H355      1.0  0.11275  0.49689  0.56807  1.0000
  H   H356      1.0  0.08331  0.74372  0.37573  1.0000
  H   H357      1.0  0.02745  0.74456  0.32928  1.0000
  S   S74       1.0  0.14923  0.52227  0.68289  1.0000
  Fe  Fe34      1.0  0.11153  0.51021  0.68725  1.0000
  H   H358      1.0  0.27190  0.55156  0.98041  1.0000
  C   C221      1.0  0.27322  0.51610  0.74282  1.0000
  H   H359      1.0  0.30867  0.56768  0.97934  1.0000
  S   S75       1.0  0.31436  0.51680  0.77751  1.0000
  H   H360      1.0  0.07382  0.50487  0.77979  1.0000
  C   C222      1.0  0.23549  0.50496  0.77857  1.0000
  H   H361      1.0  0.11244  0.53401  0.79507  1.0000
  C   C223      1.0  0.12739  0.50937  0.77878  1.0000
  C   C224      1.0  0.24687  0.51370  0.73497  1.0000
  C   C225      1.0  0.03760  0.51238  0.69616  1.0000
  H   H362      1.0  0.08765  0.50450  0.74738  1.0000
  H   H363      1.0  0.08821  0.52207  0.80755  1.0000
  C   C226      1.0  0.22760  0.50822  0.75286  1.0000
  C   C227      1.0  0.08155  0.51134  0.76284  1.0000
  C   C228      1.0  0.09549  0.52806  0.78975  1.0000
  C   C229      1.0  0.28110  0.51283  0.76854  1.0000
  Fe  Fe35      1.0  0.17084  0.50460  0.70686  1.0000
  H   H364      1.0  0.13181  0.53315  0.75013  1.0000
  H   H365      1.0  0.22091  0.50076  0.79268  1.0000
  C   C230      1.0  0.01276  0.52056  0.69442  1.0000
  H   H366      1.0  0.14543  0.51481  0.78328  1.0000
  C   C231      1.0  0.26204  0.50709  0.78631  1.0000
  N   N24       1.0  0.10460  0.51903  0.76942  1.0000
  H   H367      1.0  0.12053  0.52090  0.73053  1.0000
  H   H368      1.0  0.28754  0.52061  0.72883  1.0000
  S   S76       1.0  0.06902  0.52036  0.69634  1.0000
  C   C232      1.0  0.11400  0.52742  0.74623  1.0000
  H   H369      1.0  0.24125  0.51638  0.71519  1.0000
  H   H370      1.0  0.12125  0.50291  0.79639  1.0000
  H   H371      1.0  0.07838  0.53550  0.78321  1.0000
  Fe  Fe36      1.0  0.34132  0.50995  0.81239  1.0000
  H   H372      1.0  0.09740  0.53484  0.73850  1.0000
  H   H373      1.0  0.06416  0.51834  0.75532  1.0000
  S   S77       1.0  0.19306  0.50603  0.74474  1.0000
  H   H374      1.0  0.13476  0.50236  0.76397  1.0000
  H   H375      1.0  0.26752  0.50457  0.80615  1.0000
  H   H376      1.0  0.01313  0.53157  0.69236  1.0000
  C   C233      1.0  0.03671  0.49816  0.69900  1.0000
  H   H377      1.0  0.31930  0.54272  0.98727  1.0000
  S   S78       1.0  0.33098  0.49867  0.85057  1.0000
  H   H378      1.0  0.27222  0.84652  0.23027  1.0000
  C   C234      1.0  0.27370  0.84817  0.20882  1.0000
  S   S79       1.0  0.14641  0.78218  0.29628  1.0000
  S   S80       1.0  0.19861  0.80481  0.26382  1.0000
  C   C235      1.0  0.27863  0.80160  0.28337  1.0000
  H   H379      1.0  0.30667  0.95470  0.26541  1.0000
  H   H380      1.0  0.21142  0.77560  0.28296  1.0000
  C   C236      1.0  0.27690  0.83767  0.16857  1.0000
  H   H381      1.0  0.25556  0.85494  0.20243  1.0000
  Fe  Fe37      1.0  0.16904  0.80093  0.29842  1.0000
  S   S81       1.0  0.32882  0.79663  0.25921  1.0000
  H   H382      1.0  0.23129  0.83411  0.19819  1.0000
  H   H383      1.0  0.26308  0.75668  0.27156  1.0000
  H   H384      1.0  0.24797  0.82588  0.22604  1.0000
  C   C237      1.0  0.02998  0.80900  0.30286  1.0000
  C   C238      1.0  0.24983  0.80327  0.28499  1.0000
  Fe  Fe38      1.0  0.10881  0.79419  0.31042  1.0000
  H   H385      1.0  0.30111  0.81644  0.19738  1.0000
  C   C239      1.0  0.29256  0.79828  0.26033  1.0000
  C   C240      1.0  0.27733  0.79627  0.23909  1.0000
  C   C241      1.0  0.24853  0.79784  0.24079  1.0000
  C   C242      1.0  0.23464  0.80151  0.26361  1.0000
  H   H386      1.0  0.28774  0.79344  0.22142  1.0000
  H   H387      1.0  0.23689  0.79634  0.22423  1.0000
  H   H388      1.0  0.23944  0.80629  0.30255  1.0000
  H   H389      1.0  0.28219  0.97482  0.22214  1.0000
  H   H390      1.0  0.29478  0.84358  0.16216  1.0000
  H   H391      1.0  0.31859  0.83144  0.20034  1.0000
  N   N25       1.0  0.23811  0.76107  0.30521  1.0000
  S   S82       1.0  0.06930  0.78761  0.29570  1.0000
  H   H392      1.0  0.33479  0.85926  0.12629  1.0000
  H   H393      1.0  0.30794  0.95897  0.19356  1.0000
  H   H394      1.0  0.29225  0.85376  0.20346  1.0000
  C   C243      1.0  0.30191  0.97653  0.23060  1.0000
  H   H395      1.0  0.27953  0.82795  0.15905  1.0000
  C   C244      1.0  0.23870  0.74659  0.31572  1.0000
  H   H396      1.0  0.34224  0.95243  0.20109  1.0000
  C   C245      1.0  0.07577  0.75304  0.31176  1.0000
  N   N26       1.0  0.27503  0.83505  0.19700  1.0000
  H   H397      1.0  0.25831  0.84361  0.16094  1.0000
  H   H398      1.0  0.29743  0.97909  0.25082  1.0000
  H   H399      1.0  0.29879  0.82418  0.22732  1.0000
  C   C246      1.0  0.25013  0.82795  0.20467  1.0000
  H   H400      1.0  0.29022  0.80315  0.29992  1.0000
  N   N27       1.0  0.32177  0.96448  0.22964  1.0000
  H   H401      1.0  0.05908  0.75781  0.29934  1.0000
  H   H402      1.0  0.14509  0.75365  0.30492  1.0000
  C   C247      1.0  0.29941  0.82642  0.20595  1.0000
  H   H403      1.0  0.29103  0.95012  0.23719  1.0000
  H   H404      1.0  0.34300  0.96485  0.11068  1.0000
  H   H405      1.0  0.01760  0.77662  0.29199  1.0000
  H   H406      1.0  0.30999  0.98577  0.21987  1.0000
  C   C248      1.0  0.31067  0.95262  0.24486  1.0000
  H   H407      1.0  0.26224  0.77400  0.27946  1.0000
  H   H408      1.0  0.25054  0.81796  0.19621  1.0000
  C   C249      1.0  0.26237  0.76321  0.28792  1.0000
  S   S83       1.0  0.13018  0.81373  0.30863  1.0000
  C   C250      1.0  0.03550  0.79521  0.29875  1.0000
  H   H409      1.0  0.32523  0.94338  0.24454  1.0000
  C   C251      1.0  0.21305  0.76463  0.29054  1.0000
  H   H410      1.0  0.21242  0.75843  0.27382  1.0000
  C   C252      1.0  0.32694  0.96134  0.20256  1.0000
  C   C253      1.0  0.01357  0.78722  0.29566  1.0000
  H   H411      1.0  0.09269  0.76000  0.30942  1.0000
  H   H412      1.0  0.04671  0.81529  0.30490  1.0000
  H   H413      1.0  0.19445  0.76280  0.30291  1.0000
  H   H414      1.0  0.28172  0.76091  0.29840  1.0000
  H   H415      1.0  0.33536  0.97010  0.19062  1.0000
  H   H416      1.0  0.23723  0.78088  0.31953  1.0000
  Fe  Fe39      1.0  0.15616  0.77729  0.33766  1.0000
  C   C254      1.0  0.19911  0.85669  0.47790  1.0000
  Fe  Fe40      1.0  0.14096  0.80700  0.34991  1.0000
  H   H417      1.0  0.14206  0.97116  0.43383  1.0000
  S   S84       1.0  0.13021  0.81884  0.38515  1.0000
  H   H418      1.0  0.03019  0.85166  0.39599  1.0000
  C   C255      1.0  0.18572  0.95309  0.43127  1.0000
  H   H419      1.0  0.16647  0.94839  0.43810  1.0000
  S   S85       1.0  0.11750  0.78811  0.35190  1.0000
  H   H420      1.0  0.24264  0.84906  0.50683  1.0000
  Fe  Fe41      1.0  0.13594  0.89564  0.50340  1.0000
  S   S86       1.0  0.09316  0.90499  0.49848  1.0000
  S   S87       1.0  0.15862  0.89417  0.54067  1.0000
  Fe  Fe42      1.0  0.14027  0.88585  0.44927  1.0000
  S   S88       1.0  0.09830  0.89484  0.43929  1.0000
  S   S89       1.0  0.16760  0.87439  0.42103  1.0000
  Fe  Fe43      1.0  0.10882  0.91289  0.45916  1.0000
  S   S90       1.0  0.09477  0.93455  0.44586  1.0000
  Fe  Fe44      1.0  0.08599  0.88629  0.47911  1.0000
  S   S91       1.0  0.04887  0.87435  0.48617  1.0000
  S   S92       1.0  0.15235  0.90494  0.46536  1.0000
  S   S93       1.0  0.12716  0.87595  0.48773  1.0000
  H   H421      1.0  0.07985  0.84979  0.42834  1.0000
  S   S94       1.0  0.16186  0.96257  0.35236  1.0000
  H   H422      1.0  0.04748  0.76276  0.36862  1.0000
  C   C256      1.0  0.09190  0.93946  0.61959  1.0000
  C   C257      1.0  0.04429  0.87734  0.39850  1.0000
  C   C258      1.0  0.09432  0.91848  0.59885  1.0000
  H   H423      1.0  0.11401  0.92095  0.58883  1.0000
  H   H424      1.0  0.24795  0.86578  0.51597  1.0000
  C   C259      1.0  0.02203  0.88166  0.46726  1.0000
  H   H425      1.0  0.17699  0.85952  0.47507  1.0000
  H   H426      1.0  0.17251  0.86431  0.52123  1.0000
  C   C260      1.0  0.11167  0.94174  0.41815  1.0000
  C   C261      1.0  0.13265  0.93426  0.40542  1.0000
  C   C262      1.0  0.14716  0.94058  0.38438  1.0000
  C   C263      1.0  0.14092  0.95440  0.37624  1.0000
  C   C264      1.0  0.11918  0.96168  0.38831  1.0000
  C   C265      1.0  0.10464  0.95537  0.40929  1.0000
  H   H427      1.0  0.13797  0.92369  0.41202  1.0000
  H   H428      1.0  0.16379  0.93487  0.37488  1.0000
  H   H429      1.0  0.11376  0.97221  0.38171  1.0000
  H   H430      1.0  0.08822  0.96112  0.41897  1.0000
  C   C266      1.0  0.16107  0.90930  0.55603  1.0000
  C   C267      1.0  0.17092  0.90847  0.58113  1.0000
  C   C268      1.0  0.16649  0.93326  0.58088  1.0000
  C   C269      1.0  0.15668  0.93407  0.55579  1.0000
  C   C270      1.0  0.15369  0.92216  0.54351  1.0000
  H   H431      1.0  0.17682  0.89857  0.59090  1.0000
  H   H432      1.0  0.15139  0.94398  0.54576  1.0000
  H   H433      1.0  0.14613  0.92294  0.52418  1.0000
  H   H434      1.0  0.20200  0.86713  0.53822  1.0000
  S   S95       1.0  0.17063  0.75580  0.35356  1.0000
  H   H435      1.0  0.06365  0.84445  0.38695  1.0000
  C   C271      1.0  0.14228  0.83398  0.39483  1.0000
  C   C272      1.0  0.13281  0.83837  0.41877  1.0000
  C   C273      1.0  0.14023  0.85077  0.42685  1.0000
  C   C274      1.0  0.15774  0.85880  0.41124  1.0000
  C   C275      1.0  0.16784  0.85426  0.38757  1.0000
  C   C276      1.0  0.15995  0.84196  0.37925  1.0000
  H   H436      1.0  0.11945  0.83214  0.43107  1.0000
  H   H437      1.0  0.13255  0.85404  0.44523  1.0000
  H   H438      1.0  0.18152  0.86038  0.37543  1.0000
  H   H439      1.0  0.16742  0.83869  0.36079  1.0000
  H   H440      1.0  0.11179  0.94233  0.61034  1.0000
  H   H441      1.0  0.08648  0.87203  0.36612  1.0000
  H   H442      1.0  0.18168  0.91966  0.61266  1.0000
  C   C277      1.0  0.17352  0.92040  0.59356  1.0000
  C   C278      1.0  0.19476  0.86130  0.52280  1.0000
  H   H443      1.0  0.19700  0.85023  0.52947  1.0000
  H   H444      1.0  0.25700  0.76762  0.33804  1.0000
  H   H445      1.0  0.06991  0.77176  0.34610  1.0000
  N   N28       1.0  0.20984  0.86432  0.49797  1.0000
  H   H446      1.0  0.20968  0.85893  0.45877  1.0000
  C   C279      1.0  0.20632  0.87913  0.49021  1.0000
  S   S96       1.0  0.18098  0.79543  0.33955  1.0000
  H   H447      1.0  0.02568  0.96756  0.33737  1.0000
  C   C280      1.0  0.21078  0.97334  0.42763  1.0000
  H   H448      1.0  0.25114  0.86240  0.48258  1.0000
  C   C281      1.0  0.06710  0.85963  0.42675  1.0000
  H   H449      1.0  0.22932  0.96743  0.43540  1.0000
  H   H450      1.0  0.18439  0.88256  0.48851  1.0000
  H   H451      1.0  0.07771  0.92248  0.58569  1.0000
  H   H452      1.0  0.20150  0.84546  0.48295  1.0000
  H   H453      1.0  0.21664  0.88183  0.47117  1.0000
  C   C282      1.0  0.06445  0.92115  0.63646  1.0000
  N   N29       1.0  0.18546  0.96734  0.43803  1.0000
  C   C283      1.0  0.11336  0.91879  0.64077  1.0000
  C   C284      1.0  0.16161  0.97539  0.42665  1.0000
  C   C285      1.0  0.23824  0.76987  0.32670  1.0000
  H   H454      1.0  0.08936  0.94428  0.63810  1.0000
  H   H455      1.0  0.04698  0.92557  0.62469  1.0000
  C   C286      1.0  0.08918  0.86758  0.38635  1.0000
  H   H456      1.0  0.07759  0.86704  0.43699  1.0000
  H   H457      1.0  0.02209  0.99172  0.34613  1.0000
  H   H458      1.0  0.16066  0.98624  0.43123  1.0000
  H   H459      1.0  0.21130  0.98409  0.43252  1.0000
  H   H460      1.0  0.05327  0.88551  0.40806  1.0000
  H   H461      1.0  0.20309  0.94658  0.43994  1.0000
  N   N30       1.0  0.06630  0.75085  0.33905  1.0000
  H   H462      1.0  0.21235  0.97360  0.40617  1.0000
  H   H463      1.0  0.04024  0.88143  0.37828  1.0000
  S   S97       1.0  0.17065  0.94861  0.59495  1.0000
  C   C287      1.0  0.02380  0.89456  0.45398  1.0000
  H   H464      1.0  0.04659  0.85757  0.36586  1.0000
  H   H465      1.0  0.02419  0.87559  0.40851  1.0000
  H   H466      1.0  0.21439  0.88525  0.50475  1.0000
  N   N31       1.0  0.06269  0.86468  0.39952  1.0000
  H   H467      1.0  0.02712  0.96279  0.37145  1.0000
  H   H468      1.0  0.10011  0.87489  0.39646  1.0000
  Fe  Fe45      1.0  0.15982  0.98560  0.34972  1.0000
  C   C288      1.0  0.23921  0.86020  0.50098  1.0000
  H   H469      1.0  0.20133  0.96167  0.47567  1.0000
  C   C289      1.0  0.18359  0.96760  0.46638  1.0000
  H   H470      1.0  0.04166  0.90014  0.45543  1.0000
  H   H471      1.0  0.16466  0.96310  0.47471  1.0000
  H   H472      1.0  0.18308  0.97826  0.47199  1.0000
  Fe  Fe46      1.0  0.16770  0.95203  0.63763  1.0000
  H   H473      1.0  0.16259  0.97541  0.40527  1.0000
  H   H474      1.0  0.10591  0.75287  0.35374  1.0000
  H   H475      1.0  0.10299  0.85811  0.38551  1.0000
  H   H476      1.0  0.02212  0.98742  0.38029  1.0000
  C   C290      1.0  0.05016  0.85414  0.38649  1.0000
  H   H477      1.0  0.18761  0.95260  0.40997  1.0000
  H   H478      1.0  0.04743  0.85792  0.43760  1.0000
  H   H479      1.0  0.19053  0.99327  0.63097  1.0000
  H   H480      1.0  0.06294  0.90991  0.63976  1.0000
  H   H481      1.0  0.07532  0.94413  0.60698  1.0000
  H   H482      1.0  0.22035  0.76841  0.34029  1.0000
  N   N32       1.0  0.09099  0.92446  0.62391  1.0000
  H   H483      1.0  0.11400  0.90744  0.64375  1.0000
  C   C291      1.0  0.08964  0.74554  0.35502  1.0000
  H   H484      1.0  0.08203  0.98994  0.62144  1.0000
  H   H485      1.0  0.13360  0.92160  0.63247  1.0000
  H   H486      1.0  0.09427  0.90714  0.60129  1.0000
  C   C292      1.0  0.01296  0.96537  0.35528  1.0000
  S   S98       1.0  0.12939  0.96513  0.64627  1.0000
  C   C293      1.0  0.05459  0.76395  0.34803  1.0000
  H   H487      1.0  0.03693  0.76828  0.33644  1.0000
  H   H488      1.0  0.22078  0.74472  0.32912  1.0000
  H   H489      1.0  0.01738  0.97658  0.65195  1.0000
  H   H490      1.0  0.34060  0.94556  0.91046  1.0000
  S   S99       1.0  0.16279  0.93711  0.67267  1.0000
  H   H491      1.0  0.17035  0.98843  0.72466  1.0000
  C   C294      1.0  0.04697  0.96157  0.66967  1.0000
  S   S100      1.0  0.14904  0.96330  0.70568  1.0000
  Fe  Fe47      1.0  0.18751  0.95114  0.69339  1.0000
  S   S101      1.0  0.21762  0.94569  0.72649  1.0000
  Fe  Fe48      1.0  0.12519  0.95086  0.68184  1.0000
  S   S102      1.0  0.08425  0.94187  0.69305  1.0000
  H   H492      1.0  0.11094  0.92275  0.66015  1.0000
  Fe  Fe49      1.0  0.15617  0.97649  0.66903  1.0000
  H   H493      1.0  0.32138  0.97468  0.91855  1.0000
  H   H494      1.0  0.03093  0.93186  0.70309  1.0000
  C   C295      1.0  0.05101  0.94898  0.68429  1.0000
  H   H495      1.0  0.18927  0.97413  0.74131  1.0000
  N   N33       1.0  0.21332  0.99074  0.72706  1.0000
  H   H496      1.0  0.23760  0.97543  0.74991  1.0000
  H   H497      1.0  0.32812  0.91597  0.93134  1.0000
  C   C296      1.0  0.30334  0.95564  0.75172  1.0000
  C   C297      1.0  0.29527  0.95910  0.72611  1.0000
  C   C298      1.0  0.26944  0.95607  0.71794  1.0000
  C   C299      1.0  0.25103  0.94951  0.73531  1.0000
  C   C300      1.0  0.25906  0.94609  0.76092  1.0000
  C   C301      1.0  0.28488  0.94914  0.76911  1.0000
  H   H498      1.0  0.30934  0.96401  0.71235  1.0000
  H   H499      1.0  0.26404  0.95860  0.69807  1.0000
  H   H500      1.0  0.24518  0.94099  0.77462  1.0000
  H   H501      1.0  0.29057  0.94635  0.78883  1.0000
  C   C302      1.0  0.18746  0.98552  0.73794  1.0000
  C   C303      1.0  0.22046  0.98488  0.70234  1.0000
  H   H502      1.0  0.25551  0.98989  0.73739  1.0000
  H   H503      1.0  0.24058  0.98796  0.69413  1.0000
  C   C304      1.0  0.02810  0.94159  0.69173  1.0000
  H   H504      1.0  0.20489  0.98825  0.68772  1.0000
  C   C305      1.0  0.31997  0.96671  0.93511  1.0000
  H   H505      1.0  0.30420  0.95984  0.93061  1.0000
  H   H506      1.0  0.23107  0.99131  0.76400  1.0000
  H   H507      1.0  0.06429  0.96740  0.66384  1.0000
  H   H508      1.0  0.22162  0.97352  0.70480  1.0000
  C   C306      1.0  0.02032  0.96676  0.66295  1.0000
  H   H509      1.0  0.18147  0.98961  0.75674  1.0000
  S   S103      1.0  0.33653  0.95971  0.76067  1.0000
  H   H510      1.0  0.31239  0.97196  0.95235  1.0000
  S   S104      1.0  0.19522  0.96496  0.65728  1.0000
  C   C307      1.0  0.23534  0.98672  0.74538  1.0000
  H   H511      1.0  0.32913  0.94095  0.95746  1.0000
  H   H512      1.0  0.33660  0.95302  0.97949  1.0000
  H   H513      1.0  0.06162  0.92532  0.65564  1.0000
  C   C308      1.0  0.34389  0.94846  0.96143  1.0000
  S   S105      1.0  0.39661  0.02850  0.13534  1.0000
  C   C309      1.0  0.37225  0.03059  0.05107  1.0000
  H   H514      1.0  0.45900  0.02320  0.13836  1.0000
  H   H515      1.0  0.50166  0.05272  0.13993  1.0000
  C   C310      1.0  0.53790  0.05313  0.01408  1.0000
  C   C311      1.0  0.38805  0.02798  0.10290  1.0000
  Fe  Fe50      1.0  0.39304  0.01164  0.16769  1.0000
  S   S106      1.0  0.39866  0.01898  0.20669  1.0000
  S   S107      1.0  0.42913  0.99614  0.16989  1.0000
  Fe  Fe51      1.0  0.43415  0.00301  0.20907  1.0000
  S   S108      1.0  0.47485  0.01002  0.22062  1.0000
  C   C312      1.0  0.59469  0.08119  0.06072  1.0000
  H   H516      1.0  0.62351  0.06069  0.03894  1.0000
  H   H517      1.0  0.58429  0.07148  0.06259  1.0000
  H   H518      1.0  0.40758  0.04214  0.04337  1.0000
  H   H519      1.0  0.48654  0.05194  0.18635  1.0000
  C   C313      1.0  0.63774  0.09164  0.05626  1.0000
  H   H520      1.0  0.49916  0.03427  0.19058  1.0000
  H   H521      1.0  0.49017  0.04056  0.11986  1.0000
  C   C314      1.0  0.44878  0.04872  0.15183  1.0000
  H   H522      1.0  0.45311  0.05959  0.15249  1.0000
  C   C315      1.0  0.49575  0.04206  0.13986  1.0000
  H   H523      1.0  0.65537  0.06865  0.03522  1.0000
  H   H524      1.0  0.37168  0.08407  0.00598  1.0000
  S   S109      1.0  0.64735  0.01651  0.19735  1.0000
  H   H525      1.0  0.62590  0.07634  0.01887  1.0000
  H   H526      1.0  0.57930  0.05849  0.01525  1.0000
  H   H527      1.0  0.58721  0.08720  0.04285  1.0000
  H   H528      1.0  0.63166  0.03192  0.07996  1.0000
  C   C316      1.0  0.65192  0.03539  0.07599  1.0000
  S   S110      1.0  0.48713  0.04519  0.00855  1.0000
  C   C317      1.0  0.50822  0.00331  0.21136  1.0000
  Fe  Fe52      1.0  0.66530  0.01828  0.15664  1.0000
  C   C318      1.0  0.55782  0.00528  0.20993  1.0000
  C   C319      1.0  0.53097  0.01034  0.21652  1.0000
  H   H529      1.0  0.57511  0.01070  0.21442  1.0000
  H   H530      1.0  0.54217  0.04301  0.02369  1.0000
  N   N34       1.0  0.62477  0.07853  0.05947  1.0000
  H   H531      1.0  0.63213  0.09791  0.07267  1.0000
  H   H532      1.0  0.62404  0.06074  0.08677  1.0000
  S   S111      1.0  0.65422  0.03665  0.12832  1.0000
  C   C320      1.0  0.39559  0.03647  0.05787  1.0000
  C   C321      1.0  0.40316  0.03536  0.08370  1.0000
  H   H533      1.0  0.46444  0.03909  0.19946  1.0000
  C   C322      1.0  0.66829  0.03736  0.09657  1.0000
  S   S112      1.0  0.41196  0.06110  0.99821  1.0000
  C   C323      1.0  0.46582  0.02509  0.15775  1.0000
  C   C324      1.0  0.63277  0.07069  0.03718  1.0000
  C   C325      1.0  0.48114  0.04131  0.18483  1.0000
  N   N35       1.0  0.47290  0.03932  0.15855  1.0000
  C   C326      1.0  0.63389  0.07058  0.08346  1.0000
  H   H534      1.0  0.52788  0.01966  0.22609  1.0000
  H   H535      1.0  0.48340  0.01762  0.16284  1.0000
  C   C327      1.0  0.55900  0.06182  0.00904  1.0000
  H   H536      1.0  0.42071  0.04039  0.08881  1.0000
  H   H537      1.0  0.66046  0.08994  0.05513  1.0000
  H   H538      1.0  0.44197  0.04744  0.13212  1.0000
  H   H539      1.0  0.44880  0.02275  0.17181  1.0000
  Fe  Fe53      1.0  0.37080  0.00282  0.22266  1.0000
  C   C328      1.0  0.55381  0.07470  0.99590  1.0000
  H   H540      1.0  0.43104  0.04666  0.16535  1.0000
  C   C329      1.0  0.66126  0.03838  0.05030  1.0000
  H   H541      1.0  0.51418  0.03505  0.14450  1.0000
  H   H542      1.0  0.62887  0.07629  0.10072  1.0000
  H   H543      1.0  0.64849  0.03686  0.03458  1.0000
  H   H544      1.0  0.58777  0.08702  0.07740  1.0000
  S   S113      1.0  0.65220  0.99813  0.14712  1.0000
  H   H545      1.0  0.63139  0.09780  0.03817  1.0000
  C   C330      1.0  0.51162  0.05722  0.00566  1.0000
  H   H546      1.0  0.35025  0.09418  0.02684  1.0000
  Fe  Fe54      1.0  0.39124  0.04262  0.99015  1.0000
  H   H547      1.0  0.65641  0.06800  0.08277  1.0000
  C   C331      1.0  0.35726  0.02301  0.07018  1.0000
  C   C332      1.0  0.36534  0.02155  0.09603  1.0000
  C   C333      1.0  0.50603  0.07034  0.99347  1.0000
  S   S114      1.0  0.36079  0.03333  0.01915  1.0000
  H   H548      1.0  0.35333  0.01600  0.11076  1.0000
  Fe  Fe55      1.0  0.63618  0.99578  0.18830  1.0000
  S   S115      1.0  0.36224  0.99674  0.18327  1.0000
  H   H549      1.0  0.36488  0.06319  0.03531  1.0000
  C   C334      1.0  0.52719  0.07914  0.98872  1.0000
  H   H550      1.0  0.35403  0.06376  0.98940  1.0000
  C   C335      1.0  0.35011  0.08768  0.01051  1.0000
  C   C336      1.0  0.38498  0.01742  0.90562  1.0000
  Fe  Fe56      1.0  0.40589  0.06816  0.95631  1.0000
  S   S116      1.0  0.44672  0.05847  0.94338  1.0000
  S   S117      1.0  0.38777  0.09009  0.94967  1.0000
  Fe  Fe57      1.0  0.42343  0.04006  0.93911  1.0000
  S   S118      1.0  0.43643  0.02663  0.90724  1.0000
  Fe  Fe58      1.0  0.38452  0.18109  0.84751  1.0000
  S   S119      1.0  0.39440  0.18911  0.80689  1.0000
  H   H551      1.0  0.60895  0.20384  0.88376  1.0000
  Fe  Fe59      1.0  0.40152  0.15133  0.83765  1.0000
  S   S120      1.0  0.41345  0.15777  0.79625  1.0000
  S   S121      1.0  0.40638  0.12806  0.84531  1.0000
  Fe  Fe60      1.0  0.43294  0.17508  0.81165  1.0000
  S   S122      1.0  0.47373  0.18438  0.80186  1.0000
  Fe  Fe61      1.0  0.37371  0.17094  0.79586  1.0000
  S   S123      1.0  0.42374  0.16786  0.85310  1.0000
  H   H552      1.0  0.35254  0.24469  0.80091  1.0000
  H   H553      1.0  0.37735  0.02650  0.91461  1.0000
  Fe  Fe62      1.0  0.63088  0.04577  0.94362  1.0000
  H   H554      1.0  0.51055  0.05912  0.91867  1.0000
  S   S124      1.0  0.61624  0.06716  0.92925  1.0000
  S   S125      1.0  0.42994  0.03073  0.97935  1.0000
  S   S126      1.0  0.65483  0.17461  0.76702  1.0000
  H   H555      1.0  0.44448  0.00081  0.88612  1.0000
  C   C337      1.0  0.47745  0.22042  0.78705  1.0000
  H   H556      1.0  0.48050  0.22828  0.77063  1.0000
  H   H557      1.0  0.65986  0.18922  0.93233  1.0000
  Fe  Fe63      1.0  0.62910  0.16003  0.79123  1.0000
  S   S127      1.0  0.58912  0.15150  0.78223  1.0000
  S   S128      1.0  0.62897  0.17126  0.82641  1.0000
  C   C338      1.0  0.62806  0.17852  0.89991  1.0000
  H   H558      1.0  0.35534  0.10650  0.78790  1.0000
  H   H559      1.0  0.41319  0.08457  0.89957  1.0000
  H   H560      1.0  0.65355  0.13020  0.92199  1.0000
  C   C339      1.0  0.44779  0.00794  0.82684  1.0000
  C   C340      1.0  0.62440  0.00293  0.87363  1.0000
  S   S129      1.0  0.66575  0.14591  0.80272  1.0000
  Fe  Fe64      1.0  0.66911  0.05516  0.98174  1.0000
  C   C341      1.0  0.64457  0.02683  0.88818  1.0000
  C   C342      1.0  0.41039  0.10391  0.87611  1.0000
  C   C343      1.0  0.50234  0.23253  0.81553  1.0000
  C   C344      1.0  0.50560  0.17476  0.79795  1.0000
  C   C345      1.0  0.52994  0.18135  0.79848  1.0000
  C   C346      1.0  0.55561  0.17427  0.79428  1.0000
  C   C347      1.0  0.55723  0.16056  0.78899  1.0000
  C   C348      1.0  0.53291  0.15393  0.78861  1.0000
  C   C349      1.0  0.50723  0.16094  0.79333  1.0000
  H   H561      1.0  0.52898  0.19203  0.80193  1.0000
  H   H562      1.0  0.57411  0.17955  0.79442  1.0000
  H   H563      1.0  0.53385  0.14337  0.78431  1.0000
  H   H564      1.0  0.48868  0.15576  0.79270  1.0000
  H   H565      1.0  0.43355  0.23297  0.81014  1.0000
  H   H566      1.0  0.65722  0.10478  0.92875  1.0000
  H   H567      1.0  0.41995  0.09966  0.85923  1.0000
  C   C350      1.0  0.65765  0.21925  0.81930  1.0000
  C   C351      1.0  0.39402  0.10066  0.92085  1.0000
  C   C352      1.0  0.35819  0.23242  0.90136  1.0000
  H   H568      1.0  0.58749  0.11331  0.88041  1.0000
  C   C353      1.0  0.40200  0.11793  0.87497  1.0000
  C   C354      1.0  0.38964  0.12330  0.89692  1.0000
  C   C355      1.0  0.38554  0.11467  0.91970  1.0000
  S   S130      1.0  0.64327  0.20756  0.80144  1.0000
  H   H569      1.0  0.38303  0.13406  0.89629  1.0000
  H   H570      1.0  0.62902  0.20017  0.92771  1.0000
  H   H571      1.0  0.44998  0.01365  0.84401  1.0000
  C   C356      1.0  0.41308  0.01483  0.90086  1.0000
  C   C357      1.0  0.66429  0.10985  0.91066  1.0000
  H   H572      1.0  0.49450  0.21230  0.78600  1.0000
  N   N36       1.0  0.42608  0.01460  0.81015  1.0000
  H   H573      1.0  0.63884  0.17047  0.91306  1.0000
  C   C358      1.0  0.62429  0.02054  0.90355  1.0000
  C   C359      1.0  0.64494  0.23249  0.81945  1.0000
  H   H574      1.0  0.52004  0.22476  0.81532  1.0000
  C   C360      1.0  0.50708  0.03196  0.93142  1.0000
  H   H575      1.0  0.46800  0.00724  0.81629  1.0000
  H   H576      1.0  0.62677  0.23530  0.80852  1.0000
  S   S131      1.0  0.34553  0.17043  0.76201  1.0000
  H   H577      1.0  0.49481  0.03591  0.91445  1.0000
  H   H578      1.0  0.39417  0.00325  0.82927  1.0000
  C   C361      1.0  0.38659  0.21975  0.86116  1.0000
  C   C362      1.0  0.36992  0.21213  0.87874  1.0000
  C   C363      1.0  0.66224  0.12425  0.90678  1.0000
  S   S132      1.0  0.61229  0.02692  0.93270  1.0000
  S   S133      1.0  0.38221  0.05028  0.94901  1.0000
  H   H579      1.0  0.39757  0.21482  0.84569  1.0000
  C   C364      1.0  0.61399  0.00867  0.89609  1.0000
  H   H580      1.0  0.50203  0.23735  0.83409  1.0000
  H   H581      1.0  0.51360  0.02104  0.92927  1.0000
  H   H582      1.0  0.66115  0.20570  0.91455  1.0000
  C   C365      1.0  0.35580  0.21858  0.89870  1.0000
  N   N37       1.0  0.47632  0.22643  0.81209  1.0000
  H   H583      1.0  0.53837  0.04307  0.89268  1.0000
  H   H584      1.0  0.39904  0.01902  0.84249  1.0000
  H   H585      1.0  0.40926  0.01196  0.77358  1.0000
  H   H586      1.0  0.49305  0.03226  0.94881  1.0000
  H   H587      1.0  0.34716  0.23718  0.91704  1.0000
  C   C366      1.0  0.67117  0.13095  0.88327  1.0000
  H   H588      1.0  0.64080  0.11951  0.82868  1.0000
  C   C367      1.0  0.60290  0.11159  0.86450  1.0000
  H   H589      1.0  0.60148  0.10106  0.85883  1.0000
  H   H590      1.0  0.56841  0.11123  0.82587  1.0000
  H   H591      1.0  0.38695  0.13130  0.79406  1.0000
  H   H592      1.0  0.53243  0.03466  0.97465  1.0000
  H   H593      1.0  0.45832  0.21549  0.78403  1.0000
  H   H594      1.0  0.44557  0.00769  0.77536  1.0000
  H   H595      1.0  0.53836  0.06080  0.93937  1.0000
  C   C368      1.0  0.47191  0.21561  0.83316  1.0000
  H   H596      1.0  0.62343  0.11186  0.87257  1.0000
  C   C369      1.0  0.61974  0.11916  0.82178  1.0000
  H   H597      1.0  0.56338  0.04081  0.95985  1.0000
  S   S134      1.0  0.65866  0.07751  0.97013  1.0000
  H   H598      1.0  0.45190  0.02984  0.79297  1.0000
  H   H599      1.0  0.55503  0.12374  0.84717  1.0000
  H   H600      1.0  0.61740  0.12683  0.80476  1.0000
  C   C370      1.0  0.57131  0.12145  0.83231  1.0000
  N   N38       1.0  0.59888  0.12197  0.84234  1.0000
  H   H601      1.0  0.48872  0.20731  0.83331  1.0000
  Fe  Fe65      1.0  0.65679  0.18509  0.80339  1.0000
  H   H602      1.0  0.41583  0.03433  0.79033  1.0000
  H   H603      1.0  0.55737  0.02852  0.90842  1.0000
  H   H604      1.0  0.55450  0.02393  0.95532  1.0000
  H   H605      1.0  0.62732  0.19666  0.85704  1.0000
  H   H606      1.0  0.43167  0.03474  0.82069  1.0000
  S   S135      1.0  0.66716  0.14902  0.87826  1.0000
  Fe  Fe66      1.0  0.66038  0.07168  0.92943  1.0000
  H   H607      1.0  0.61831  0.10889  0.81494  1.0000
  H   H608      1.0  0.56786  0.12911  0.81542  1.0000
  H   H609      1.0  0.40172  0.23969  0.85038  1.0000
  H   H610      1.0  0.59820  0.00382  0.90788  1.0000
  C   C371      1.0  0.67115  0.18603  0.88232  1.0000
  C   C372      1.0  0.64504  0.00907  0.85849  1.0000
  C   C373      1.0  0.43162  0.02903  0.80319  1.0000
  C   C374      1.0  0.67555  0.10206  0.89109  1.0000
  C   C375      1.0  0.39928  0.01400  0.82415  1.0000
  C   C376      1.0  0.60164  0.13570  0.85077  1.0000
  H   H611      1.0  0.62242  0.13658  0.85773  1.0000
  H   H612      1.0  0.58666  0.13806  0.86667  1.0000
  H   H613      1.0  0.59823  0.14381  0.83467  1.0000
  H   H614      1.0  0.65253  0.03602  0.89371  1.0000
  C   C377      1.0  0.40662  0.09532  0.89897  1.0000
  H   H615      1.0  0.38242  0.01913  0.81237  1.0000
  N   N39       1.0  0.53082  0.04006  0.93374  1.0000
  C   C378      1.0  0.65482  0.02113  0.86563  1.0000
  C   C379      1.0  0.36657  0.00850  0.89779  1.0000
  H   H616      1.0  0.60781  0.18140  0.90908  1.0000
  C   C380      1.0  0.34825  0.11355  0.80271  1.0000
  C   C381      1.0  0.38890  0.23381  0.86379  1.0000
  H   H617      1.0  0.50639  0.05534  0.95279  1.0000
  C   C382      1.0  0.52116  0.05448  0.93617  1.0000
  S   S136      1.0  0.36117  0.16384  0.83639  1.0000
  C   C383      1.0  0.54590  0.03463  0.95691  1.0000
  C   C384      1.0  0.54913  0.03923  0.91057  1.0000
  C   C385      1.0  0.37460  0.24014  0.88401  1.0000
  H   H618      1.0  0.50619  0.24078  0.79994  1.0000
  N   N40       1.0  0.64441  0.19048  0.89414  1.0000
  Fe  Fe67      1.0  0.61555  0.07152  0.97071  1.0000
  H   H619      1.0  0.36384  0.11248  0.81793  1.0000
  H   H620      1.0  0.37833  0.12567  0.76386  1.0000
  H   H621      1.0  0.66854  0.18152  0.86389  1.0000
  C   C386      1.0  0.42272  0.00303  0.88925  1.0000
  Fe  Fe68      1.0  0.66704  0.15817  0.83665  1.0000
  H   H622      1.0  0.52314  0.08916  0.97865  1.0000
  S   S137      1.0  0.65951  0.00179  0.83097  1.0000
  S   S138      1.0  0.36514  0.19465  0.87694  1.0000
  C   C387      1.0  0.37620  0.99700  0.88516  1.0000
  H   H623      1.0  0.56708  0.04537  0.91171  1.0000
  H   H624      1.0  0.64091  0.21012  0.87219  1.0000
  C   C388      1.0  0.64878  0.19666  0.91828  1.0000
  S   S139      1.0  0.67533  0.04972  0.94071  1.0000
  H   H625      1.0  0.66609  0.00020  0.91694  1.0000
  C   C389      1.0  0.62974  0.20070  0.87604  1.0000
  H   H626      1.0  0.47064  0.21974  0.85238  1.0000
  C   C390      1.0  0.45356  0.23717  0.81261  1.0000
  H   H627      1.0  0.45261  0.21065  0.83090  1.0000
  H   H628      1.0  0.37578  0.11890  0.93652  1.0000
  C   C391      1.0  0.42570  0.00742  0.78648  1.0000
  C   C392      1.0  0.37080  0.13210  0.77952  1.0000
  H   H629      1.0  0.62435  0.17365  0.88207  1.0000
  H   H630      1.0  0.42214  0.99645  0.79116  1.0000
  H   H631      1.0  0.36888  0.14291  0.77104  1.0000
  H   H632      1.0  0.45235  0.24200  0.83118  1.0000
  Fe  Fe69      1.0  0.45016  0.04976  0.98462  1.0000
  H   H633      1.0  0.67066  0.02598  0.85387  1.0000
  C   C393      1.0  0.65549  0.24213  0.83372  1.0000
  S   S140      1.0  0.62573  0.04969  0.98534  1.0000
  S   S141      1.0  0.58099  0.08480  0.98704  1.0000
  H   H634      1.0  0.35034  0.13595  0.82737  1.0000
  H   H635      1.0  0.44328  0.99731  0.83392  1.0000
  H   H636      1.0  0.34480  0.01072  0.90095  1.0000
  H   H637      1.0  0.48564  0.07356  0.98711  1.0000
  N   N41       1.0  0.34452  0.12785  0.79129  1.0000
  Fe  Fe70      1.0  0.37968  0.44765  0.19453  1.0000
  Fe  Fe71      1.0  0.44080  0.44837  0.17375  1.0000
  S   S142      1.0  0.42779  0.46357  0.14108  1.0000
  S   S143      1.0  0.48633  0.44179  0.16621  1.0000
  Fe  Fe72      1.0  0.39970  0.47384  0.16928  1.0000
  Fe  Fe73      1.0  0.39362  0.45035  0.13623  1.0000
  S   S144      1.0  0.38918  0.44871  0.09336  1.0000
  S   S145      1.0  0.41501  0.45986  0.20275  1.0000
  S   S146      1.0  0.40699  0.43460  0.16822  1.0000
  H   H638      1.0  0.40161  0.48706  0.11008  1.0000
  C   C394      1.0  0.61099  0.41999  0.17139  1.0000
  C   C395      1.0  0.60207  0.40880  0.13357  1.0000
  C   C396      1.0  0.52409  0.37742  0.01752  1.0000
  H   H639      1.0  0.58882  0.42294  0.17452  1.0000
  Fe  Fe74      1.0  0.64083  0.45386  0.20145  1.0000
  S   S147      1.0  0.63996  0.46814  0.16574  1.0000
  S   S148      1.0  0.60000  0.44690  0.21877  1.0000
  H   H640      1.0  0.61914  0.43224  0.10851  1.0000
  H   H641      1.0  0.62380  0.44046  0.13706  1.0000
  H   H642      1.0  0.45671  0.40358  0.13273  1.0000
  C   C397      1.0  0.61258  0.43244  0.12924  1.0000
  S   S149      1.0  0.65401  0.37840  0.00744  1.0000
  C   C398      1.0  0.50494  0.37351  0.00102  1.0000
  S   S150      1.0  0.57537  0.38230  0.03015  1.0000
  H   H643      1.0  0.44488  0.43640  0.09249  1.0000
  H   H644      1.0  0.42515  0.49226  0.04118  1.0000
  H   H645      1.0  0.36900  0.48436  0.25747  1.0000
  C   C399      1.0  0.67154  0.42632  0.05397  1.0000
  C   C400      1.0  0.64772  0.41467  0.14068  1.0000
  N   N42       1.0  0.61832  0.41897  0.14375  1.0000
  H   H646      1.0  0.61571  0.41013  0.18313  1.0000
  H   H647      1.0  0.57976  0.41164  0.13579  1.0000
  H   H648      1.0  0.45533  0.48395  0.07746  1.0000
  H   H649      1.0  0.60625  0.39847  0.14386  1.0000
  N   N43       1.0  0.47173  0.41894  0.10473  1.0000
  C   C401      1.0  0.55198  0.37603  0.01077  1.0000
  H   H650      1.0  0.38392  0.39901  0.09079  1.0000
  H   H651      1.0  0.59043  0.43581  0.13025  1.0000
  C   C402      1.0  0.51641  0.44567  0.18134  1.0000
  C   C403      1.0  0.51869  0.44395  0.20816  1.0000
  C   C404      1.0  0.54422  0.44473  0.21928  1.0000
  C   C405      1.0  0.56774  0.44755  0.20389  1.0000
  C   C406      1.0  0.56521  0.44990  0.17712  1.0000
  C   C407      1.0  0.53988  0.44867  0.16592  1.0000
  H   H652      1.0  0.50109  0.44136  0.22033  1.0000
  H   H653      1.0  0.54586  0.44286  0.23998  1.0000
  H   H654      1.0  0.58298  0.45225  0.16505  1.0000
  H   H655      1.0  0.53851  0.44991  0.14516  1.0000
  C   C408      1.0  0.39084  0.43318  0.07848  1.0000
  C   C409      1.0  0.39705  0.43341  0.05184  1.0000
  C   C410      1.0  0.39883  0.42128  0.03929  1.0000
  C   C411      1.0  0.39406  0.40882  0.05325  1.0000
  H   H656      1.0  0.40052  0.44301  0.04082  1.0000
  H   H657      1.0  0.40366  0.42158  0.01879  1.0000
  H   H658      1.0  0.51474  0.41892  0.09501  1.0000
  C   C412      1.0  0.50064  0.41591  0.11151  1.0000
  H   H659      1.0  0.40650  0.47901  0.08051  1.0000
  H   H660      1.0  0.65325  0.40490  0.15239  1.0000
  H   H661      1.0  0.66069  0.42252  0.14665  1.0000
  H   H662      1.0  0.38105  0.42043  0.11292  1.0000
  H   H663      1.0  0.44434  0.41356  0.07685  1.0000
  H   H664      1.0  0.47044  0.43981  0.11400  1.0000
  H   H665      1.0  0.46904  0.40008  0.08738  1.0000
  H   H666      1.0  0.47918  0.41410  0.06541  1.0000
  C   C413      1.0  0.46589  0.41133  0.08265  1.0000
  H   H667      1.0  0.43192  0.41724  0.12302  1.0000
  C   C414      1.0  0.38778  0.40860  0.07989  1.0000
  H   H668      1.0  0.45819  0.42011  0.14433  1.0000
  C   C415      1.0  0.45387  0.41477  0.12718  1.0000
  S   S151      1.0  0.62450  0.40927  0.01486  1.0000
  H   H669      1.0  0.50560  0.42156  0.12811  1.0000
  C   C416      1.0  0.66591  0.43746  0.06878  1.0000
  C   C417      1.0  0.46652  0.43377  0.09768  1.0000
  C   C418      1.0  0.40167  0.48901  0.08870  1.0000
  H   H670      1.0  0.50521  0.40481  0.11707  1.0000
  C   C419      1.0  0.38627  0.42071  0.09249  1.0000
  Fe  Fe75      1.0  0.66699  0.39933  0.01302  1.0000
  S   S152      1.0  0.39630  0.39331  0.03833  1.0000
  H   H671      1.0  0.47966  0.43732  0.08086  1.0000
  Fe  Fe76      1.0  0.61185  0.38894  0.00643  1.0000
  H   H672      1.0  0.51727  0.38181  0.03518  1.0000
  S   S153      1.0  0.36400  0.46222  0.16174  1.0000
  H   H673      1.0  0.65354  0.41312  0.12018  1.0000
  H   H674      1.0  0.62234  0.42785  0.17954  1.0000
  H   H675      1.0  0.60698  0.40790  0.11265  1.0000
  H   H676      1.0  0.66186  0.42624  0.03576  1.0000
  H   H677      1.0  0.65160  0.44580  0.06194  1.0000
  Fe  Fe77      1.0  0.67052  0.47934  0.18422  1.0000
  Fe  Fe78      1.0  0.40843  0.39219  0.99588  1.0000
  S   S154      1.0  0.67008  0.45224  0.10987  1.0000
  H   H678      1.0  0.37957  0.48341  0.22423  1.0000
  S   S155      1.0  0.35238  0.44208  0.23062  1.0000
  H   H679      1.0  0.48335  0.37479  0.00610  1.0000
  C   C420      1.0  0.36295  0.48105  0.23882  1.0000
  H   H680      1.0  0.38043  0.49272  0.08350  1.0000
  S   S156      1.0  0.66909  0.46616  0.22176  1.0000
  H   H681      1.0  0.43289  0.32445  0.99902  1.0000
  H   H682      1.0  0.36231  0.46972  0.24126  1.0000
  H   H683      1.0  0.35504  0.49174  0.13826  1.0000
  H   H684      1.0  0.45094  0.49159  0.10754  1.0000
  H   H685      1.0  0.53191  0.41641  0.98995  1.0000
  H   H686      1.0  0.59724  0.49301  0.13048  1.0000
  S   S157      1.0  0.67585  0.43990  0.18709  1.0000
  C   C421      1.0  0.56084  0.37023  0.98806  1.0000
  Fe  Fe79      1.0  0.67606  0.45495  0.15189  1.0000
  H   H687      1.0  0.58996  0.49449  0.16433  1.0000
  C   C422      1.0  0.44936  0.49367  0.08624  1.0000
  H   H688      1.0  0.34438  0.48588  0.19040  1.0000
  H   H689      1.0  0.55855  0.43011  0.92560  1.0000
  Fe  Fe80      1.0  0.36833  0.48479  0.84319  1.0000
  H   H690      1.0  0.59634  0.45856  0.92364  1.0000
  Fe  Fe81      1.0  0.42729  0.40758  0.94636  1.0000
  S   S158      1.0  0.44075  0.42785  0.92934  1.0000
  C   C423      1.0  0.53094  0.40087  0.95028  1.0000
  Fe  Fe82      1.0  0.39482  0.38270  0.94356  1.0000
  H   H691      1.0  0.41561  0.46694  0.86810  1.0000
  S   S159      1.0  0.43438  0.38892  0.92490  1.0000
  Fe  Fe83      1.0  0.40914  0.30246  0.84749  1.0000
  S   S160      1.0  0.42241  0.29875  0.80643  1.0000
  S   S161      1.0  0.42231  0.32160  0.86367  1.0000
  Fe  Fe84      1.0  0.39377  0.27289  0.85898  1.0000
  S   S162      1.0  0.40666  0.26734  0.81955  1.0000
  S   S163      1.0  0.37564  0.25766  0.88851  1.0000
  Fe  Fe85      1.0  0.44337  0.27915  0.82396  1.0000
  S   S164      1.0  0.48611  0.26919  0.81610  1.0000
  Fe  Fe86      1.0  0.38403  0.28735  0.80628  1.0000
  S   S165      1.0  0.43177  0.28322  0.86469  1.0000
  C   C424      1.0  0.59842  0.31493  0.91967  1.0000
  C   C425      1.0  0.35816  0.47797  0.91659  1.0000
  S   S166      1.0  0.60908  0.43301  0.95328  1.0000
  Fe  Fe87      1.0  0.63549  0.29469  0.83410  1.0000
  S   S167      1.0  0.64493  0.28518  0.87378  1.0000
  S   S168      1.0  0.59140  0.30237  0.82590  1.0000
  H   H692      1.0  0.62465  0.47372  0.89476  1.0000
  H   H693      1.0  0.36070  0.41343  0.83051  1.0000
  S   S169      1.0  0.66704  0.28091  0.81447  1.0000
  S   S170      1.0  0.41349  0.37179  0.97897  1.0000
  H   H694      1.0  0.46052  0.31404  0.98539  1.0000
  H   H695      1.0  0.54848  0.36182  0.95397  1.0000
  H   H696      1.0  0.35397  0.39570  0.83186  1.0000
  C   C426      1.0  0.37049  0.40281  0.83215  1.0000
  H   H697      1.0  0.41252  0.38397  0.84032  1.0000
  H   H698      1.0  0.55449  0.33296  0.91428  1.0000
  S   S171      1.0  0.61283  0.39383  0.96352  1.0000
  H   H699      1.0  0.44611  0.45334  0.89915  1.0000
  H   H700      1.0  0.43867  0.32096  0.91772  1.0000
  S   S172      1.0  0.44967  0.39832  0.98108  1.0000
  S   S173      1.0  0.36938  0.29248  0.84602  1.0000
  H   H701      1.0  0.58245  0.36897  0.98303  1.0000
  C   C427      1.0  0.40464  0.32981  0.95595  1.0000
  H   H702      1.0  0.38390  0.40161  0.81458  1.0000
  H   H703      1.0  0.37874  0.39975  0.89694  1.0000
  H   H704      1.0  0.49337  0.42121  0.95993  1.0000
  H   H705      1.0  0.44569  0.34415  0.96898  1.0000
  H   H706      1.0  0.51653  0.39790  0.96655  1.0000
  H   H707      1.0  0.56602  0.41297  0.97730  1.0000
  C   C428      1.0  0.36757  0.40171  0.87866  1.0000
  H   H708      1.0  0.57505  0.41330  0.93009  1.0000
  C   C429      1.0  0.51524  0.27833  0.82014  1.0000
  C   C430      1.0  0.54146  0.27141  0.82047  1.0000
  C   C431      1.0  0.56499  0.27851  0.82286  1.0000
  C   C432      1.0  0.56253  0.29267  0.82442  1.0000
  C   C433      1.0  0.53631  0.29954  0.82423  1.0000
  C   C434      1.0  0.51279  0.29242  0.82237  1.0000
  H   H709      1.0  0.54362  0.26053  0.81869  1.0000
  H   H710      1.0  0.58503  0.27310  0.82286  1.0000
  H   H711      1.0  0.53413  0.31050  0.82517  1.0000
  H   H712      1.0  0.49279  0.29789  0.82201  1.0000
  Fe  Fe88      1.0  0.65636  0.38502  0.96484  1.0000
  H   H713      1.0  0.58509  0.34155  0.90615  1.0000
  H   H714      1.0  0.58239  0.31291  0.93497  1.0000
  H   H715      1.0  0.35125  0.39440  0.87987  1.0000
  C   C435      1.0  0.38158  0.35797  0.90389  1.0000
  H   H716      1.0  0.55048  0.39452  0.95340  1.0000
  C   C436      1.0  0.37700  0.33732  0.88206  1.0000
  C   C437      1.0  0.40540  0.33569  0.87800  1.0000
  C   C438      1.0  0.42165  0.34535  0.88657  1.0000
  C   C439      1.0  0.40990  0.35628  0.89976  1.0000
  H   H717      1.0  0.55066  0.30958  0.90049  1.0000
  S   S174      1.0  0.64188  0.49233  0.82517  1.0000
  H   H718      1.0  0.44362  0.34419  0.88341  1.0000
  H   H719      1.0  0.42289  0.36334  0.90681  1.0000
  S   S175      1.0  0.36661  0.37182  0.92030  1.0000
  S   S176      1.0  0.38551  0.40257  0.96199  1.0000
  C   C440      1.0  0.38407  0.45283  0.87273  1.0000
  C   C441      1.0  0.37613  0.44047  0.88523  1.0000
  C   C442      1.0  0.39330  0.43279  0.90292  1.0000
  C   C443      1.0  0.41859  0.43740  0.90786  1.0000
  C   C444      1.0  0.42650  0.44976  0.89539  1.0000
  C   C445      1.0  0.40924  0.45749  0.87786  1.0000
  C   C446      1.0  0.51373  0.36802  0.97802  1.0000
  H   H720      1.0  0.38701  0.42335  0.91278  1.0000
  H   H721      1.0  0.55858  0.31575  0.86764  1.0000
  N   N44       1.0  0.53521  0.41561  0.94876  1.0000
  C   C447      1.0  0.55481  0.41905  0.92723  1.0000
  H   H722      1.0  0.35652  0.43695  0.88141  1.0000
  H   H723      1.0  0.36427  0.32994  0.87553  1.0000
  S   S177      1.0  0.48977  0.36471  0.95604  1.0000
  N   N45       1.0  0.43387  0.32501  0.95765  1.0000
  S   S178      1.0  0.67325  0.40516  0.97050  1.0000
  C   C448      1.0  0.66286  0.33335  0.94082  1.0000
  H   H724      1.0  0.34515  0.45697  0.95016  1.0000
  H   H725      1.0  0.54730  0.41667  0.90843  1.0000
  H   H726      1.0  0.51120  0.43482  0.94318  1.0000
  N   N46       1.0  0.38617  0.39999  0.85590  1.0000
  H   H727      1.0  0.65699  0.35050  0.96414  1.0000
  H   H728      1.0  0.42853  0.30682  0.93897  1.0000
  H   H729      1.0  0.41087  0.38342  0.87488  1.0000
  H   H730      1.0  0.42634  0.30861  0.98664  1.0000
  C   C449      1.0  0.66184  0.46083  0.90024  1.0000
  H   H731      1.0  0.35790  0.48326  0.89683  1.0000
  H   H732      1.0  0.42290  0.40822  0.83915  1.0000
  C   C450      1.0  0.45078  0.33686  0.95406  1.0000
  S   S179      1.0  0.36172  0.46238  0.85142  1.0000
  H   H733      1.0  0.39119  0.32120  0.95955  1.0000
  C   C451      1.0  0.54616  0.41888  0.97328  1.0000
  H   H734      1.0  0.44777  0.34271  0.93497  1.0000
  C   C452      1.0  0.43861  0.31769  0.98332  1.0000
  C   C453      1.0  0.67096  0.32888  0.91657  1.0000
  H   H735      1.0  0.38283  0.37824  0.85831  1.0000
  H   H736      1.0  0.40006  0.33479  0.93647  1.0000
  H   H737      1.0  0.52229  0.39800  0.93232  1.0000
  C   C454      1.0  0.62968  0.44357  0.93287  1.0000
  C   C455      1.0  0.54168  0.36607  0.97178  1.0000
  S   S180      1.0  0.66439  0.31137  0.83490  1.0000
  Fe  Fe89      1.0  0.45256  0.37901  0.96116  1.0000
  C   C456      1.0  0.50887  0.42364  0.94427  1.0000
  C   C457      1.0  0.36511  0.34854  0.89471  1.0000
  H   H738      1.0  0.60049  0.32744  0.85660  1.0000
  H   H739      1.0  0.57865  0.30153  0.88263  1.0000
  H   H740      1.0  0.62052  0.31345  0.87233  1.0000
  H   H741      1.0  0.61056  0.30508  0.91694  1.0000
  H   H742      1.0  0.41941  0.40816  0.87365  1.0000
  C   C458      1.0  0.61790  0.45575  0.92056  1.0000
  H   H743      1.0  0.56216  0.33903  0.88133  1.0000
  C   C459      1.0  0.39867  0.38580  0.85733  1.0000
  C   C460      1.0  0.63393  0.46437  0.90425  1.0000
  H   H744      1.0  0.61266  0.32180  0.92702  1.0000
  C   C461      1.0  0.60861  0.32323  0.87558  1.0000
  C   C462      1.0  0.56769  0.31157  0.88623  1.0000
  C   C463      1.0  0.65755  0.44000  0.92871  1.0000
  H   H745      1.0  0.62327  0.33030  0.88157  1.0000
  N   N47       1.0  0.58647  0.32099  0.89526  1.0000
  C   C464      1.0  0.57134  0.33422  0.89947  1.0000
  H   H746      1.0  0.65644  0.32603  0.95624  1.0000
  S   S181      1.0  0.35649  0.28585  0.77237  1.0000
  H   H747      1.0  0.50011  0.42149  0.92583  1.0000
  Fe  Fe90      1.0  0.62934  0.41344  0.97197  1.0000
  H   H748      1.0  0.35743  0.41221  0.87813  1.0000
  H   H749      1.0  0.39927  0.42043  0.85340  1.0000
  C   C465      1.0  0.44142  0.31568  0.93738  1.0000
  H   H750      1.0  0.64552  0.25232  0.83372  1.0000
  C   C466      1.0  0.67218  0.35667  0.92580  1.0000
  Fe  Fe91      1.0  0.66187  0.49130  0.86318  1.0000
  H   H751      1.0  0.35365  0.25792  0.83842  1.0000
  H   H752      1.0  0.47298  0.33369  0.95520  1.0000
  H   H753      1.0  0.37246  0.46866  0.91590  1.0000
  H   H754      1.0  0.46319  0.31163  0.93832  1.0000
  H   H755      1.0  0.39846  0.33743  0.97004  1.0000
  H   H756      1.0  0.55005  0.42989  0.97269  1.0000
  Fe  Fe92      1.0  0.67472  0.30138  0.87413  1.0000
  S   S182      1.0  0.67056  0.31129  0.91213  1.0000
  C   C467      1.0  0.66318  0.34721  0.94537  1.0000
  C   C468      1.0  0.40789  0.40960  0.85550  1.0000
  H   H757      1.0  0.36694  0.48492  0.92920  1.0000
  H   H758      1.0  0.66682  0.43065  0.93806  1.0000
  C   C469      1.0  0.67358  0.44862  0.91243  1.0000
  S   S183      1.0  0.67543  0.37395  0.93119  1.0000
  H   H759      1.0  0.45633  0.24554  0.79702  1.0000
  S   S184      1.0  0.39036  0.53942  0.03799  1.0000
  Fe  Fe93      1.0  0.40249  0.57361  0.06641  1.0000
  S   S185      1.0  0.40771  0.55310  0.08942  1.0000
  S   S186      1.0  0.58804  0.57517  0.05269  1.0000
  Fe  Fe94      1.0  0.42845  0.54584  0.05359  1.0000
  H   H760      1.0  0.39972  0.71314  0.16014  1.0000
  Fe  Fe95      1.0  0.36893  0.54875  0.07155  1.0000
  H   H761      1.0  0.56027  0.54127  0.06528  1.0000
  Fe  Fe96      1.0  0.40989  0.66309  0.19492  1.0000
  S   S187      1.0  0.39625  0.67260  0.15598  1.0000
  S   S188      1.0  0.45397  0.65604  0.20440  1.0000
  C   C470      1.0  0.65950  0.73996  0.15684  1.0000
  C   C471      1.0  0.41156  0.61335  0.11447  1.0000
  H   H762      1.0  0.60095  0.51421  0.10036  1.0000
  C   C472      1.0  0.52530  0.63889  0.13993  1.0000
  H   H763      1.0  0.46468  0.50112  0.07945  1.0000
  C   C473      1.0  0.62774  0.61302  0.13955  1.0000
  S   S189      1.0  0.38148  0.64603  0.19715  1.0000
  S   S190      1.0  0.38036  0.67632  0.21791  1.0000
  H   H764      1.0  0.62378  0.60751  0.15811  1.0000
  Fe  Fe97      1.0  0.59416  0.55929  0.08589  1.0000
  S   S191      1.0  0.55884  0.55415  0.11306  1.0000
  Fe  Fe98      1.0  0.65398  0.55297  0.07115  1.0000
  S   S192      1.0  0.63273  0.56694  0.09875  1.0000
  S   S193      1.0  0.61580  0.54399  0.06176  1.0000
  Fe  Fe99      1.0  0.59987  0.68127  0.19334  1.0000
  S   S194      1.0  0.61243  0.67602  0.15329  1.0000
  S   S195      1.0  0.55728  0.69156  0.19891  1.0000
  Fe  Fe100     1.0  0.64990  0.68693  0.15948  1.0000
  S   S196      1.0  0.63163  0.63504  0.16727  1.0000
  S   S197      1.0  0.36183  0.56975  0.05103  1.0000
  H   H765      1.0  0.62639  0.51930  0.12044  1.0000
  S   S198      1.0  0.63603  0.69338  0.19810  1.0000
  S   S199      1.0  0.62032  0.66211  0.21280  1.0000
  H   H766      1.0  0.48578  0.59848  0.02750  1.0000
  H   H767      1.0  0.43497  0.50930  0.04327  1.0000
  C   C474      1.0  0.65765  0.72581  0.15509  1.0000
  C   C475      1.0  0.38060  0.52141  0.15097  1.0000
  H   H768      1.0  0.67223  0.54682  0.99454  1.0000
  H   H769      1.0  0.64170  0.63249  0.07290  1.0000
  N   N48       1.0  0.57964  0.73209  0.21168  1.0000
  S   S200      1.0  0.41798  0.59133  0.08546  1.0000
  H   H770      1.0  0.65831  0.52524  0.03780  1.0000
  C   C476      1.0  0.35719  0.62029  0.10243  1.0000
  H   H771      1.0  0.52729  0.56861  0.05768  1.0000
  H   H772      1.0  0.56127  0.64994  0.10455  1.0000
  Fe  Fe101     1.0  0.38599  0.56050  0.01816  1.0000
  H   H773      1.0  0.55101  0.52483  0.13216  1.0000
  C   C477      1.0  0.38822  0.72238  0.16529  1.0000
  C   C478      1.0  0.39996  0.73504  0.16144  1.0000
  H   H774      1.0  0.50869  0.63966  0.15518  1.0000
  C   C479      1.0  0.41454  0.51193  0.09146  1.0000
  H   H775      1.0  0.64151  0.64465  0.11274  1.0000
  H   H776      1.0  0.36107  0.60257  0.08046  1.0000
  H   H777      1.0  0.53575  0.73483  0.21438  1.0000
  H   H778      1.0  0.52410  0.53233  0.04173  1.0000
  C   C480      1.0  0.48184  0.66642  0.20381  1.0000
  C   C481      1.0  0.50722  0.66041  0.21212  1.0000
  C   C482      1.0  0.53049  0.66798  0.21052  1.0000
  C   C483      1.0  0.52844  0.68174  0.20102  1.0000
  C   C484      1.0  0.50292  0.68788  0.19327  1.0000
  C   C485      1.0  0.47972  0.68023  0.19444  1.0000
  H   H779      1.0  0.50886  0.64980  0.21981  1.0000
  H   H780      1.0  0.54988  0.66322  0.21706  1.0000
  H   H781      1.0  0.50109  0.69855  0.18607  1.0000
  H   H782      1.0  0.46025  0.68498  0.18806  1.0000
  C   C486      1.0  0.49225  0.53716  0.06990  1.0000
  C   C487      1.0  0.48601  0.54245  0.09365  1.0000
  C   C488      1.0  0.50681  0.54707  0.10751  1.0000
  C   C489      1.0  0.53359  0.54692  0.09710  1.0000
  H   H783      1.0  0.46523  0.54290  0.10144  1.0000
  H   H784      1.0  0.50194  0.55119  0.12586  1.0000
  C   C490      1.0  0.39861  0.60522  0.09857  1.0000
  C   C491      1.0  0.39740  0.62484  0.12442  1.0000
  C   C492      1.0  0.37023  0.62848  0.11813  1.0000
  C   C493      1.0  0.34920  0.52547  0.11592  1.0000
  C   C494      1.0  0.37122  0.60865  0.09282  1.0000
  C   C495      1.0  0.58079  0.72067  0.23222  1.0000
  C   C496      1.0  0.60014  0.49932  0.14665  1.0000
  H   H785      1.0  0.54374  0.64283  0.18558  1.0000
  C   C497      1.0  0.37679  0.50743  0.15277  1.0000
  H   H786      1.0  0.56326  0.71419  0.23146  1.0000
  H   H787      1.0  0.62245  0.49867  0.15011  1.0000
  S   S201      1.0  0.63324  0.60477  0.06404  1.0000
  H   H788      1.0  0.59899  0.71955  0.18341  1.0000
  C   C498      1.0  0.48765  0.58099  0.08691  1.0000
  Fe  Fe102     1.0  0.62832  0.58200  0.06371  1.0000
  H   H789      1.0  0.66821  0.63513  0.23786  1.0000
  H   H790      1.0  0.57557  0.64948  0.17444  1.0000
  H   H791      1.0  0.35147  0.62427  0.17692  1.0000
  H   H792      1.0  0.57747  0.63545  0.12294  1.0000
  H   H793      1.0  0.56249  0.72058  0.18401  1.0000
  H   H794      1.0  0.51589  0.64210  0.12105  1.0000
  S   S202      1.0  0.34442  0.70647  0.17727  1.0000
  H   H795      1.0  0.42903  0.51976  0.08512  1.0000
  H   H796      1.0  0.52893  0.66596  0.12537  1.0000
  C   C499      1.0  0.67368  0.53361  0.12951  1.0000
  Fe  Fe103     1.0  0.36659  0.65604  0.15946  1.0000
  H   H797      1.0  0.56945  0.63223  0.16979  1.0000
  H   H798      1.0  0.51375  0.60402  0.07592  1.0000
  H   H799      1.0  0.46071  0.58792  0.04326  1.0000
  H   H800      1.0  0.53781  0.58929  0.07752  1.0000
  H   H801      1.0  0.37085  0.54111  0.13059  1.0000
  C   C500      1.0  0.51924  0.53638  0.06015  1.0000
  Fe  Fe104     1.0  0.35045  0.66035  0.21594  1.0000
  Fe  Fe105     1.0  0.65813  0.67364  0.21318  1.0000
  C   C501      1.0  0.36118  0.72182  0.17468  1.0000
  C   C502      1.0  0.53673  0.66189  0.14452  1.0000
  C   C503      1.0  0.35821  0.50252  0.13689  1.0000
  C   C504      1.0  0.51037  0.57460  0.04729  1.0000
  H   H802      1.0  0.39374  0.51641  0.08652  1.0000
  S   S203      1.0  0.67431  0.66776  0.17461  1.0000
  S   S204      1.0  0.65282  0.56849  0.03663  1.0000
  C   C505      1.0  0.34636  0.73392  0.18106  1.0000
  H   H803      1.0  0.66964  0.54460  0.12813  1.0000
  H   H804      1.0  0.54821  0.50933  0.15274  1.0000
  H   H805      1.0  0.43272  0.61078  0.11905  1.0000
  H   H806      1.0  0.64783  0.71973  0.17053  1.0000
  C   C506      1.0  0.36714  0.53038  0.13236  1.0000
  H   H807      1.0  0.62413  0.59542  0.11839  1.0000
  C   C507      1.0  0.58044  0.72657  0.18618  1.0000
  H   H808      1.0  0.42055  0.73544  0.15335  1.0000
  C   C508      1.0  0.55957  0.64281  0.16968  1.0000
  N   N49       1.0  0.54769  0.64747  0.14449  1.0000
  H   H809      1.0  0.51872  0.57810  0.02780  1.0000
  C   C509      1.0  0.42020  0.50177  0.05098  1.0000
  Fe  Fe106     1.0  0.36483  0.68488  0.17935  1.0000
  N   N50       1.0  0.58935  0.51366  0.14077  1.0000
  C   C510      1.0  0.56917  0.64626  0.12386  1.0000
  S   S205      1.0  0.35177  0.64312  0.12942  1.0000
  H   H810      1.0  0.55256  0.66860  0.14955  1.0000
  H   H811      1.0  0.50364  0.57535  0.09913  1.0000
  H   H812      1.0  0.47795  0.58943  0.09777  1.0000
  H   H813      1.0  0.47150  0.57389  0.08465  1.0000
  C   C511      1.0  0.47774  0.59427  0.04664  1.0000
  S   S206      1.0  0.59605  0.55209  0.99404  1.0000
  C   C512      1.0  0.63763  0.63395  0.11408  1.0000
  C   C513      1.0  0.63772  0.62703  0.09152  1.0000
  C   C514      1.0  0.60326  0.74036  0.21333  1.0000
  H   H814      1.0  0.49439  0.56745  0.04471  1.0000
  N   N51       1.0  0.49932  0.58622  0.06161  1.0000
  H   H815      1.0  0.46850  0.60298  0.05711  1.0000
  Fe  Fe107     1.0  0.63519  0.65745  0.17274  1.0000
  H   H816      1.0  0.58022  0.72445  0.25174  1.0000
  Fe  Fe108     1.0  0.61276  0.56032  0.02898  1.0000
  H   H817      1.0  0.40765  0.63104  0.13652  1.0000
  H   H818      1.0  0.53278  0.62793  0.13997  1.0000
  C   C515      1.0  0.55401  0.74078  0.21500  1.0000
  S   S207      1.0  0.46656  0.53179  0.05186  1.0000
  C   C516      1.0  0.53980  0.54143  0.07356  1.0000
  C   C517      1.0  0.62791  0.60612  0.11704  1.0000
  C   C518      1.0  0.63299  0.61308  0.09288  1.0000
  H   H819      1.0  0.53143  0.59880  0.04702  1.0000
  S   S208      1.0  0.42608  0.56641  0.03138  1.0000
  C   C519      1.0  0.52154  0.59499  0.06567  1.0000
  H   H820      1.0  0.67394  0.62082  0.20105  1.0000
  H   H821      1.0  0.39488  0.52526  0.16328  1.0000
  H   H822      1.0  0.55600  0.50866  0.11877  1.0000
  H   H823      1.0  0.58673  0.65230  0.12721  1.0000
  H   H824      1.0  0.51937  0.66304  0.15879  1.0000
  C   C520      1.0  0.63265  0.62693  0.13821  1.0000
  C   C521      1.0  0.60402  0.51968  0.11763  1.0000
  C   C522      1.0  0.55983  0.51411  0.13590  1.0000
  S   S209      1.0  0.66909  0.70188  0.13025  1.0000
  C   C523      1.0  0.67433  0.51166  0.15505  1.0000
  H   H825      1.0  0.62299  0.73412  0.21126  1.0000
  C   C524      1.0  0.59341  0.52157  0.16289  1.0000
  H   H826      1.0  0.58063  0.73487  0.17016  1.0000
  H   H827      1.0  0.35454  0.50561  0.21249  1.0000
  H   H828      1.0  0.58213  0.51751  0.18058  1.0000
  N   N52       1.0  0.42145  0.49908  0.07932  1.0000
  H   H829      1.0  0.61537  0.52113  0.16759  1.0000
  H   H830      1.0  0.59687  0.53060  0.11306  1.0000
  H   H831      1.0  0.58624  0.53255  0.15875  1.0000
  C   C525      1.0  0.65752  0.52302  0.01728  1.0000
  H   H832      1.0  0.39950  0.50606  0.04516  1.0000
  H   H833      1.0  0.64026  0.52966  0.00857  1.0000
  H   H834      1.0  0.65242  0.51222  0.01716  1.0000
  C   C526      1.0  0.66888  0.71962  0.13336  1.0000
  S   S210      1.0  0.39698  0.49638  0.17388  1.0000
  H   H835      1.0  0.59978  0.71383  0.23027  1.0000
  H   H836      1.0  0.41543  0.51028  0.11282  1.0000
  C   C527      1.0  0.66955  0.52591  0.15317  1.0000
  S   S211      1.0  0.66695  0.50227  0.18450  1.0000
  H   H837      1.0  0.34439  0.60713  0.18839  1.0000
  H   H838      1.0  0.66220  0.53101  0.16995  1.0000
  H   H839      1.0  0.37607  0.53410  0.98836  1.0000
  H   H840      1.0  0.39470  0.53621  0.76413  1.0000
  S   S212      1.0  0.36771  0.52408  0.83081  1.0000
  Fe  Fe109     1.0  0.36031  0.51131  0.86837  1.0000
  C   C528      1.0  0.41465  0.51358  0.74294  1.0000
  Fe  Fe110     1.0  0.40307  0.50845  0.82431  1.0000
  C   C529      1.0  0.62308  0.53431  0.92952  1.0000
  H   H841      1.0  0.66535  0.52826  0.96623  1.0000
  C   C530      1.0  0.61550  0.54827  0.96596  1.0000
  H   H842      1.0  0.53555  0.55207  0.90884  1.0000
  C   C531      1.0  0.37924  0.52930  0.75914  1.0000
  Fe  Fe111     1.0  0.65303  0.52204  0.86639  1.0000
  S   S213      1.0  0.63300  0.52537  0.82794  1.0000
  H   H843      1.0  0.37548  0.52225  0.77655  1.0000
  Fe  Fe112     1.0  0.60983  0.50700  0.84217  1.0000
  H   H844      1.0  0.49608  0.52165  0.78284  1.0000
  H   H845      1.0  0.36660  0.51542  0.96224  1.0000
  H   H846      1.0  0.57188  0.53373  0.84314  1.0000
  H   H847      1.0  0.57867  0.52241  0.88707  1.0000
  C   C532      1.0  0.64360  0.54251  0.91926  1.0000
  C   C533      1.0  0.63649  0.55626  0.95607  1.0000
  C   C534      1.0  0.39277  0.53131  0.71400  1.0000
  H   H848      1.0  0.64146  0.56487  0.96598  1.0000
  H   H849      1.0  0.40835  0.53852  0.71736  1.0000
  H   H850      1.0  0.59255  0.53111  0.96013  1.0000
  H   H851      1.0  0.58158  0.55944  0.86858  1.0000
  C   C535      1.0  0.50787  0.50298  0.85050  1.0000
  H   H852      1.0  0.46395  0.50174  0.85320  1.0000
  S   S214      1.0  0.37287  0.56379  0.97657  1.0000
  S   S215      1.0  0.39720  0.49665  0.86289  1.0000
  S   S216      1.0  0.44307  0.51511  0.80437  1.0000
  C   C536      1.0  0.53058  0.50733  0.83539  1.0000
  C   C537      1.0  0.52609  0.51414  0.81095  1.0000
  C   C538      1.0  0.49926  0.51644  0.80179  1.0000
  H   H853      1.0  0.54327  0.51757  0.79907  1.0000
  S   S217      1.0  0.56373  0.50443  0.84860  1.0000
  H   H854      1.0  0.36389  0.56308  0.92238  1.0000
  Fe  Fe113     1.0  0.66719  0.51039  0.81434  1.0000
  C   C539      1.0  0.48108  0.50524  0.84132  1.0000
  H   H855      1.0  0.54245  0.52277  0.89199  1.0000
  C   C540      1.0  0.37037  0.54996  0.95740  1.0000
  H   H856      1.0  0.35585  0.54418  0.89572  1.0000
  H   H857      1.0  0.61792  0.52579  0.91950  1.0000
  C   C541      1.0  0.60881  0.53732  0.95258  1.0000
  C   C542      1.0  0.53356  0.55031  0.88820  1.0000
  H   H858      1.0  0.53561  0.53449  0.84872  1.0000
  N   N53       1.0  0.38860  0.52161  0.73695  1.0000
  H   H859      1.0  0.58546  0.55161  0.90083  1.0000
  H   H860      1.0  0.55211  0.54986  0.83875  1.0000
  S   S218      1.0  0.66069  0.53973  0.88945  1.0000
  H   H861      1.0  0.43078  0.52027  0.74741  1.0000
  C   C543      1.0  0.65036  0.55343  0.93272  1.0000
  H   H862      1.0  0.60127  0.54338  0.87406  1.0000
  C   C544      1.0  0.58254  0.54947  0.88055  1.0000
  C   C545      1.0  0.36056  0.54194  0.91584  1.0000
  C   C546      1.0  0.37177  0.53641  0.96827  1.0000
  H   H863      1.0  0.56285  0.52994  0.91459  1.0000
  H   H864      1.0  0.39987  0.52587  0.69685  1.0000
  C   C547      1.0  0.47656  0.51197  0.81686  1.0000
  C   C548      1.0  0.55416  0.54002  0.85105  1.0000
  H   H865      1.0  0.37344  0.53752  0.70904  1.0000
  H   H866      1.0  0.51450  0.54501  0.88681  1.0000
  S   S219      1.0  0.37721  0.49512  0.80397  1.0000
  C   C549      1.0  0.56050  0.52877  0.89378  1.0000
  H   H867      1.0  0.53077  0.56048  0.87704  1.0000
  N   N54       1.0  0.55770  0.54215  0.87839  1.0000
  S   S220      1.0  0.62874  0.50455  0.88129  1.0000
  H   H868      1.0  0.35959  0.53549  0.75542  1.0000
  C   C550      1.0  0.36080  0.52848  0.92710  1.0000
  H   H869      1.0  0.51101  0.49773  0.86943  1.0000
  C   C551      1.0  0.36647  0.52579  0.95335  1.0000
  S   S221      1.0  0.35037  0.51501  0.91041  1.0000
  C   C552      1.0  0.36500  0.55265  0.93104  1.0000
  H   H870      1.0  0.66615  0.55985  0.92484  1.0000
  H   H871      1.0  0.41224  0.50617  0.76022  1.0000
  H   H872      1.0  0.42249  0.50765  0.72665  1.0000
  C   C553      1.0  0.36770  0.51229  0.73177  1.0000
  H   H873      1.0  0.37390  0.50633  0.71508  1.0000
  H   H874      1.0  0.36396  0.50485  0.74875  1.0000
  H   H875      1.0  0.34762  0.51800  0.72764  1.0000
  Fe  Fe114     1.0  0.38542  0.78230  0.17924  1.0000
  S   S222      1.0  0.39696  0.78376  0.22017  1.0000
  C   C554      1.0  0.46789  0.77906  0.15351  1.0000
  Fe  Fe115     1.0  0.36680  0.81288  0.17124  1.0000
  S   S223      1.0  0.37736  0.81616  0.21141  1.0000
  H   H876      1.0  0.66521  0.81636  0.25581  1.0000
  Fe  Fe116     1.0  0.41591  0.80293  0.20428  1.0000
  S   S224      1.0  0.45724  0.81090  0.21006  1.0000
  C   C555      1.0  0.40353  0.85474  0.17951  1.0000
  S   S225      1.0  0.40646  0.80100  0.16320  1.0000
  Fe  Fe117     1.0  0.40358  0.89482  0.06333  1.0000
  S   S226      1.0  0.41740  0.91387  0.07807  1.0000
  H   H877      1.0  0.57177  0.94537  0.16651  1.0000
  Fe  Fe118     1.0  0.37729  0.91081  0.01617  1.0000
  S   S227      1.0  0.38915  0.93082  0.02729  1.0000
  H   H878      1.0  0.38821  0.97416  0.08552  1.0000
  Fe  Fe119     1.0  0.42928  0.91973  0.03682  1.0000
  S   S228      1.0  0.46733  0.92960  0.02238  1.0000
  Fe  Fe120     1.0  0.37588  0.92334  0.06739  1.0000
  H   H879      1.0  0.47587  0.88183  0.09130  1.0000
  S   S229      1.0  0.41885  0.90012  0.02240  1.0000
  H   H880      1.0  0.41972  0.83554  0.21692  1.0000
  C   C556      1.0  0.52177  0.89463  0.08043  1.0000
  S   S230      1.0  0.40133  0.95947  0.18553  1.0000
  Fe  Fe121     1.0  0.64385  0.80756  0.18258  1.0000
  S   S231      1.0  0.63170  0.80004  0.22340  1.0000
  S   S232      1.0  0.64227  0.83084  0.17655  1.0000
  H   H881      1.0  0.47273  0.78480  0.16995  1.0000
  S   S233      1.0  0.64885  0.76912  0.20875  1.0000
  S   S234      1.0  0.65920  0.90334  0.04123  1.0000
  Fe  Fe122     1.0  0.61118  0.78375  0.20569  1.0000
  S   S235      1.0  0.57054  0.77468  0.21697  1.0000
  C   C557      1.0  0.36461  0.94492  0.11498  1.0000
  S   S236      1.0  0.62051  0.79214  0.16495  1.0000
  Fe  Fe123     1.0  0.62188  0.91528  0.02577  1.0000
  S   S237      1.0  0.62290  0.93197  0.05233  1.0000
  H   H882      1.0  0.39374  0.86234  0.19222  1.0000
  S   S238      1.0  0.63317  0.90673  0.09978  1.0000
  Fe  Fe124     1.0  0.59794  0.91868  0.07998  1.0000
  S   S239      1.0  0.56076  0.92678  0.10200  1.0000
  Fe  Fe125     1.0  0.65803  0.91900  0.07008  1.0000
  S   S240      1.0  0.59351  0.90314  0.05206  1.0000
  S   S241      1.0  0.36069  0.90390  0.05593  1.0000
  H   H883      1.0  0.44490  0.84423  0.14935  1.0000
  H   H884      1.0  0.45388  0.95338  0.09760  1.0000
  H   H885      1.0  0.48118  0.86989  0.06744  1.0000
  H   H886      1.0  0.46321  0.97687  0.07943  1.0000
  H   H887      1.0  0.49538  0.98562  0.19529  1.0000
  H   H888      1.0  0.46467  0.83612  0.17550  1.0000
  H   H889      1.0  0.45168  0.75652  0.18101  1.0000
  Fe  Fe126     1.0  0.63097  0.89212  0.06932  1.0000
  H   H890      1.0  0.45312  0.84102  0.21990  1.0000
  C   C558      1.0  0.63939  0.84113  0.14680  1.0000
  C   C559      1.0  0.63879  0.85542  0.14694  1.0000
  C   C560      1.0  0.63661  0.86403  0.12385  1.0000
  H   H891      1.0  0.53599  0.88841  0.09374  1.0000
  H   H892      1.0  0.64006  0.85987  0.16503  1.0000
  H   H893      1.0  0.63628  0.87499  0.12429  1.0000
  H   H894      1.0  0.36244  0.87605  0.10041  1.0000
  N   N55       1.0  0.50849  0.88607  0.06356  1.0000
  C   C561      1.0  0.44058  0.96082  0.04854  1.0000
  H   H895      1.0  0.43819  0.96827  0.03124  1.0000
  C   C562      1.0  0.49245  0.93034  0.04499  1.0000
  C   C563      1.0  0.48603  0.92949  0.07151  1.0000
  C   C564      1.0  0.50691  0.92930  0.08918  1.0000
  C   C565      1.0  0.53422  0.92959  0.08028  1.0000
  C   C566      1.0  0.54044  0.93082  0.05376  1.0000
  C   C567      1.0  0.51957  0.93133  0.03617  1.0000
  H   H896      1.0  0.46509  0.92889  0.07843  1.0000
  H   H897      1.0  0.50206  0.92833  0.10971  1.0000
  H   H898      1.0  0.56143  0.93119  0.04672  1.0000
  H   H899      1.0  0.52462  0.93208  0.01566  1.0000
  C   C568      1.0  0.63554  0.84414  0.10012  1.0000
  C   C569      1.0  0.38728  0.95413  0.15816  1.0000
  C   C570      1.0  0.39407  0.94080  0.15147  1.0000
  C   C571      1.0  0.38302  0.93625  0.12970  1.0000
  H   H900      1.0  0.40806  0.93401  0.16306  1.0000
  H   H901      1.0  0.38837  0.92597  0.12456  1.0000
  H   H902      1.0  0.47984  0.76359  0.11419  1.0000
  C   C572      1.0  0.48845  0.80058  0.21172  1.0000
  C   C573      1.0  0.51306  0.80659  0.20481  1.0000
  C   C574      1.0  0.53833  0.79878  0.20625  1.0000
  C   C575      1.0  0.53925  0.78492  0.21505  1.0000
  C   C576      1.0  0.47415  0.75750  0.17944  1.0000
  H   H903      1.0  0.51521  0.76827  0.22943  1.0000
  H   H904      1.0  0.51264  0.81735  0.19832  1.0000
  H   H905      1.0  0.55713  0.80352  0.20080  1.0000
  S   S242      1.0  0.67599  0.98533  0.20299  1.0000
  H   H906      1.0  0.40384  0.82963  0.12821  1.0000
  C   C577      1.0  0.36754  0.84332  0.12937  1.0000
  C   C578      1.0  0.39481  0.83975  0.12239  1.0000
  C   C579      1.0  0.39891  0.86244  0.09973  1.0000
  C   C580      1.0  0.37154  0.86596  0.10644  1.0000
  C   C581      1.0  0.63773  0.83551  0.12326  1.0000
  H   H907      1.0  0.67133  0.96846  0.12117  1.0000
  H   H908      1.0  0.51843  0.77199  0.16994  1.0000
  S   S243      1.0  0.63220  0.86893  0.07077  1.0000
  H   H909      1.0  0.62471  0.88755  0.01390  1.0000
  C   C582      1.0  0.43181  0.95617  0.09430  1.0000
  C   C583      1.0  0.44366  0.84004  0.16988  1.0000
  H   H910      1.0  0.63821  0.82454  0.12286  1.0000
  C   C584      1.0  0.52970  0.87846  0.04839  1.0000
  H   H911      1.0  0.54385  0.87182  0.06118  1.0000
  H   H912      1.0  0.54238  0.88557  0.03606  1.0000
  H   H913      1.0  0.54266  0.97640  0.18449  1.0000
  C   C585      1.0  0.39835  0.96974  0.06832  1.0000
  N   N56       1.0  0.43192  0.85045  0.18674  1.0000
  Fe  Fe127     1.0  0.39936  0.98207  0.18937  1.0000
  Fe  Fe128     1.0  0.35699  0.79679  0.22316  1.0000
  H   H914      1.0  0.43811  0.98700  0.06031  1.0000
  H   H915      1.0  0.40277  0.85952  0.15929  1.0000
  C   C586      1.0  0.44085  0.97898  0.07671  1.0000
  C   C587      1.0  0.51201  0.76644  0.15378  1.0000
  H   H916      1.0  0.42214  0.94660  0.09139  1.0000
  S   S244      1.0  0.40731  0.98758  0.22900  1.0000
  H   H917      1.0  0.47454  0.90096  0.05665  1.0000
  N   N57       1.0  0.42790  0.96643  0.07196  1.0000
  H   H918      1.0  0.44537  0.77850  0.15402  1.0000
  C   C588      1.0  0.44852  0.86241  0.18360  1.0000
  H   H919      1.0  0.46286  0.95806  0.05063  1.0000
  H   H920      1.0  0.60262  0.97019  0.14629  1.0000
  H   H921      1.0  0.60307  0.74904  0.19798  1.0000
  C   C589      1.0  0.48933  0.78669  0.22037  1.0000
  C   C590      1.0  0.53951  0.98597  0.19319  1.0000
  C   C591      1.0  0.36912  0.96287  0.14327  1.0000
  H   H922      1.0  0.42350  0.85214  0.22732  1.0000
  N   N58       1.0  0.61403  0.94920  0.15902  1.0000
  C   C592      1.0  0.60772  0.96015  0.13830  1.0000
  C   C593      1.0  0.62092  0.93613  0.14755  1.0000
  H   H923      1.0  0.62533  0.96138  0.12439  1.0000
  H   H924      1.0  0.48459  0.74751  0.13347  1.0000
  H   H925      1.0  0.65625  0.95345  0.16086  1.0000
  H   H926      1.0  0.62552  0.92760  0.16263  1.0000
  H   H927      1.0  0.63920  0.93669  0.13419  1.0000
  H   H928      1.0  0.60376  0.93329  0.13629  1.0000
  H   H929      1.0  0.58996  0.95790  0.12720  1.0000
  S   S245      1.0  0.59577  0.98542  0.19197  1.0000
  C   C594      1.0  0.49050  0.89487  0.04585  1.0000
  C   C595      1.0  0.63747  0.95265  0.17346  1.0000
  H   H930      1.0  0.50485  0.86944  0.09302  1.0000
  C   C596      1.0  0.41038  0.84927  0.10760  1.0000
  H   H931      1.0  0.52040  0.87183  0.03552  1.0000
  H   H932      1.0  0.64236  0.94478  0.18965  1.0000
  C   C597      1.0  0.35831  0.74652  0.17782  1.0000
  H   H933      1.0  0.43140  0.84639  0.10213  1.0000
  C   C598      1.0  0.38501  0.74716  0.16756  1.0000
  H   H934      1.0  0.47968  0.88875  0.03314  1.0000
  S   S246      1.0  0.39985  0.76294  0.16053  1.0000
  C   C599      1.0  0.51465  0.77892  0.22217  1.0000
  S   S247      1.0  0.42001  0.87431  0.08285  1.0000
  C   C600      1.0  0.58988  0.94791  0.17679  1.0000
  H   H935      1.0  0.44872  0.86711  0.16329  1.0000
  H   H936      1.0  0.63435  0.83969  0.08202  1.0000
  C   C601      1.0  0.63501  0.85843  0.10030  1.0000
  H   H937      1.0  0.47055  0.78205  0.22632  1.0000
  H   H938      1.0  0.59381  0.93977  0.19274  1.0000
  H   H939      1.0  0.63321  0.96262  0.18189  1.0000
  C   C602      1.0  0.49198  0.87635  0.07956  1.0000
  H   H940      1.0  0.58420  0.95762  0.18579  1.0000
  H   H941      1.0  0.61365  0.87115  0.00936  1.0000
  H   H942      1.0  0.67123  0.87695  0.02253  1.0000
  C   C603      1.0  0.43204  0.84460  0.21392  1.0000
  Fe  Fe129     1.0  0.65920  0.77834  0.16908  1.0000
  H   H943      1.0  0.44033  0.87046  0.19613  1.0000
  H   H944      1.0  0.38778  0.96046  0.06516  1.0000
  H   H945      1.0  0.47012  0.85948  0.18875  1.0000
  H   H946      1.0  0.43109  0.83105  0.17107  1.0000
  H   H947      1.0  0.66174  0.94922  0.09514  1.0000
  H   H948      1.0  0.43181  0.98341  0.09438  1.0000
  H   H949      1.0  0.50223  0.90225  0.03317  1.0000
  C   C604      1.0  0.35738  0.95816  0.12200  1.0000
  H   H950      1.0  0.47947  0.76267  0.19642  1.0000
  H   H951      1.0  0.53394  0.90225  0.06892  1.0000
  H   H952      1.0  0.35621  0.97646  0.22969  1.0000
  H   H953      1.0  0.39458  0.97733  0.05141  1.0000
  H   H954      1.0  0.39062  0.84587  0.18086  1.0000
  H   H955      1.0  0.50645  0.90042  0.09243  1.0000
  C   C605      1.0  0.35593  0.85642  0.12115  1.0000
  H   H956      1.0  0.42252  0.96005  0.11236  1.0000
  H   H957      1.0  0.43115  0.95137  0.04441  1.0000
  C   C606      1.0  0.66826  0.82711  0.24824  1.0000
  N   N59       1.0  0.48214  0.76525  0.15495  1.0000
  H   H958      1.0  0.47348  0.78525  0.13537  1.0000
  S   S248      1.0  0.35083  0.93962  0.08745  1.0000
  S   S249      1.0  0.34421  0.79404  0.18316  1.0000
  H   H959      1.0  0.52349  0.75623  0.15488  1.0000
  H   H960      1.0  0.48426  0.74697  0.18110  1.0000
  H   H961      1.0  0.45187  0.75699  0.13344  1.0000
  H   H962      1.0  0.36353  0.95876  0.23970  1.0000
  H   H963      1.0  0.36387  0.97318  0.14828  1.0000
  C   C607      1.0  0.34768  0.96746  0.24058  1.0000
  C   C608      1.0  0.47437  0.75801  0.13303  1.0000
  H   H964      1.0  0.51869  0.77223  0.13551  1.0000
  C   C609      1.0  0.62302  0.88019  0.99926  1.0000
  S   S250      1.0  0.67629  0.76550  0.13761  1.0000
  H   H965      1.0  0.55243  0.74944  0.19969  1.0000
  H   H966      1.0  0.34655  0.75580  0.18237  1.0000
  C   C610      1.0  0.66844  0.86992  0.00750  1.0000
  H   H967      1.0  0.65999  0.86066  0.01780  1.0000
  Fe  Fe130     1.0  0.67059  0.78630  0.22239  1.0000
  H   H968      1.0  0.65417  0.82979  0.23200  1.0000
  C   C611      1.0  0.51263  0.99118  0.19929  1.0000
  H   H969      1.0  0.55309  0.74539  0.23381  1.0000
  C   C612      1.0  0.67256  0.74786  0.13685  1.0000
  S   S251      1.0  0.34766  0.83191  0.14903  1.0000
  C   C613      1.0  0.56229  0.99294  0.19855  1.0000
  H   H970      1.0  0.66172  0.83377  0.26384  1.0000
  H   H971      1.0  0.65109  0.74476  0.17353  1.0000
  H   H972      1.0  0.60298  0.74496  0.23212  1.0000
  H   H973      1.0  0.66427  0.89642  0.98848  1.0000
  H   H974      1.0  0.34472  0.96995  0.26099  1.0000
  Fe  Fe131     1.0  0.39029  0.94140  0.84311  1.0000
  S   S252      1.0  0.40345  0.94518  0.80108  1.0000
  S   S253      1.0  0.40394  0.92218  0.86790  1.0000
  Fe  Fe132     1.0  0.37007  0.97097  0.84702  1.0000
  S   S254      1.0  0.38137  0.97691  0.80571  1.0000
  H   H975      1.0  0.40822  0.91385  0.96215  1.0000
  Fe  Fe133     1.0  0.42087  0.96405  0.81294  1.0000
  S   S255      1.0  0.46162  0.97400  0.80584  1.0000
  S   S256      1.0  0.41010  0.95939  0.85484  1.0000
  Fe  Fe134     1.0  0.62388  0.95601  0.81460  1.0000
  S   S257      1.0  0.63092  0.96497  0.85190  1.0000
  S   S258      1.0  0.58510  0.94772  0.80100  1.0000
  Fe  Fe135     1.0  0.36247  0.95767  0.79717  1.0000
  H   H976      1.0  0.63906  0.98088  0.90773  1.0000
  C   C614      1.0  0.67553  0.93141  0.94113  1.0000
  H   H977      1.0  0.62489  0.96091  0.71940  1.0000
  S   S259      1.0  0.64676  0.97159  0.78993  1.0000
  C   C615      1.0  0.36118  0.91925  0.90336  1.0000
  H   H978      1.0  0.49607  0.91118  0.85678  1.0000
  H   H979      1.0  0.61772  0.95666  0.75316  1.0000
  H   H980      1.0  0.47845  0.93780  0.90206  1.0000
  Fe  Fe136     1.0  0.65673  0.97933  0.82730  1.0000
  C   C616      1.0  0.49573  0.96633  0.80507  1.0000
  C   C617      1.0  0.50253  0.95402  0.79408  1.0000
  C   C618      1.0  0.52991  0.94848  0.79313  1.0000
  C   C619      1.0  0.55094  0.95521  0.80292  1.0000
  C   C620      1.0  0.54420  0.96756  0.81377  1.0000
  C   C621      1.0  0.51678  0.97312  0.81467  1.0000
  H   H981      1.0  0.48676  0.94891  0.78578  1.0000
  H   H982      1.0  0.53488  0.93899  0.78444  1.0000
  H   H983      1.0  0.56014  0.97291  0.82126  1.0000
  H   H984      1.0  0.51191  0.98275  0.82286  1.0000
  C   C622      1.0  0.38941  0.91980  0.89938  1.0000
  H   H985      1.0  0.44907  0.93034  0.84004  1.0000
  C   C623      1.0  0.36683  0.91468  0.94974  1.0000
  H   H986      1.0  0.49579  0.91492  0.88998  1.0000
  H   H987      1.0  0.59923  0.92682  0.93133  1.0000
  C   C624      1.0  0.40637  0.91775  0.92065  1.0000
  C   C625      1.0  0.63140  0.92469  0.95862  1.0000
  H   H988      1.0  0.60865  0.88525  0.98472  1.0000
  H   H989      1.0  0.42827  0.91789  0.91770  1.0000
  Fe  Fe137     1.0  0.66958  0.95113  0.85310  1.0000
  C   C626      1.0  0.39508  0.91539  0.94583  1.0000
  H   H990      1.0  0.35911  0.96000  0.89934  1.0000
  H   H991      1.0  0.64332  0.97269  0.93968  1.0000
  C   C627      1.0  0.48508  0.91727  0.87153  1.0000
  H   H992      1.0  0.46418  0.91355  0.87461  1.0000
  H   H993      1.0  0.36372  0.94249  0.96545  1.0000
  H   H994      1.0  0.61192  0.92412  0.72375  1.0000
  H   H995      1.0  0.66029  0.92697  0.70830  1.0000
  H   H996      1.0  0.52310  0.93496  0.87757  1.0000
  S   S260      1.0  0.35171  0.91174  0.98089  1.0000
  C   C628      1.0  0.66463  0.93489  0.91667  1.0000
  C   C629      1.0  0.65295  0.97385  0.91995  1.0000
  N   N60       1.0  0.63639  0.94003  0.73301  1.0000
  C   C630      1.0  0.46941  0.93459  0.83861  1.0000
  H   H997      1.0  0.46743  0.95091  0.87755  1.0000
  H   H998      1.0  0.37559  0.94608  0.91894  1.0000
  C   C631      1.0  0.34996  0.91662  0.92844  1.0000
  H   H999      1.0  0.65028  0.94375  0.69342  1.0000
  H   H1000     1.0  0.51121  0.94779  0.85299  1.0000
  H   H1001     1.0  0.46582  0.94571  0.83286  1.0000
  C   C632      1.0  0.65682  0.93795  0.71176  1.0000
  C   C633      1.0  0.46856  0.93969  0.88310  1.0000
  H   H1002     1.0  0.34802  0.92053  0.88703  1.0000
  H   H1003     1.0  0.60187  0.94084  0.70873  1.0000
  H   H1004     1.0  0.65229  0.95876  0.74141  1.0000
  C   C634      1.0  0.65893  0.92646  0.96211  1.0000
  H   H1005     1.0  0.63814  0.85715  0.97698  1.0000
  H   H1006     1.0  0.66606  0.93570  0.76235  1.0000
  H   H1007     1.0  0.48121  0.92979  0.82265  1.0000
  C   C635      1.0  0.63695  0.93342  0.91334  1.0000
  S   S261      1.0  0.66109  0.94095  0.81766  1.0000
  C   C636      1.0  0.62050  0.92818  0.93417  1.0000
  H   H1008     1.0  0.52372  0.93119  0.84443  1.0000
  C   C637      1.0  0.51165  0.93667  0.85943  1.0000
  H   H1009     1.0  0.62835  0.93606  0.89459  1.0000
  N   N61       1.0  0.48370  0.93205  0.86318  1.0000
  C   C638      1.0  0.35594  0.95237  0.91607  1.0000
  H   H1010     1.0  0.44720  0.93666  0.88599  1.0000
  C   C639      1.0  0.64694  0.86661  0.96797  1.0000
  S   S262      1.0  0.35274  0.98651  0.87384  1.0000
  H   H1011     1.0  0.63315  0.87115  0.95251  1.0000
  C   C640      1.0  0.60995  0.93520  0.72665  1.0000
  S   S263      1.0  0.34862  0.95257  0.83872  1.0000
  H   H1012     1.0  0.59427  0.93674  0.74250  1.0000
  H   H1013     1.0  0.64935  0.92114  0.75472  1.0000
  H   H1014     1.0  0.41208  0.98531  0.87189  1.0000
  C   C641      1.0  0.63263  0.95474  0.73690  1.0000
  S   S264      1.0  0.61035  0.91739  0.98378  1.0000
  H   H1015     1.0  0.66756  0.92381  0.98085  1.0000
  H   H1016     1.0  0.63128  0.93364  0.77338  1.0000
  H   H1017     1.0  0.38741  0.96303  0.94859  1.0000
  H   H1018     1.0  0.67697  0.94151  0.71631  1.0000
  H   H1019     1.0  0.65384  0.96371  0.91206  1.0000
  H   H1020     1.0  0.64826  0.89395  0.95939  1.0000
  C   C642      1.0  0.64618  0.93228  0.75691  1.0000
  H   H1021     1.0  0.66698  0.86352  0.95856  1.0000
  C   C643      1.0  0.36695  0.96850  0.94542  1.0000
  H   H1022     1.0  0.36938  0.97662  0.92928  1.0000
  H   H1023     1.0  0.36067  0.97370  0.96306  1.0000
  H   H1024     1.0  0.61640  0.99379  0.86794  1.0000
  C   C644      1.0  0.66178  0.88876  0.97454  1.0000
  H   H1025     1.0  0.66801  0.99252  0.94943  1.0000
  N   N62       1.0  0.34668  0.95901  0.93954  1.0000
  C   C645      1.0  0.40437  0.99417  0.88135  1.0000
  N   N63       1.0  0.65007  0.87637  0.98732  1.0000
  C   C646      1.0  0.71041  0.00440  0.05631  1.0000
  S   S265      1.0  0.71086  0.01049  0.24543  1.0000
  C   C647      1.0  0.80183  0.00959  0.26833  1.0000
  C   C648      1.0  0.74619  0.01006  0.25352  1.0000
  H   H1026     1.0  0.74326  0.02190  0.07361  1.0000
  H   H1027     1.0  0.72345  0.04899  0.06173  1.0000
  S   S266      1.0  0.83715  0.00841  0.27677  1.0000
  S   S267      1.0  0.70727  0.00997  0.16864  1.0000
  C   C649      1.0  0.69424  0.04210  0.09126  1.0000
  S   S268      1.0  0.90264  0.99683  0.31179  1.0000
  N   N64       1.0  0.72962  0.00159  0.07755  1.0000
  C   C650      1.0  0.78031  0.01347  0.28534  1.0000
  H   H1028     1.0  0.70672  0.04399  0.10700  1.0000
  C   C651      1.0  0.75281  0.01368  0.27798  1.0000
  C   C652      1.0  0.76772  0.00612  0.23658  1.0000
  Fe  Fe138     1.0  0.68898  0.00632  0.20875  1.0000
  H   H1029     1.0  0.73646  0.01680  0.29127  1.0000
  H   H1030     1.0  0.70104  0.01508  0.05557  1.0000
  S   S269      1.0  0.97082  0.01161  0.29804  1.0000
  C   C653      1.0  0.79521  0.00588  0.24396  1.0000
  H   H1031     1.0  0.78480  0.01643  0.30409  1.0000
  C   C654      1.0  0.70358  0.04504  0.06562  1.0000
  Fe  Fe139     1.0  0.86537  0.01175  0.30988  1.0000
  C   C655      1.0  0.75165  0.01105  0.07376  1.0000
  S   S270      1.0  0.89202  0.02935  0.31210  1.0000
  H   H1032     1.0  0.70517  0.01414  0.10286  1.0000
  S   S271      1.0  0.69890  0.04810  0.01326  1.0000
  C   C656      1.0  0.71480  0.00358  0.10235  1.0000
  H   H1033     1.0  0.76321  0.00993  0.05513  1.0000
  C   C657      1.0  0.00216  0.01479  0.31128  1.0000
  H   H1034     1.0  0.72089  0.00306  0.03724  1.0000
  H   H1035     1.0  0.76647  0.00918  0.08953  1.0000
  Fe  Fe140     1.0  0.92840  0.01398  0.31777  1.0000
  H   H1036     1.0  0.72884  0.00171  0.11873  1.0000
  H   H1037     1.0  0.76319  0.00328  0.21774  1.0000
  C   C658      1.0  0.68692  0.04349  0.04506  1.0000
  H   H1038     1.0  0.81152  0.00282  0.23057  1.0000
  H   H1039     1.0  0.69341  0.99750  0.05874  1.0000
  H   H1040     1.0  0.69834  0.99644  0.10614  1.0000
  Fe  Fe141     1.0  0.94136  0.07475  0.53096  1.0000
  S   S272      1.0  0.90101  0.07986  0.51231  1.0000
  S   S273      1.0  0.98159  0.07962  0.51203  1.0000
  Fe  Fe142     1.0  0.91686  0.05896  0.57757  1.0000
  S   S274      1.0  0.87454  0.06245  0.56283  1.0000
  S   S275      1.0  0.92801  0.04693  0.61487  1.0000
  Fe  Fe143     1.0  0.89357  0.05786  0.52415  1.0000
  S   S276      1.0  0.88123  0.04068  0.50184  1.0000
  Fe  Fe144     1.0  0.88613  0.08405  0.55274  1.0000
  S   S277      1.0  0.85596  0.10145  0.56293  1.0000
  S   S278      1.0  0.93509  0.05263  0.54010  1.0000
  S   S279      1.0  0.92723  0.08074  0.57009  1.0000
  H   H1041     1.0  0.96462  0.07385  0.41555  1.0000
  C   C659      1.0  0.97735  0.06779  0.43037  1.0000
  H   H1042     1.0  0.90364  0.02478  0.54831  1.0000
  C   C660      1.0  0.88428  0.00282  0.53032  1.0000
  C   C661      1.0  0.91976  0.08434  0.63991  1.0000
  Fe  Fe145     1.0  0.88517  0.02555  0.35544  1.0000
  S   S280      1.0  0.87831  0.04382  0.37929  1.0000
  H   H1043     1.0  0.90089  0.01887  0.58183  1.0000
  N   N65       1.0  0.89100  0.08198  0.64736  1.0000
  C   C662      1.0  0.86018  0.11518  0.58184  1.0000
  C   C663      1.0  0.93865  0.06636  0.46034  1.0000
  C   C664      1.0  0.83739  0.12434  0.58533  1.0000
  C   C665      1.0  0.86295  0.13765  0.61169  1.0000
  C   C666      1.0  0.88601  0.12842  0.60869  1.0000
  C   C667      1.0  0.88468  0.11722  0.59354  1.0000
  H   H1044     1.0  0.81846  0.12292  0.57635  1.0000
  H   H1045     1.0  0.93633  0.04158  0.44338  1.0000
  H   H1046     1.0  0.90490  0.13013  0.61740  1.0000
  H   H1047     1.0  0.90259  0.11037  0.59055  1.0000
  C   C668      1.0  0.88036  0.04174  0.46775  1.0000
  C   C669      1.0  0.88308  0.02964  0.45520  1.0000
  C   C670      1.0  0.88263  0.03010  0.42810  1.0000
  C   C671      1.0  0.87899  0.04267  0.41336  1.0000
  C   C672      1.0  0.87607  0.05475  0.42595  1.0000
  C   C673      1.0  0.87680  0.05430  0.45302  1.0000
  H   H1048     1.0  0.88562  0.01987  0.46641  1.0000
  H   H1049     1.0  0.88479  0.02074  0.41859  1.0000
  H   H1050     1.0  0.87297  0.06450  0.41468  1.0000
  H   H1051     1.0  0.87406  0.06367  0.46247  1.0000
  H   H1052     1.0  0.98429  0.02760  0.33976  1.0000
  N   N66       1.0  0.88057  0.00712  0.55676  1.0000
  C   C674      1.0  0.90517  0.03445  0.62444  1.0000
  C   C675      1.0  0.87716  0.03718  0.62076  1.0000
  H   H1053     1.0  0.94684  0.07410  0.47161  1.0000
  C   C676      1.0  0.91504  0.02156  0.63535  1.0000
  H   H1054     1.0  0.86929  0.04713  0.61272  1.0000
  C   C677      1.0  0.80294  0.17333  0.63832  1.0000
  H   H1055     1.0  0.85365  0.02477  0.54550  1.0000
  H   H1056     1.0  0.85073  0.01867  0.57901  1.0000
  H   H1057     1.0  0.86759  0.99653  0.52570  1.0000
  S   S281      1.0  0.92312  0.01149  0.36075  1.0000
  H   H1058     1.0  0.98063  0.06522  0.56293  1.0000
  C   C678      1.0  0.85911  0.02704  0.62779  1.0000
  H   H1059     1.0  0.82097  0.14253  0.60184  1.0000
  H   H1060     1.0  0.96650  0.04359  0.47987  1.0000
  S   S282      1.0  0.84626  0.00122  0.64428  1.0000
  H   H1061     1.0  0.93544  0.05428  0.41646  1.0000
  H   H1062     1.0  0.83672  0.00948  0.55518  1.0000
  H   H1063     1.0  0.98657  0.07517  0.44183  1.0000
  C   C679      1.0  0.97844  0.05063  0.46662  1.0000
  H   H1064     1.0  0.96511  0.04259  0.42094  1.0000
  H   H1065     1.0  0.74896  0.17285  0.64955  1.0000
  H   H1066     1.0  0.92424  0.07192  0.44637  1.0000
  H   H1067     1.0  0.99436  0.06214  0.42006  1.0000
  H   H1068     1.0  0.83744  0.02920  0.62488  1.0000
  C   C680      1.0  0.94899  0.04878  0.43130  1.0000
  S   S283      1.0  0.85661  0.00876  0.35297  1.0000
  C   C681      1.0  0.87642  0.07932  0.62434  1.0000
  C   C682      1.0  0.00310  0.02300  0.33168  1.0000
  H   H1069     1.0  0.92336  0.00957  0.56055  1.0000
  H   H1070     1.0  0.87692  0.08805  0.60924  1.0000
  N   N67       1.0  0.96087  0.05838  0.44713  1.0000
  C   C683      1.0  0.85424  0.01537  0.55920  1.0000
  S   S284      1.0  0.86237  0.15240  0.62890  1.0000
  H   H1071     1.0  0.99540  0.04441  0.45742  1.0000
  C   C684      1.0  0.90314  0.01543  0.56206  1.0000
  C   C685      1.0  0.83880  0.13547  0.59991  1.0000
  H   H1072     1.0  0.87808  0.99777  0.59566  1.0000
  C   C686      1.0  0.00139  0.06471  0.55517  1.0000
  C   C687      1.0  0.86906  0.01402  0.63787  1.0000
  H   H1073     1.0  0.92112  0.09326  0.62527  1.0000
  H   H1074     1.0  0.98782  0.05760  0.47880  1.0000
  H   H1075     1.0  0.90486  0.00123  0.64957  1.0000
  H   H1076     1.0  0.92657  0.05964  0.47408  1.0000
  C   C688      1.0  0.89704  0.01127  0.64171  1.0000
  H   H1077     1.0  0.88588  0.07012  0.61561  1.0000
  H   H1078     1.0  0.76264  0.15621  0.64157  1.0000
  H   H1079     1.0  0.88420  0.01182  0.51570  1.0000
  H   H1080     1.0  0.80515  0.16615  0.62292  1.0000
  H   H1081     1.0  0.90403  0.99666  0.52776  1.0000
  H   H1082     1.0  0.79108  0.18279  0.63053  1.0000
  H   H1083     1.0  0.87774  0.10339  0.64424  1.0000
  H   H1084     1.0  0.93040  0.07528  0.63142  1.0000
  H   H1085     1.0  0.85455  0.07764  0.62900  1.0000
  H   H1086     1.0  0.85148  0.23521  0.65054  1.0000
  H   H1087     1.0  0.93670  0.01941  0.63828  1.0000
  H   H1088     1.0  0.87877  0.21275  0.65174  1.0000
  Fe  Fe146     1.0  0.89561  0.99512  0.35445  1.0000
  C   C689      1.0  0.00752  0.07091  0.53054  1.0000
  H   H1089     1.0  0.82392  0.17608  0.64189  1.0000
  H   H1090     1.0  0.99459  0.99839  0.36619  1.0000
  C   C690      1.0  0.88064  0.99489  0.57549  1.0000
  H   H1091     1.0  0.00302  0.20123  0.65053  1.0000
  S   S285      1.0  0.93242  0.16642  0.65375  1.0000
  H   H1092     1.0  0.98841  0.21823  0.65343  1.0000
  C   C691      1.0  0.78790  0.17684  0.68214  1.0000
  H   H1093     1.0  0.88826  0.09663  0.67575  1.0000
  C   C692      1.0  0.69154  0.22527  0.84796  1.0000
  H   H1094     1.0  0.79781  0.01077  0.70720  1.0000
  H   H1095     1.0  0.74918  0.24303  0.75385  1.0000
  S   S286      1.0  0.92244  0.17654  0.71257  1.0000
  H   H1096     1.0  0.86683  0.20223  0.76379  1.0000
  H   H1097     1.0  0.70833  0.23849  0.79888  1.0000
  S   S287      1.0  0.89392  0.14947  0.69783  1.0000
  Fe  Fe147     1.0  0.87951  0.16998  0.71154  1.0000
  S   S288      1.0  0.84715  0.17661  0.74164  1.0000
  Fe  Fe148     1.0  0.93640  0.15726  0.69465  1.0000
  S   S289      1.0  0.97688  0.14494  0.70220  1.0000
  C   C693      1.0  0.86786  0.23124  0.72298  1.0000
  C   C694      1.0  0.81346  0.00541  0.72017  1.0000
  H   H1098     1.0  0.86881  0.06781  0.67248  1.0000
  S   S290      1.0  0.72801  0.15448  0.75612  1.0000
  H   H1099     1.0  0.69119  0.20550  0.83302  1.0000
  C   C695      1.0  0.81451  0.16997  0.74670  1.0000
  C   C696      1.0  0.80904  0.15750  0.73797  1.0000
  C   C697      1.0  0.78264  0.15276  0.74165  1.0000
  C   C698      1.0  0.76141  0.16039  0.75413  1.0000
  C   C699      1.0  0.76705  0.17273  0.76335  1.0000
  C   C700      1.0  0.79347  0.17747  0.75969  1.0000
  H   H1100     1.0  0.82521  0.15146  0.72856  1.0000
  H   H1101     1.0  0.77858  0.14310  0.73484  1.0000
  H   H1102     1.0  0.75095  0.17869  0.77302  1.0000
  H   H1103     1.0  0.79753  0.18705  0.76680  1.0000
  H   H1104     1.0  0.85592  0.09278  0.66430  1.0000
  H   H1105     1.0  0.85252  0.23785  0.73340  1.0000
  C   C701      1.0  0.76197  0.16360  0.65657  1.0000
  S   S291      1.0  0.69539  0.17324  0.81705  1.0000
  H   H1106     1.0  0.87862  0.23179  0.77292  1.0000
  H   H1107     1.0  0.97542  0.21131  0.69945  1.0000
  H   H1108     1.0  0.84261  0.21694  0.76258  1.0000
  H   H1109     1.0  0.83386  0.00728  0.71082  1.0000
  Fe  Fe149     1.0  0.91648  0.18541  0.67190  1.0000
  C   C702      1.0  0.85832  0.21114  0.75106  1.0000
  C   C703      1.0  0.90046  0.21154  0.72557  1.0000
  C   C704      1.0  0.87766  0.09421  0.65845  1.0000
  C   C705      1.0  0.92816  0.23279  0.66647  1.0000
  H   H1110     1.0  0.99039  0.19446  0.69525  1.0000
  H   H1111     1.0  0.85748  0.22744  0.70677  1.0000
  H   H1112     1.0  0.98476  0.17033  0.72438  1.0000
  C   C706      1.0  0.99493  0.20475  0.70048  1.0000
  C   C707      1.0  0.80616  0.15449  0.67137  1.0000
  C   C708      1.0  0.89020  0.07000  0.66663  1.0000
  Fe  Fe150     1.0  0.69189  0.16174  0.78203  1.0000
  H   H1113     1.0  0.90286  0.21709  0.77492  1.0000
  H   H1114     1.0  0.77660  0.17277  0.69982  1.0000
  H   H1115     1.0  0.00116  0.20362  0.72090  1.0000
  H   H1116     1.0  0.80856  0.17902  0.68804  1.0000
  H   H1117     1.0  0.93143  0.08638  0.65682  1.0000
  H   H1118     1.0  0.70978  0.22253  0.85880  1.0000
  Fe  Fe151     1.0  0.88939  0.16004  0.65796  1.0000
  C   C709      1.0  0.89344  0.22541  0.76146  1.0000
  S   S292      1.0  0.93608  0.20535  0.66271  1.0000
  C   C710      1.0  0.91598  0.22097  0.66140  1.0000
  H   H1119     1.0  0.82698  0.15676  0.67662  1.0000
  N   N68       1.0  0.88000  0.21984  0.74028  1.0000
  H   H1120     1.0  0.90991  0.23202  0.75385  1.0000
  C   C711      1.0  0.88824  0.22181  0.65585  1.0000
  S   S293      1.0  0.87290  0.18025  0.67191  1.0000
  H   H1121     1.0  0.90025  0.06063  0.65875  1.0000
  H   H1122     1.0  0.91001  0.20282  0.73804  1.0000
  H   H1123     1.0  0.90100  0.07162  0.68432  1.0000
  H   H1124     1.0  0.91714  0.21773  0.71702  1.0000
  H   H1125     1.0  0.88373  0.23793  0.71433  1.0000
  C   C712      1.0  0.87288  0.23452  0.65504  1.0000
  H   H1126     1.0  0.77694  0.18673  0.67529  1.0000
  H   H1127     1.0  0.81188  0.01029  0.73866  1.0000
  H   H1128     1.0  0.68432  0.19470  0.87810  1.0000
  C   C713      1.0  0.00654  0.15346  0.70721  1.0000
  H   H1129     1.0  0.84771  0.20685  0.73549  1.0000
  H   H1130     1.0  0.89104  0.20715  0.70941  1.0000
  C   C714      1.0  0.00461  0.16581  0.71865  1.0000
  C   C715      1.0  0.68465  0.10879  0.86773  1.0000
  H   H1131     1.0  0.79629  0.14917  0.68864  1.0000
  C   C716      1.0  0.67887  0.23856  0.84790  1.0000
  H   H1132     1.0  0.68987  0.12814  0.84581  1.0000
  H   H1133     1.0  0.69358  0.10285  0.85258  1.0000
  H   H1134     1.0  0.94955  0.23226  0.67084  1.0000
  N   N69       1.0  0.78974  0.16707  0.66210  1.0000
  H   H1135     1.0  0.75148  0.15885  0.67420  1.0000
  H   H1136     1.0  0.75752  0.23707  0.78645  1.0000
  H   H1137     1.0  0.69866  0.99666  0.93110  1.0000
  H   H1138     1.0  0.80899  0.14714  0.65628  1.0000
  H   H1139     1.0  0.68248  0.17799  0.89507  1.0000
  C   C717      1.0  0.68241  0.12314  0.86380  1.0000
  S   S294      1.0  0.67795  0.08397  0.89452  1.0000
  H   H1140     1.0  0.00193  0.23143  0.68839  1.0000
  C   C718      1.0  0.68109  0.21564  0.83345  1.0000
  C   C719      1.0  0.00751  0.21146  0.65610  1.0000
  Fe  Fe152     1.0  0.70432  0.45367  0.20416  1.0000
  H   H1141     1.0  0.76955  0.35653  0.00111  1.0000
  S   S295      1.0  0.74579  0.44627  0.22235  1.0000
  S   S296      1.0  0.97563  0.45855  0.29343  1.0000
  C   C720      1.0  0.69763  0.42726  0.10057  1.0000
  N   N70       1.0  0.75372  0.49350  0.20563  1.0000
  H   H1142     1.0  0.73063  0.48756  0.24033  1.0000
  S   S297      1.0  0.82818  0.46637  0.30189  1.0000
  H   H1143     1.0  0.74861  0.38652  0.00385  1.0000
  S   S298      1.0  0.70672  0.46761  0.16729  1.0000
  C   C721      1.0  0.76817  0.45178  0.24511  1.0000
  C   C722      1.0  0.75947  0.46126  0.26278  1.0000
  C   C723      1.0  0.77812  0.46556  0.27981  1.0000
  C   C724      1.0  0.80570  0.46033  0.27989  1.0000
  C   C725      1.0  0.81427  0.45060  0.26268  1.0000
  C   C726      1.0  0.79566  0.44640  0.24546  1.0000
  H   H1144     1.0  0.73825  0.46510  0.26366  1.0000
  H   H1145     1.0  0.77103  0.47294  0.29323  1.0000
  H   H1146     1.0  0.83532  0.44641  0.26238  1.0000
  H   H1147     1.0  0.80272  0.43897  0.23213  1.0000
  H   H1148     1.0  0.70794  0.42765  0.11840  1.0000
  H   H1149     1.0  0.73406  0.37214  0.02162  1.0000
  H   H1150     1.0  0.71811  0.40785  0.09202  1.0000
  S   S299      1.0  0.90557  0.47702  0.31491  1.0000
  H   H1151     1.0  0.75794  0.48033  0.17480  1.0000
  C   C727      1.0  0.70340  0.41608  0.08558  1.0000
  C   C728      1.0  0.73132  0.48631  0.21930  1.0000
  H   H1152     1.0  0.79758  0.49318  0.20674  1.0000
  H   H1153     1.0  0.78390  0.47685  0.21443  1.0000
  S   S300      1.0  0.69737  0.40144  0.04372  1.0000
  C   C729      1.0  0.75402  0.49137  0.17789  1.0000
  C   C730      1.0  0.78011  0.48802  0.21653  1.0000
  H   H1154     1.0  0.72057  0.35284  0.99839  1.0000
  H   H1155     1.0  0.73365  0.47518  0.21689  1.0000
  C   C731      1.0  0.69023  0.41554  0.06228  1.0000
  H   H1156     1.0  0.71321  0.38408  0.00159  1.0000
  C   C732      1.0  0.67871  0.43796  0.09218  1.0000
  C   C733      1.0  0.00926  0.45633  0.30575  1.0000
  H   H1157     1.0  0.78056  0.48931  0.23753  1.0000
  C   C734      1.0  0.73384  0.37859  0.00290  1.0000
  H   H1158     1.0  0.71108  0.49025  0.21188  1.0000
  H   H1159     1.0  0.68764  0.49412  0.13460  1.0000
  Fe  Fe153     1.0  0.93542  0.45827  0.31760  1.0000
  S   S301      1.0  0.90157  0.44388  0.31736  1.0000
  Fe  Fe154     1.0  0.87158  0.46248  0.31841  1.0000
  H   H1160     1.0  0.82446  0.43304  0.31596  1.0000
  Fe  Fe155     1.0  0.90689  0.41170  0.59133  1.0000
  S   S302      1.0  0.86656  0.40731  0.57631  1.0000
  S   S303      1.0  0.91207  0.42283  0.62658  1.0000
  Fe  Fe156     1.0  0.93934  0.39653  0.55054  1.0000
  S   S304      1.0  0.90196  0.39100  0.53219  1.0000
  S   S305      1.0  0.97971  0.38994  0.53211  1.0000
  Fe  Fe157     1.0  0.88616  0.41261  0.53696  1.0000
  S   S306      1.0  0.86810  0.42809  0.50616  1.0000
  Fe  Fe158     1.0  0.88643  0.38604  0.57309  1.0000
  S   S307      1.0  0.86842  0.36554  0.58238  1.0000
  S   S308      1.0  0.92504  0.41852  0.55251  1.0000
  S   S309      1.0  0.92531  0.39009  0.59095  1.0000
  S   S310      1.0  0.93665  0.45670  0.36058  1.0000
  S   S311      1.0  0.86970  0.46184  0.36205  1.0000
  H   H1161     1.0  0.94234  0.35946  0.61066  1.0000
  Fe  Fe159     1.0  0.90079  0.44403  0.36070  1.0000
  S   S312      1.0  0.89728  0.42449  0.38676  1.0000
  C   C735      1.0  0.87588  0.42681  0.47301  1.0000
  C   C736      1.0  0.87350  0.43866  0.45583  1.0000
  C   C737      1.0  0.88035  0.43811  0.42942  1.0000
  C   C738      1.0  0.88898  0.42561  0.41987  1.0000
  C   C739      1.0  0.89084  0.41371  0.43695  1.0000
  C   C740      1.0  0.88462  0.41432  0.46349  1.0000
  H   H1162     1.0  0.86668  0.44836  0.46307  1.0000
  H   H1163     1.0  0.87883  0.44736  0.41649  1.0000
  H   H1164     1.0  0.89723  0.40399  0.42964  1.0000
  H   H1165     1.0  0.88615  0.40510  0.47651  1.0000
  H   H1166     1.0  0.93183  0.43239  0.45805  1.0000
  C   C741      1.0  0.95928  0.45238  0.63476  1.0000
  C   C742      1.0  0.87297  0.34127  0.61305  1.0000
  C   C743      1.0  0.87717  0.35528  0.61093  1.0000
  C   C744      1.0  0.88884  0.36078  0.63129  1.0000
  H   H1167     1.0  0.00014  0.41457  0.44870  1.0000
  H   H1168     1.0  0.94218  0.40683  0.45923  1.0000
  H   H1169     1.0  0.86376  0.33696  0.59744  1.0000
  H   H1170     1.0  0.89183  0.37158  0.63004  1.0000
  Fe  Fe160     1.0  0.90555  0.47469  0.35818  1.0000
  C   C745      1.0  0.86895  0.46560  0.62795  1.0000
  C   C746      1.0  0.86871  0.45863  0.60567  1.0000
  C   C747      1.0  0.88147  0.44536  0.60517  1.0000
  C   C748      1.0  0.89417  0.43898  0.62709  1.0000
  C   C749      1.0  0.00677  0.39402  0.55010  1.0000
  N   N71       1.0  0.81203  0.43233  0.35622  1.0000
  H   H1171     1.0  0.88153  0.44010  0.58782  1.0000
  H   H1172     1.0  0.00757  0.47935  0.39102  1.0000
  H   H1173     1.0  0.83927  0.43821  0.38381  1.0000
  H   H1174     1.0  0.93415  0.34210  0.60970  1.0000
  C   C750      1.0  0.79651  0.44585  0.35370  1.0000
  H   H1175     1.0  0.84637  0.42194  0.33717  1.0000
  H   H1176     1.0  0.85876  0.46348  0.58872  1.0000
  H   H1177     1.0  0.97608  0.33619  0.55010  1.0000
  H   H1178     1.0  0.92670  0.36492  0.56612  1.0000
  C   C751      1.0  0.97696  0.48919  0.33426  1.0000
  C   C752      1.0  0.88088  0.33274  0.63514  1.0000
  H   H1179     1.0  0.77694  0.42158  0.36954  1.0000
  C   C753      1.0  0.99321  0.47892  0.37523  1.0000
  C   C754      1.0  0.82494  0.43024  0.38157  1.0000
  H   H1180     1.0  0.98030  0.47921  0.32591  1.0000
  H   H1181     1.0  0.87778  0.32194  0.63648  1.0000
  H   H1182     1.0  0.98110  0.39980  0.58255  1.0000
  C   C755      1.0  0.79332  0.42149  0.35408  1.0000
  H   H1183     1.0  0.84717  0.44011  0.33599  1.0000
  H   H1184     1.0  0.95356  0.44179  0.64081  1.0000
  C   C756      1.0  0.89374  0.44581  0.64957  1.0000
  H   H1185     1.0  0.94034  0.45849  0.62836  1.0000
  H   H1186     1.0  0.99724  0.46881  0.36740  1.0000
  S   S313      1.0  0.91751  0.49045  0.38358  1.0000
  H   H1187     1.0  0.97043  0.42256  0.43283  1.0000
  C   C757      1.0  0.98338  0.42282  0.44984  1.0000
  N   N72       1.0  0.99629  0.49023  0.35485  1.0000
  C   C758      1.0  0.94504  0.43213  0.47494  1.0000
  H   H1188     1.0  0.83715  0.42021  0.38402  1.0000
  H   H1189     1.0  0.80950  0.43058  0.39782  1.0000
  H   H1190     1.0  0.94166  0.40623  0.49380  1.0000
  N   N73       1.0  0.96709  0.42103  0.47430  1.0000
  H   H1191     1.0  0.81009  0.45426  0.35523  1.0000
  H   H1192     1.0  0.94080  0.35529  0.54063  1.0000
  H   H1193     1.0  0.95335  0.44232  0.47457  1.0000
  C   C759      1.0  0.95052  0.34924  0.60508  1.0000
  C   C760      1.0  0.00176  0.39856  0.57463  1.0000
  H   H1194     1.0  0.80451  0.41118  0.35573  1.0000
  H   H1195     1.0  0.00167  0.41309  0.49659  1.0000
  H   H1196     1.0  0.88183  0.48687  0.57657  1.0000
  H   H1197     1.0  0.98740  0.33214  0.58249  1.0000
  H   H1198     1.0  0.78323  0.42281  0.33515  1.0000
  H   H1199     1.0  0.95538  0.49005  0.34168  1.0000
  H   H1200     1.0  0.96786  0.34572  0.61769  1.0000
  H   H1201     1.0  0.97096  0.39904  0.47670  1.0000
  H   H1202     1.0  0.98719  0.36046  0.55149  1.0000
  H   H1203     1.0  0.91829  0.34770  0.56522  1.0000
  C   C761      1.0  0.95494  0.40771  0.47603  1.0000
  H   H1204     1.0  0.97353  0.45174  0.61765  1.0000
  C   C762      1.0  0.83341  0.43176  0.33541  1.0000
  H   H1205     1.0  0.93154  0.43078  0.49263  1.0000
  C   C763      1.0  0.96952  0.33609  0.57084  1.0000
  H   H1206     1.0  0.95355  0.32863  0.57456  1.0000
  H   H1207     1.0  0.78005  0.44669  0.36895  1.0000
  C   C764      1.0  0.93524  0.35460  0.56162  1.0000
  S   S314      1.0  0.85392  0.48242  0.62775  1.0000
  C   C765      1.0  0.98066  0.35946  0.57228  1.0000
  N   N74       1.0  0.95900  0.34985  0.57745  1.0000
  H   H1208     1.0  0.99285  0.43278  0.44784  1.0000
  H   H1209     1.0  0.97343  0.36990  0.57740  1.0000
  H   H1210     1.0  0.99907  0.35617  0.58363  1.0000
  H   H1211     1.0  0.99712  0.44752  0.34339  1.0000
  H   H1212     1.0  0.97211  0.47925  0.38398  1.0000
  H   H1213     1.0  0.97328  0.42002  0.51507  1.0000
  C   C766      1.0  0.98495  0.42142  0.49632  1.0000
  H   H1214     1.0  0.99454  0.43130  0.49572  1.0000
  H   H1215     1.0  0.78695  0.44786  0.33457  1.0000
  C   C767      1.0  0.88141  0.45915  0.64993  1.0000
  H   H1216     1.0  0.99270  0.47273  0.62994  1.0000
  H   H1217     1.0  0.85718  0.49173  0.53593  1.0000
  C   C768      1.0  0.97850  0.47251  0.64716  1.0000
  H   H1218     1.0  0.95978  0.47923  0.64221  1.0000
  C   C769      1.0  0.89663  0.35229  0.65337  1.0000
  H   H1219     1.0  0.81125  0.33421  0.69612  1.0000
  H   H1220     1.0  0.68530  0.46708  0.82508  1.0000
  H   H1221     1.0  0.70933  0.27478  0.77144  1.0000
  Fe  Fe161     1.0  0.88560  0.27653  0.68420  1.0000
  S   S315      1.0  0.90216  0.26746  0.72179  1.0000
  H   H1222     1.0  0.84777  0.31221  0.74766  1.0000
  Fe  Fe162     1.0  0.90121  0.30518  0.69239  1.0000
  S   S316      1.0  0.91913  0.29777  0.73080  1.0000
  H   H1223     1.0  0.77279  0.25178  0.77065  1.0000
  Fe  Fe163     1.0  0.93827  0.27986  0.71079  1.0000
  S   S317      1.0  0.98128  0.26931  0.70709  1.0000
  Fe  Fe164     1.0  0.88113  0.28619  0.73766  1.0000
  S   S318      1.0  0.85530  0.28510  0.77527  1.0000
  H   H1224     1.0  0.68725  0.35946  0.88630  1.0000
  S   S319      1.0  0.86240  0.29457  0.70056  1.0000
  H   H1225     1.0  0.75021  0.48447  0.82273  1.0000
  S   S320      1.0  0.72669  0.30119  0.78496  1.0000
  H   H1226     1.0  0.76059  0.45891  0.82433  1.0000
  C   C770      1.0  0.99694  0.45008  0.66354  1.0000
  H   H1227     1.0  0.88118  0.46434  0.66731  1.0000
  S   S321      1.0  0.69324  0.25069  0.86475  1.0000
  H   H1228     1.0  0.74006  0.25057  0.82278  1.0000
  Fe  Fe165     1.0  0.86479  0.49438  0.66021  1.0000
  H   H1229     1.0  0.81474  0.33743  0.76662  1.0000
  H   H1230     1.0  0.73650  0.46342  0.77052  1.0000
  H   H1231     1.0  0.86387  0.34504  0.71162  1.0000
  H   H1232     1.0  0.85162  0.34989  0.74268  1.0000
  C   C771      1.0  0.81934  0.28917  0.77758  1.0000
  C   C772      1.0  0.80415  0.29354  0.75582  1.0000
  C   C773      1.0  0.77592  0.29726  0.75851  1.0000
  C   C774      1.0  0.76234  0.29639  0.78289  1.0000
  C   C775      1.0  0.77736  0.29172  0.80460  1.0000
  C   C776      1.0  0.80572  0.28820  0.80195  1.0000
  H   H1233     1.0  0.81413  0.29409  0.73691  1.0000
  H   H1234     1.0  0.76445  0.30075  0.74155  1.0000
  H   H1235     1.0  0.76724  0.29102  0.82350  1.0000
  H   H1236     1.0  0.81723  0.28483  0.81893  1.0000
  H   H1237     1.0  0.74474  0.27344  0.76168  1.0000
  C   C777      1.0  0.73737  0.25952  0.80817  1.0000
  N   N75       1.0  0.73066  0.25537  0.78275  1.0000
  H   H1238     1.0  0.68538  0.47746  0.79484  1.0000
  H   H1239     1.0  0.98845  0.47727  0.66252  1.0000
  C   C778      1.0  0.72004  0.35998  0.98055  1.0000
  S   S322      1.0  0.87654  0.48727  0.70077  1.0000
  H   H1240     1.0  0.71677  0.49137  0.81339  1.0000
  C   C779      1.0  0.75358  0.24640  0.77297  1.0000
  S   S323      1.0  0.90376  0.32810  0.68333  1.0000
  C   C780      1.0  0.88503  0.24629  0.66059  1.0000
  C   C781      1.0  0.73845  0.45783  0.82201  1.0000
  H   H1241     1.0  0.72820  0.48148  0.77078  1.0000
  H   H1242     1.0  0.96121  0.46307  0.69488  1.0000
  Fe  Fe166     1.0  0.69715  0.29656  0.81927  1.0000
  N   N76       1.0  0.97174  0.45843  0.65595  1.0000
  H   H1243     1.0  0.86120  0.32599  0.76194  1.0000
  N   N77       1.0  0.83429  0.33222  0.73069  1.0000
  C   C782      1.0  0.82671  0.32707  0.70640  1.0000
  C   C783      1.0  0.80981  0.33351  0.74813  1.0000
  C   C784      1.0  0.84543  0.34572  0.72486  1.0000
  C   C785      1.0  0.85524  0.32257  0.74335  1.0000
  H   H1244     1.0  0.84481  0.32581  0.69291  1.0000
  C   C786      1.0  0.72615  0.26763  0.76441  1.0000
  H   H1245     1.0  0.81795  0.31696  0.71004  1.0000
  H   H1246     1.0  0.80114  0.32345  0.75309  1.0000
  H   H1247     1.0  0.83022  0.35328  0.71525  1.0000
  H   H1248     1.0  0.79340  0.34059  0.73914  1.0000
  H   H1249     1.0  0.72086  0.26654  0.81595  1.0000
  H   H1250     1.0  0.99521  0.28279  0.75214  1.0000
  H   H1251     1.0  0.74215  0.37353  0.93924  1.0000
  H   H1252     1.0  0.69516  0.44583  0.90939  1.0000
  H   H1253     1.0  0.87414  0.32146  0.73092  1.0000
  C   C787      1.0  0.73816  0.47234  0.78185  1.0000
  N   N78       1.0  0.72525  0.47016  0.80795  1.0000
  S   S324      1.0  0.68253  0.47143  0.88006  1.0000
  H   H1254     1.0  0.72063  0.48054  0.84260  1.0000
  H   H1255     1.0  0.71853  0.38517  0.95465  1.0000
  S   S325      1.0  0.92247  0.28798  0.67195  1.0000
  S   S326      1.0  0.95506  0.49228  0.70080  1.0000
  H   H1256     1.0  0.77324  0.35717  0.96653  1.0000
  C   C788      1.0  0.73889  0.37943  0.95650  1.0000
  C   C789      1.0  0.68019  0.35221  0.90153  1.0000
  C   C790      1.0  0.69585  0.46840  0.80572  1.0000
  H   H1257     1.0  0.72883  0.45597  0.84173  1.0000
  Fe  Fe167     1.0  0.67884  0.27281  0.85451  1.0000
  H   H1258     1.0  0.90306  0.44078  0.66670  1.0000
  H   H1259     1.0  0.75438  0.38713  0.95554  1.0000
  S   S327      1.0  0.70992  0.28794  0.85869  1.0000
  H   H1260     1.0  0.75643  0.26500  0.80696  1.0000
  C   C791      1.0  0.72844  0.48215  0.82228  1.0000
  H   H1261     1.0  0.76023  0.47408  0.78271  1.0000
  H   H1262     1.0  0.90577  0.35664  0.66896  1.0000
  H   H1263     1.0  0.73656  0.44856  0.81175  1.0000
  S   S328      1.0  0.86521  0.26190  0.66187  1.0000
  H   H1264     1.0  0.69259  0.45929  0.79545  1.0000
  H   H1265     1.0  0.72064  0.26494  0.74513  1.0000
  C   C792      1.0  0.70559  0.24791  0.78544  1.0000
  H   H1266     1.0  0.93329  0.46535  0.67358  1.0000
  N   N79       1.0  0.74017  0.37036  0.98075  1.0000
  C   C793      1.0  0.95224  0.45879  0.67837  1.0000
  H   H1267     1.0  0.68565  0.33508  0.87810  1.0000
  H   H1268     1.0  0.99252  0.43938  0.67025  1.0000
  H   H1269     1.0  0.72366  0.35382  0.96365  1.0000
  H   H1270     1.0  0.94609  0.44839  0.68518  1.0000
  H   H1271     1.0  0.78363  0.37098  0.98323  1.0000
  H   H1272     1.0  0.68801  0.25433  0.79319  1.0000
  C   C794      1.0  0.76790  0.36346  0.98300  1.0000
  H   H1273     1.0  0.92224  0.25441  0.67057  1.0000
  H   H1274     1.0  0.69890  0.36482  0.97918  1.0000
  H   H1275     1.0  0.00688  0.45437  0.67951  1.0000
  C   C795      1.0  0.67931  0.33840  0.89682  1.0000
  C   C796      1.0  0.91268  0.24538  0.66636  1.0000
  C   C797      1.0  0.89288  0.33824  0.65533  1.0000
  H   H1276     1.0  0.69962  0.24476  0.76663  1.0000
  N   N80       1.0  0.68372  0.52543  0.00318  1.0000
  C   C798      1.0  0.72121  0.72101  0.20391  1.0000
  H   H1277     1.0  0.69746  0.64198  0.25020  1.0000
  H   H1278     1.0  0.74792  0.62698  0.20346  1.0000
  H   H1279     1.0  0.71484  0.71772  0.22417  1.0000
  H   H1280     1.0  0.83922  0.73522  0.28881  1.0000
  C   C799      1.0  0.68856  0.63900  0.23240  1.0000
  Fe  Fe168     1.0  0.90413  0.66933  0.28753  1.0000
  H   H1281     1.0  0.70310  0.72652  0.19440  1.0000
  S   S329      1.0  0.94547  0.67624  0.27214  1.0000
  Fe  Fe169     1.0  0.84373  0.66528  0.27566  1.0000
  H   H1282     1.0  0.97175  0.69976  0.30097  1.0000
  S   S330      1.0  0.81526  0.66473  0.24215  1.0000
  H   H1283     1.0  0.72615  0.51836  0.00590  1.0000
  C   C800      1.0  0.71145  0.61641  0.23774  1.0000
  H   H1284     1.0  0.69185  0.61187  0.24376  1.0000
  S   S331      1.0  0.86684  0.68374  0.27965  1.0000
  S   S332      1.0  0.88219  0.65118  0.27912  1.0000
  H   H1285     1.0  0.73686  0.72855  0.20454  1.0000
  N   N81       1.0  0.70683  0.62878  0.21970  1.0000
  C   C801      1.0  0.89271  0.72614  0.31078  1.0000
  S   S333      1.0  0.83159  0.66208  0.31780  1.0000
  C   C802      1.0  0.72125  0.67081  0.24589  1.0000
  C   C803      1.0  0.73553  0.66852  0.22268  1.0000
  C   C804      1.0  0.76428  0.66661  0.22195  1.0000
  C   C805      1.0  0.77911  0.66710  0.24431  1.0000
  C   C806      1.0  0.76483  0.66947  0.26749  1.0000
  C   C807      1.0  0.73603  0.67128  0.26825  1.0000
  H   H1286     1.0  0.72449  0.66817  0.20533  1.0000
  H   H1287     1.0  0.77520  0.66478  0.20394  1.0000
  H   H1288     1.0  0.77598  0.66988  0.28484  1.0000
  H   H1289     1.0  0.72519  0.67306  0.28633  1.0000
  H   H1290     1.0  0.69659  0.50785  0.09308  1.0000
  C   C808      1.0  0.71046  0.69952  0.18966  1.0000
  C   C809      1.0  0.97945  0.65554  0.29651  1.0000
  H   H1291     1.0  0.94889  0.71340  0.31201  1.0000
  H   H1292     1.0  0.70416  0.69553  0.20956  1.0000
  H   H1293     1.0  0.76470  0.69336  0.19276  1.0000
  C   C810      1.0  0.00525  0.64947  0.30383  1.0000
  H   H1294     1.0  0.70776  0.51917  0.03635  1.0000
  C   C811      1.0  0.97744  0.66822  0.28197  1.0000
  H   H1295     1.0  0.00006  0.68471  0.26415  1.0000
  C   C812      1.0  0.68405  0.50514  0.13335  1.0000
  N   N82       1.0  0.73190  0.70921  0.18991  1.0000
  C   C813      1.0  0.95303  0.70210  0.31311  1.0000
  H   H1296     1.0  0.71753  0.69064  0.17873  1.0000
  C   C814      1.0  0.73327  0.63455  0.21238  1.0000
  H   H1297     1.0  0.93581  0.69792  0.30394  1.0000
  H   H1298     1.0  0.70718  0.61756  0.18605  1.0000
  C   C815      1.0  0.74928  0.50827  0.20879  1.0000
  C   C816      1.0  0.68352  0.52713  0.10783  1.0000
  C   C817      1.0  0.82582  0.74046  0.27360  1.0000
  H   H1299     1.0  0.80432  0.73986  0.28109  1.0000
  H   H1300     1.0  0.70257  0.50573  0.01643  1.0000
  H   H1301     1.0  0.68995  0.63434  0.18236  1.0000
  H   H1302     1.0  0.77258  0.70926  0.20381  1.0000
  H   H1303     1.0  0.72123  0.61881  0.25553  1.0000
  H   H1304     1.0  0.82867  0.73448  0.25647  1.0000
  H   H1305     1.0  0.72939  0.51260  0.20076  1.0000
  H   H1306     1.0  0.73059  0.64364  0.19811  1.0000
  C   C818      1.0  0.69399  0.62519  0.19631  1.0000
  C   C819      1.0  0.70605  0.51678  0.01599  1.0000
  C   C820      1.0  0.68176  0.72761  0.11359  1.0000
  H   H1307     1.0  0.74728  0.70536  0.15172  1.0000
  H   H1308     1.0  0.74310  0.63786  0.22943  1.0000
  H   H1309     1.0  0.74884  0.51024  0.22951  1.0000
  H   H1310     1.0  0.72504  0.60844  0.22876  1.0000
  C   C821      1.0  0.73978  0.71403  0.16308  1.0000
  C   C822      1.0  0.68361  0.74159  0.11534  1.0000
  S   S334      1.0  0.68832  0.53671  0.07807  1.0000
  C   C823      1.0  0.75600  0.70226  0.20297  1.0000
  H   H1311     1.0  0.76573  0.51407  0.19864  1.0000
  H   H1312     1.0  0.75619  0.72124  0.16243  1.0000
  H   H1313     1.0  0.90847  0.72664  0.29562  1.0000
  H   H1314     1.0  0.75068  0.69829  0.22317  1.0000
  H   H1315     1.0  0.69189  0.70445  0.18026  1.0000
  H   H1316     1.0  0.96119  0.65028  0.30165  1.0000
  H   H1317     1.0  0.72211  0.71949  0.15283  1.0000
  H   H1318     1.0  0.88528  0.70530  0.30591  1.0000
  C   C824      1.0  0.00138  0.67492  0.27546  1.0000
  S   S335      1.0  0.68502  0.67303  0.24773  1.0000
  H   H1319     1.0  0.69055  0.72296  0.09679  1.0000
  C   C825      1.0  0.68903  0.51290  0.10984  1.0000
  H   H1320     1.0  0.68489  0.64852  0.21949  1.0000
  C   C826      1.0  0.68914  0.53998  0.00324  1.0000
  H   H1321     1.0  0.00663  0.63951  0.31450  1.0000
  C   C827      1.0  0.87945  0.71406  0.31645  1.0000
  H   H1322     1.0  0.97915  0.49732  0.31819  1.0000
  H   H1323     1.0  0.70835  0.54230  0.99216  1.0000
  H   H1324     1.0  0.77025  0.49692  0.16682  1.0000
  H   H1325     1.0  0.69116  0.54284  0.02321  1.0000
  H   H1326     1.0  0.73408  0.49504  0.16924  1.0000
  Fe  Fe170     1.0  0.90679  0.55641  0.47495  1.0000
  S   S336      1.0  0.88398  0.57140  0.49943  1.0000
  S   S337      1.0  0.94979  0.54805  0.48142  1.0000
  Fe  Fe171     1.0  0.85878  0.55268  0.44324  1.0000
  S   S338      1.0  0.83115  0.56714  0.46490  1.0000
  S   S339      1.0  0.84271  0.54299  0.41005  1.0000
  Fe  Fe172     1.0  0.86624  0.58049  0.46193  1.0000
  S   S340      1.0  0.85353  0.60301  0.45422  1.0000
  Fe  Fe173     1.0  0.85064  0.55704  0.50064  1.0000
  S   S341      1.0  0.82328  0.55137  0.53530  1.0000
  S   S342      1.0  0.89252  0.56682  0.43718  1.0000
  S   S343      1.0  0.87492  0.54118  0.47923  1.0000
  C   C828      1.0  0.86495  0.73694  0.34375  1.0000
  H   H1327     1.0  0.97144  0.71412  0.35261  1.0000
  H   H1328     1.0  0.78862  0.60208  0.55385  1.0000
  H   H1329     1.0  0.94836  0.57690  0.46403  1.0000
  H   H1330     1.0  0.96913  0.50431  0.37466  1.0000
  C   C829      1.0  0.82542  0.59408  0.51776  1.0000
  C   C830      1.0  0.92958  0.69816  0.35454  1.0000
  S   S344      1.0  0.84398  0.69777  0.34498  1.0000
  N   N83       1.0  0.95596  0.69615  0.34005  1.0000
  S   S345      1.0  0.88048  0.62747  0.34013  1.0000
  H   H1331     1.0  0.91314  0.69306  0.34595  1.0000
  C   C831      1.0  0.85183  0.72476  0.34962  1.0000
  H   H1332     1.0  0.79309  0.61602  0.52960  1.0000
  H   H1333     1.0  0.79764  0.59456  0.47431  1.0000
  H   H1334     1.0  0.94941  0.67606  0.32993  1.0000
  C   C832      1.0  0.84083  0.56648  0.34705  1.0000
  C   C833      1.0  0.86304  0.61078  0.42359  1.0000
  C   C834      1.0  0.88414  0.60473  0.40866  1.0000
  C   C835      1.0  0.89016  0.61044  0.38357  1.0000
  C   C836      1.0  0.87516  0.62224  0.37315  1.0000
  C   C837      1.0  0.85475  0.62863  0.38841  1.0000
  C   C838      1.0  0.84875  0.62290  0.41364  1.0000
  H   H1335     1.0  0.89580  0.59563  0.41641  1.0000
  H   H1336     1.0  0.90628  0.60560  0.37198  1.0000
  H   H1337     1.0  0.84306  0.63771  0.38051  1.0000
  H   H1338     1.0  0.83255  0.62771  0.42518  1.0000
  C   C839      1.0  0.86330  0.52839  0.40234  1.0000
  C   C840      1.0  0.88865  0.52532  0.41353  1.0000
  C   C841      1.0  0.90499  0.51364  0.40748  1.0000
  C   C842      1.0  0.89607  0.50494  0.39029  1.0000
  C   C843      1.0  0.87080  0.50803  0.37886  1.0000
  C   C844      1.0  0.85446  0.51980  0.38484  1.0000
  H   H1339     1.0  0.89577  0.53193  0.42685  1.0000
  H   H1340     1.0  0.89081  0.58022  0.37708  1.0000
  H   H1341     1.0  0.81509  0.58481  0.37659  1.0000
  H   H1342     1.0  0.83483  0.52214  0.37615  1.0000
  C   C845      1.0  0.83706  0.54971  0.56620  1.0000
  C   C846      1.0  0.86062  0.55600  0.57113  1.0000
  C   C847      1.0  0.87082  0.55461  0.59614  1.0000
  C   C848      1.0  0.85812  0.54653  0.61606  1.0000
  C   C849      1.0  0.83492  0.54000  0.61094  1.0000
  C   C850      1.0  0.82412  0.54182  0.58622  1.0000
  H   H1343     1.0  0.87075  0.56211  0.55584  1.0000
  H   H1344     1.0  0.88874  0.55971  0.60004  1.0000
  H   H1345     1.0  0.82484  0.53385  0.62622  1.0000
  H   H1346     1.0  0.80579  0.53700  0.58257  1.0000
  C   C851      1.0  0.96808  0.57207  0.45864  1.0000
  C   C852      1.0  0.97349  0.55794  0.46392  1.0000
  C   C853      1.0  0.99894  0.55173  0.45689  1.0000
  H   H1347     1.0  0.76059  0.58412  0.51964  1.0000
  N   N84       1.0  0.79551  0.59619  0.51527  1.0000
  N   N85       1.0  0.85327  0.57739  0.35914  1.0000
  H   H1348     1.0  0.78792  0.57833  0.54092  1.0000
  H   H1349     1.0  0.88266  0.52487  0.57426  1.0000
  H   H1350     1.0  0.98451  0.67950  0.33041  1.0000
  H   H1351     1.0  0.86385  0.50135  0.36555  1.0000
  H   H1352     1.0  0.79130  0.57538  0.50760  1.0000
  H   H1353     1.0  0.93093  0.69386  0.37499  1.0000
  H   H1354     1.0  0.76704  0.60363  0.48593  1.0000
  H   H1355     1.0  0.79907  0.61152  0.48329  1.0000
  H   H1356     1.0  0.83452  0.49761  0.57740  1.0000
  H   H1357     1.0  0.76158  0.60777  0.53227  1.0000
  C   C854      1.0  0.78941  0.60173  0.48859  1.0000
  C   C855      1.0  0.97716  0.70298  0.35222  1.0000
  H   H1358     1.0  0.89460  0.56967  0.35064  1.0000
  C   C856      1.0  0.88019  0.52062  0.55547  1.0000
  H   H1359     1.0  0.85321  0.56335  0.32990  1.0000
  H   H1360     1.0  0.99598  0.58018  0.53039  1.0000
  S   S346      1.0  0.90049  0.50707  0.65166  1.0000
  H   H1361     1.0  0.92259  0.70920  0.35448  1.0000
  C   C857      1.0  0.00216  0.56945  0.52643  1.0000
  H   H1362     1.0  0.99474  0.56799  0.50706  1.0000
  H   H1363     1.0  0.99720  0.70178  0.34146  1.0000
  S   S347      1.0  0.87059  0.54520  0.64747  1.0000
  H   H1364     1.0  0.83555  0.60382  0.51356  1.0000
  H   H1365     1.0  0.88471  0.50133  0.52201  1.0000
  N   N86       1.0  0.86947  0.50694  0.55923  1.0000
  H   H1366     1.0  0.90041  0.52034  0.54493  1.0000
  H   H1367     1.0  0.00299  0.54078  0.46051  1.0000
  H   H1368     1.0  0.92454  0.51131  0.41633  1.0000
  H   H1369     1.0  0.83101  0.58954  0.53739  1.0000
  H   H1370     1.0  0.86615  0.52799  0.54395  1.0000
  H   H1371     1.0  0.88042  0.56304  0.38117  1.0000
  H   H1372     1.0  0.98516  0.59106  0.44487  1.0000
  C   C858      1.0  0.85930  0.71322  0.33620  1.0000
  C   C859      1.0  0.78320  0.58298  0.52112  1.0000
  H   H1373     1.0  0.83446  0.58704  0.50377  1.0000
  C   C860      1.0  0.88101  0.57237  0.36734  1.0000
  C   C861      1.0  0.96416  0.68138  0.34028  1.0000
  H   H1374     1.0  0.81980  0.56985  0.34079  1.0000
  S   S348      1.0  0.89563  0.66653  0.33021  1.0000
  H   H1375     1.0  0.98016  0.69859  0.37246  1.0000
  H   H1376     1.0  0.83622  0.72418  0.36493  1.0000
  H   H1377     1.0  0.83929  0.55718  0.36074  1.0000
  C   C862      1.0  0.78416  0.60595  0.53357  1.0000
  C   C863      1.0  0.98885  0.58007  0.44777  1.0000
  C   C864      1.0  0.99036  0.50343  0.36609  1.0000
  C   C865      1.0  0.84314  0.50778  0.57409  1.0000
  H   H1378     1.0  0.86421  0.59795  0.34865  1.0000
  H   H1379     1.0  0.99108  0.56255  0.54069  1.0000
  C   C866      1.0  0.85496  0.58950  0.34027  1.0000
  H   H1380     1.0  0.83440  0.59362  0.33378  1.0000
  H   H1381     1.0  0.85038  0.50909  0.52253  1.0000
  H   H1382     1.0  0.82772  0.51500  0.56393  1.0000
  C   C867      1.0  0.86527  0.50204  0.53381  1.0000
  H   H1383     1.0  0.99221  0.51220  0.35123  1.0000
  H   H1384     1.0  0.96527  0.67634  0.36025  1.0000
  H   H1385     1.0  0.83493  0.57229  0.39671  1.0000
  C   C868      1.0  0.83628  0.58115  0.38192  1.0000
  H   H1386     1.0  0.84561  0.51133  0.59351  1.0000
  H   H1387     1.0  0.84489  0.58946  0.39134  1.0000
  H   H1388     1.0  0.89237  0.50058  0.59308  1.0000
  C   C869      1.0  0.88924  0.49732  0.57357  1.0000
  H   H1389     1.0  0.00456  0.50460  0.38169  1.0000
  H   H1390     1.0  0.90948  0.49652  0.56316  1.0000
  C   C870      1.0  0.88578  0.73754  0.32459  1.0000
  Fe  Fe174     1.0  0.85716  0.67983  0.32191  1.0000
  Fe  Fe175     1.0  0.87145  0.64912  0.32176  1.0000
  H   H1391     1.0  0.86779  0.58710  0.32289  1.0000
  H   H1392     1.0  0.79312  0.53691  0.75089  1.0000
  C   C871      1.0  0.98647  0.50041  0.69854  1.0000
  C   C872      1.0  0.79836  0.53878  0.69901  1.0000
  H   H1393     1.0  0.74038  0.51311  0.80673  1.0000
  S   S349      1.0  0.88594  0.51904  0.70785  1.0000
  Fe  Fe176     1.0  0.84997  0.50579  0.71220  1.0000
  S   S350      1.0  0.82169  0.50747  0.74863  1.0000
  H   H1394     1.0  0.77343  0.50615  0.71694  1.0000
  C   C873      1.0  0.83625  0.54509  0.72215  1.0000
  S   S351      1.0  0.68838  0.50857  0.85182  1.0000
  C   C874      1.0  0.72823  0.51055  0.76837  1.0000
  C   C875      1.0  0.73804  0.50874  0.74296  1.0000
  C   C876      1.0  0.76641  0.50768  0.73651  1.0000
  C   C877      1.0  0.78552  0.50844  0.75543  1.0000
  H   H1395     1.0  0.81045  0.53940  0.68038  1.0000
  H   H1396     1.0  0.79018  0.51109  0.79559  1.0000
  S   S352      1.0  0.83587  0.51172  0.67197  1.0000
  C   C878      1.0  0.74738  0.51148  0.78719  1.0000
  H   H1397     1.0  0.84943  0.54553  0.70415  1.0000
  S   S353      1.0  0.69210  0.51121  0.77557  1.0000
  H   H1398     1.0  0.79628  0.55464  0.75439  1.0000
  C   C879      1.0  0.77571  0.51037  0.78077  1.0000
  N   N87       1.0  0.80714  0.54846  0.71647  1.0000
  C   C880      1.0  0.80365  0.56251  0.70384  1.0000
  Fe  Fe177     1.0  0.91122  0.50117  0.69284  1.0000
  H   H1399     1.0  0.84379  0.55228  0.73500  1.0000
  H   H1400     1.0  0.83953  0.53461  0.73204  1.0000
  H   H1401     1.0  0.70139  0.52386  0.96487  1.0000
  H   H1402     1.0  0.81014  0.57011  0.71644  1.0000
  C   C881      1.0  0.98739  0.51463  0.69527  1.0000
  H   H1403     1.0  0.76824  0.54952  0.73726  1.0000
  Fe  Fe178     1.0  0.87273  0.52380  0.66700  1.0000
  H   H1404     1.0  0.80109  0.52806  0.70785  1.0000
  C   C882      1.0  0.79044  0.54739  0.74080  1.0000
  H   H1405     1.0  0.96854  0.52108  0.69384  1.0000
  H   H1406     1.0  0.81621  0.56355  0.68547  1.0000
  H   H1407     1.0  0.72355  0.50802  0.72815  1.0000
  H   H1408     1.0  0.77637  0.54084  0.69456  1.0000
  H   H1409     1.0  0.78194  0.56537  0.69912  1.0000
  H   H1410     1.0  0.67817  0.51107  0.97543  1.0000
  C   C883      1.0  0.68214  0.52198  0.97628  1.0000
  S   S354      1.0  0.69780  0.78334  0.25739  1.0000
  C   C884      1.0  0.86102  0.75514  0.25720  1.0000
  S   S355      1.0  0.89132  0.78707  0.28591  1.0000
  C   C885      1.0  0.98637  0.79291  0.29671  1.0000
  Fe  Fe179     1.0  0.91058  0.80193  0.30830  1.0000
  H   H1411     1.0  0.79213  0.76199  0.25479  1.0000
  H   H1412     1.0  0.73912  0.79266  0.21851  1.0000
  H   H1413     1.0  0.86439  0.74982  0.23928  1.0000
  H   H1414     1.0  0.75515  0.95268  0.12549  1.0000
  H   H1415     1.0  0.71245  0.81383  0.26943  1.0000
  H   H1416     1.0  0.71047  0.83117  0.27766  1.0000
  C   C886      1.0  0.00278  0.81482  0.30300  1.0000
  H   H1417     1.0  0.85872  0.96350  0.30628  1.0000
  Fe  Fe180     1.0  0.85031  0.79655  0.29870  1.0000
  H   H1418     1.0  0.74592  0.93397  0.09961  1.0000
  H   H1419     1.0  0.69216  0.82305  0.20132  1.0000
  S   S356      1.0  0.94708  0.81459  0.29853  1.0000
  S   S357      1.0  0.68371  0.79454  0.18263  1.0000
  C   C887      1.0  0.73251  0.78711  0.25913  1.0000
  C   C888      1.0  0.77449  0.79584  0.23994  1.0000
  C   C889      1.0  0.74783  0.79189  0.23735  1.0000
  H   H1420     1.0  0.78595  0.79977  0.22302  1.0000
  N   N88       1.0  0.83241  0.75480  0.26723  1.0000
  C   C890      1.0  0.70312  0.94016  0.09615  1.0000
  C   C891      1.0  0.70442  0.81988  0.21864  1.0000
  C   C892      1.0  0.80714  0.97268  0.29396  1.0000
  H   H1421     1.0  0.81886  0.77231  0.24204  1.0000
  C   C893      1.0  0.71370  0.96160  0.12559  1.0000
  H   H1422     1.0  0.73702  0.82517  0.25563  1.0000
  H   H1423     1.0  0.84297  0.75750  0.30593  1.0000
  H   H1424     1.0  0.75542  0.98472  0.09443  1.0000
  H   H1425     1.0  0.81248  0.98185  0.28118  1.0000
  H   H1426     1.0  0.72540  0.97992  0.08050  1.0000
  C   C894      1.0  0.71503  0.82458  0.26156  1.0000
  S   S358      1.0  0.86986  0.81293  0.31759  1.0000
  C   C895      1.0  0.81385  0.76155  0.24753  1.0000
  H   H1427     1.0  0.96972  0.78667  0.29401  1.0000
  C   C896      1.0  0.70034  0.84308  0.23014  1.0000
  C   C897      1.0  0.72943  0.94137  0.10442  1.0000
  H   H1428     1.0  0.73307  0.78206  0.30030  1.0000
  H   H1429     1.0  0.69495  0.85007  0.24548  1.0000
  H   H1430     1.0  0.68691  0.84638  0.21360  1.0000
  S   S359      1.0  0.69863  0.92654  0.07752  1.0000
  Fe  Fe181     1.0  0.69232  0.98955  0.16244  1.0000
  C   C898      1.0  0.74156  0.98731  0.07799  1.0000
  N   N89       1.0  0.69703  0.82869  0.23968  1.0000
  S   S360      1.0  0.72241  0.97483  0.14340  1.0000
  C   C899      1.0  0.73466  0.95198  0.11908  1.0000
  C   C900      1.0  0.77157  0.78949  0.28583  1.0000
  H   H1431     1.0  0.86680  0.76584  0.25275  1.0000
  C   C901      1.0  0.68730  0.96073  0.11687  1.0000
  S   S361      1.0  0.90475  0.75198  0.31789  1.0000
  H   H1432     1.0  0.78047  0.78861  0.30462  1.0000
  H   H1433     1.0  0.75349  0.98543  0.05986  1.0000
  C   C902      1.0  0.78647  0.79474  0.26417  1.0000
  H   H1434     1.0  0.70058  0.80909  0.22480  1.0000
  S   S362      1.0  0.81991  0.80019  0.26612  1.0000
  H   H1435     1.0  0.81435  0.96358  0.28370  1.0000
  H   H1436     1.0  0.72180  0.84456  0.22331  1.0000
  H   H1437     1.0  0.68908  0.86686  0.99930  1.0000
  H   H1438     1.0  0.87560  0.75009  0.27154  1.0000
  C   C903      1.0  0.74468  0.78578  0.28331  1.0000
  H   H1439     1.0  0.78442  0.97309  0.29584  1.0000
  H   H1440     1.0  0.83372  0.77299  0.28649  1.0000
  H   H1441     1.0  0.69372  0.74760  0.09983  1.0000
  H   H1442     1.0  0.80772  0.76214  0.29899  1.0000
  C   C904      1.0  0.82901  0.76215  0.29072  1.0000
  C   C905      1.0  0.98086  0.80680  0.29988  1.0000
  H   H1443     1.0  0.72638  0.82018  0.21250  1.0000
  H   H1444     1.0  0.85513  0.98181  0.30303  1.0000
  H   H1445     1.0  0.90854  0.83554  0.31786  1.0000
  H   H1446     1.0  0.99880  0.82560  0.30510  1.0000
  N   N90       1.0  0.81965  0.97235  0.31937  1.0000
  H   H1447     1.0  0.81534  0.75615  0.22964  1.0000
  C   C906      1.0  0.68192  0.94990  0.10222  1.0000
  C   C907      1.0  0.84964  0.97259  0.31563  1.0000
  H   H1448     1.0  0.98694  0.98282  0.31989  1.0000
  H   H1449     1.0  0.95590  0.89174  0.56973  1.0000
  H   H1450     1.0  0.81660  0.95125  0.47476  1.0000
  Fe  Fe182     1.0  0.86965  0.79832  0.35323  1.0000
  H   H1451     1.0  0.95704  0.83756  0.32498  1.0000
  S   S363      1.0  0.86480  0.80528  0.39365  1.0000
  H   H1452     1.0  0.92388  0.89700  0.55547  1.0000
  N   N91       1.0  0.95757  0.89437  0.52822  1.0000
  H   H1453     1.0  0.94914  0.90911  0.55617  1.0000
  H   H1454     1.0  0.81065  0.92077  0.47989  1.0000
  H   H1455     1.0  0.99311  0.90562  0.53020  1.0000
  S   S364      1.0  0.91115  0.78803  0.34465  1.0000
  Fe  Fe183     1.0  0.85308  0.91309  0.43831  1.0000
  S   S365      1.0  0.83508  0.89575  0.46238  1.0000
  S   S366      1.0  0.82851  0.93310  0.42871  1.0000
  Fe  Fe184     1.0  0.90947  0.89789  0.43611  1.0000
  S   S367      1.0  0.89614  0.87940  0.46047  1.0000
  S   S368      1.0  0.95159  0.90125  0.41943  1.0000
  Fe  Fe185     1.0  0.85908  0.88208  0.43572  1.0000
  S   S369      1.0  0.83790  0.86790  0.41241  1.0000
  Fe  Fe186     1.0  0.87348  0.89494  0.48471  1.0000
  S   S370      1.0  0.87208  0.89407  0.52862  1.0000
  S   S371      1.0  0.87418  0.89973  0.40997  1.0000
  S   S372      1.0  0.88995  0.91305  0.46201  1.0000
  H   H1456     1.0  0.96176  0.98241  0.38814  1.0000
  S   S373      1.0  0.90863  0.97418  0.37237  1.0000
  C   C908      1.0  0.85008  0.94474  0.41264  1.0000
  C   C909      1.0  0.84055  0.95838  0.40613  1.0000
  C   C910      1.0  0.85823  0.96764  0.39351  1.0000
  C   C911      1.0  0.88537  0.96320  0.38761  1.0000
  C   C912      1.0  0.89473  0.94960  0.39416  1.0000
  C   C913      1.0  0.87714  0.94039  0.40654  1.0000
  H   H1457     1.0  0.81962  0.96178  0.41096  1.0000
  H   H1458     1.0  0.85109  0.97820  0.38878  1.0000
  H   H1459     1.0  0.91570  0.94612  0.38961  1.0000
  H   H1460     1.0  0.88464  0.92989  0.41128  1.0000
  C   C914      1.0  0.87536  0.93281  0.57120  1.0000
  C   C915      1.0  0.86921  0.92045  0.58483  1.0000
  C   C916      1.0  0.86825  0.90862  0.57162  1.0000
  C   C917      1.0  0.87332  0.90909  0.54477  1.0000
  C   C918      1.0  0.88012  0.92139  0.53143  1.0000
  C   C919      1.0  0.88119  0.93314  0.54456  1.0000
  H   H1461     1.0  0.86321  0.89912  0.58222  1.0000
  H   H1462     1.0  0.88451  0.92196  0.51097  1.0000
  H   H1463     1.0  0.88619  0.94263  0.53391  1.0000
  C   C920      1.0  0.85761  0.82274  0.39866  1.0000
  C   C921      1.0  0.84346  0.83170  0.38062  1.0000
  C   C922      1.0  0.83758  0.84548  0.38526  1.0000
  C   C923      1.0  0.84636  0.85053  0.40763  1.0000
  C   C924      1.0  0.86102  0.84163  0.42548  1.0000
  C   C925      1.0  0.86633  0.82774  0.42111  1.0000
  H   H1464     1.0  0.83640  0.82793  0.36341  1.0000
  H   H1465     1.0  0.82603  0.85228  0.37148  1.0000
  H   H1466     1.0  0.86763  0.84538  0.44289  1.0000
  H   H1467     1.0  0.87718  0.82083  0.43521  1.0000
  H   H1468     1.0  0.78423  0.95621  0.49016  1.0000
  H   H1469     1.0  0.82200  0.93482  0.54188  1.0000
  H   H1470     1.0  0.80405  0.95113  0.53370  1.0000
  H   H1471     1.0  0.96514  0.96473  0.38236  1.0000
  H   H1472     1.0  0.94974  0.85492  0.33229  1.0000
  H   H1473     1.0  0.78678  0.94320  0.46786  1.0000
  N   N92       1.0  0.80298  0.93674  0.50513  1.0000
  H   H1474     1.0  0.94277  0.82451  0.37963  1.0000
  C   C926      1.0  0.00215  0.90042  0.43905  1.0000
  H   H1475     1.0  0.83644  0.94681  0.51806  1.0000
  C   C927      1.0  0.95104  0.88026  0.52484  1.0000
  H   H1476     1.0  0.93234  0.84861  0.38907  1.0000
  H   H1477     1.0  0.82556  0.91709  0.51092  1.0000
  C   C928      1.0  0.77704  0.93151  0.51577  1.0000
  C   C929      1.0  0.81693  0.94265  0.52559  1.0000
  C   C930      1.0  0.79731  0.94735  0.48364  1.0000
  H   H1478     1.0  0.76309  0.93980  0.52332  1.0000
  H   H1479     1.0  0.92850  0.87935  0.52565  1.0000
  N   N93       1.0  0.92456  0.84050  0.35332  1.0000
  C   C931      1.0  0.97525  0.98022  0.33826  1.0000
  H   H1480     1.0  0.79066  0.95930  0.33878  1.0000
  H   H1481     1.0  0.93305  0.81897  0.34971  1.0000
  H   H1482     1.0  0.86461  0.92007  0.60539  1.0000
  H   H1483     1.0  0.98993  0.97147  0.40112  1.0000
  H   H1484     1.0  0.92290  0.90325  0.50737  1.0000
  C   C932      1.0  0.90323  0.84214  0.33386  1.0000
  H   H1485     1.0  0.81395  0.99408  0.32127  1.0000
  C   C933      1.0  0.94540  0.90379  0.50734  1.0000
  C   C934      1.0  0.97639  0.88076  0.45158  1.0000
  H   H1486     1.0  0.95894  0.87704  0.50585  1.0000
  H   H1487     1.0  0.76609  0.92694  0.50077  1.0000
  H   H1488     1.0  0.90751  0.82298  0.37376  1.0000
  H   H1489     1.0  0.78076  0.92341  0.53190  1.0000
  C   C935      1.0  0.97695  0.97379  0.38406  1.0000
  H   H1490     1.0  0.89707  0.84708  0.38356  1.0000
  H   H1491     1.0  0.96762  0.84276  0.35485  1.0000
  S   S374      1.0  0.87369  0.94844  0.58555  1.0000
  Fe  Fe187     1.0  0.87626  0.95281  0.62760  1.0000
  H   H1492     1.0  0.84035  0.92894  0.48691  1.0000
  C   C936      1.0  0.92715  0.82615  0.36462  1.0000
  H   H1493     1.0  0.86373  0.98840  0.57237  1.0000
  H   H1494     1.0  0.91440  0.86052  0.36615  1.0000
  S   S375      1.0  0.90044  0.97119  0.62729  1.0000
  H   H1495     1.0  0.96005  0.87281  0.54009  1.0000
  H   H1496     1.0  0.95368  0.90124  0.48797  1.0000
  C   C937      1.0  0.82069  0.92537  0.49540  1.0000
  C   C938      1.0  0.80876  0.98441  0.33252  1.0000
  C   C939      1.0  0.81312  0.95974  0.33532  1.0000
  H   H1497     1.0  0.95811  0.87540  0.45058  1.0000
  H   H1498     1.0  0.90017  0.98840  0.57418  1.0000
  C   C940      1.0  0.97835  0.89360  0.43804  1.0000
  H   H1499     1.0  0.00363  0.91039  0.42868  1.0000
  H   H1500     1.0  0.99665  0.89268  0.50815  1.0000
  Fe  Fe188     1.0  0.86663  0.98001  0.65178  1.0000
  S   S376      1.0  0.84699  0.78257  0.33536  1.0000
  H   H1501     1.0  0.00205  0.95610  0.35287  1.0000
  C   C941      1.0  0.95094  0.84413  0.34086  1.0000
  H   H1502     1.0  0.85956  0.74567  0.35461  1.0000
  H   H1503     1.0  0.99701  0.86473  0.47628  1.0000
  Fe  Fe189     1.0  0.88884  0.77380  0.32324  1.0000
  C   C942      1.0  0.91687  0.84959  0.37391  1.0000
  H   H1504     1.0  0.78609  0.98484  0.33495  1.0000
  H   H1505     1.0  0.82090  0.95043  0.32591  1.0000
  C   C943      1.0  0.94621  0.89824  0.55351  1.0000
  H   H1506     1.0  0.90039  0.85288  0.32518  1.0000
  C   C944      1.0  0.00874  0.98918  0.36342  1.0000
  H   H1507     1.0  0.94937  0.91459  0.50940  1.0000
  S   S377      1.0  0.84056  0.96256  0.64968  1.0000
  H   H1508     1.0  0.96043  0.98912  0.34125  1.0000
  C   C945      1.0  0.98754  0.89517  0.52719  1.0000
  H   H1509     1.0  0.88313  0.83928  0.34252  1.0000
  C   C946      1.0  0.99839  0.87472  0.46598  1.0000
  N   N94       1.0  0.99348  0.97714  0.36025  1.0000
  H   H1510     1.0  0.96296  0.97147  0.33554  1.0000
  H   H1511     1.0  0.81738  0.98438  0.35193  1.0000
  H   H1512     1.0  0.99764  0.88786  0.54205  1.0000
  H   H1513     1.0  0.85980  0.97279  0.33430  1.0000
  H   H1514     1.0  0.82260  0.95909  0.35448  1.0000
  H   H1515     1.0  0.70002  0.95900  0.93012  1.0000
  S   S378      1.0  0.68623  0.94108  0.89086  1.0000
  S   S379      1.0  0.70930  0.95406  0.75670  1.0000
  C   C947      1.0  0.81227  0.98468  0.69932  1.0000
  H   H1516     1.0  0.81005  0.97352  0.70157  1.0000
  Fe  Fe190     1.0  0.91922  0.96153  0.66377  1.0000
  Fe  Fe191     1.0  0.86169  0.95370  0.68548  1.0000
  C   C948      1.0  0.00146  0.94673  0.68485  1.0000
  S   S380      1.0  0.83710  0.94697  0.72268  1.0000
  N   N95       1.0  0.80972  0.99062  0.72439  1.0000
  C   C949      1.0  0.69269  0.97990  0.89371  1.0000
  H   H1517     1.0  0.77899  0.97742  0.73970  1.0000
  H   H1518     1.0  0.82868  0.97271  0.74520  1.0000
  S   S381      1.0  0.88635  0.97190  0.68852  1.0000
  S   S382      1.0  0.96428  0.96672  0.66170  1.0000
  C   C950      1.0  0.74504  0.95230  0.74790  1.0000
  C   C951      1.0  0.76545  0.95016  0.76614  1.0000
  C   C952      1.0  0.79334  0.94841  0.75807  1.0000
  C   C953      1.0  0.80140  0.94901  0.73169  1.0000
  C   C954      1.0  0.78099  0.95129  0.71346  1.0000
  C   C955      1.0  0.75310  0.95285  0.72153  1.0000
  H   H1519     1.0  0.75976  0.94960  0.78649  1.0000
  H   H1520     1.0  0.80880  0.94655  0.77242  1.0000
  H   H1521     1.0  0.78666  0.95162  0.69312  1.0000
  H   H1522     1.0  0.73764  0.95444  0.70716  1.0000
  H   H1523     1.0  0.68222  0.88633  0.96530  1.0000
  H   H1524     1.0  0.71311  0.98411  0.89295  1.0000
  H   H1525     1.0  0.79674  0.98948  0.68568  1.0000
  H   H1526     1.0  0.85186  0.98506  0.73294  1.0000
  S   S383      1.0  0.89646  0.94240  0.66324  1.0000
  S   S384      1.0  0.69603  0.96613  0.83059  1.0000
  C   C956      1.0  0.83094  0.98389  0.74157  1.0000
  H   H1527     1.0  0.98407  0.94098  0.69093  1.0000
  H   H1528     1.0  0.69544  0.96968  0.88611  1.0000
  C   C957      1.0  0.78234  0.98849  0.73635  1.0000
  H   H1529     1.0  0.69695  0.93249  0.94385  1.0000
  H   H1530     1.0  0.76581  0.99333  0.72383  1.0000
  Fe  Fe192     1.0  0.68461  0.95714  0.79483  1.0000
  C   C958      1.0  0.99735  0.95941  0.67054  1.0000
  C   C959      1.0  0.69795  0.96941  0.93711  1.0000
  H   H1531     1.0  0.71892  0.97287  0.93768  1.0000
  H   H1532     1.0  0.77966  0.99282  0.75537  1.0000
  H   H1533     1.0  0.68925  0.96835  0.95722  1.0000
  H   H1534     1.0  0.83266  0.98610  0.68994  1.0000
  H   H1535     1.0  0.82983  0.98816  0.76064  1.0000
  H   H1536     1.0  0.67959  0.98664  0.88014  1.0000
  N   N96       1.0  0.68045  0.97896  0.92019  1.0000
  C   C960      1.0  0.67823  0.99265  0.92992  1.0000
