data_image0
_chemical_formula_structural       FeS2FeS2FeSFeS3FeS2FeS2FeSFeS3FeS2FeS2FeSFeS3FeS2FeS2FeSFeS3FeS2FeS2FeSFeS3FeS2FeS2FeSFeS3FeS2FeS2FeSFeS3FeS2FeS2FeSFeS3FeS2FeS2FeSFeS3FeS2FeS2FeSFeS3FeS2FeS2FeSFeS3FeS2FeS2FeSFeS3FeS2FeS2FeSFeS3FeS2FeS2FeSFeS3FeS2FeS2FeSFeS3FeS2FeS2FeSFeS3FeS2FeS2FeSFeS3FeS2FeS2FeSFeS3FeS2FeS2FeSFeS3FeS2FeS2FeSFeS3FeS2FeS2FeSFeS3FeS2FeS2FeSFeS3FeS2FeS2FeSFeS3FeS2FeS2FeSFeS3FeS2FeS2FeSFeS3FeS2FeS2FeSFeS3FeS2FeS2FeSFeS3FeS2FeS2FeSFeS3FeS2FeS2FeSFeS3FeS2FeS2FeSFeS3FeS2FeS2FeSFeS3FeS2FeS2FeSFeS3C6H4C6H4C6H4C6H4C6H4C6H4C6H4C6H4C6H4C6H4C6H4C6H4C6H4C6H4C6H4C6H4C6H4C6H4C6H4C6H4C6H4C6H4C6H4C6H4C6H4C6H4C6H4C6H4C6H4C6H4C6H4C6H4C6H4C6H4C6H4C6H4C6H4C6H4C6H4C6H4C6H4C6H4C6H4C6H4C6H4C6H4C6H4C6H4C6H4C6H4C6H4C6H4C6H4C6H4C6H4C6H4C6H4C6H4C6H4C6H4C6H4C6H4C6H4C6H4NC4H12NC4H12NC4H12NC4H12NC4H12NC4H12NC4H12NC4H12NC4H12NC4H12NC4H12NC4H12NC4H12NC4H12NC4H12NC4H12NC4H12NC4H12NC4H12NC4H12NC4H12NC4H12NC4H12NC4H12NC4H12NC4H12NC4H12NC4H12NC4H12NC4H12NC4H12NC4H12NC4H12NC4H12NC4H12NC4H12NC4H12NC4H12NC4H12NC4H12NC4H12NC4H12NC4H12NC4H12NC4H12NC4H12NC4H12NC4H12NC4H12NC4H12NC4H12NC4H12NC4H12NC4H12NC4H12NC4H12NC4H12NC4H12NC4H12NC4H12NC4H12NC4H12NC4H12NC4H12
_chemical_formula_sum              "Fe128 S256 C640 H1024 N64"
_cell_length_a       41.854537010610024
_cell_length_b       41.81523579639826
_cell_length_c       25.20369819616868
_cell_angle_alpha    89.69181417673187
_cell_angle_beta     89.60092717019712
_cell_angle_gamma    88.12090270701748

_space_group_name_H-M_alt    "P 1"
_space_group_IT_number       1

loop_
  _space_group_symop_operation_xyz
  'x, y, z'

loop_
  _atom_site_type_symbol
  _atom_site_label
  _atom_site_symmetry_multiplicity
  _atom_site_fract_x
  _atom_site_fract_y
  _atom_site_fract_z
  _atom_site_occupancy
  Fe  Fe1       1.0  0.5796695623028623  0.7466633962602233  0.4995171784390792  1.0000
  S   S1        1.0  0.6153238097140538  0.779428359355826  0.5338728254559216  1.0000
  S   S2        1.0  0.5926737066552339  0.6941102249317264  0.4911954839383571  1.0000
  Fe  Fe2       1.0  0.5293316022436539  0.8003917715738778  0.4872746352646269  1.0000
  S   S3        1.0  0.5606808525177845  0.8372506875791271  0.5220823751393314  1.0000
  S   S4        1.0  0.4810415393699171  0.8168093698773016  0.45706160476023483  1.0000
  Fe  Fe3       1.0  0.5986698975386363  0.8140958750546585  0.47100667260723555  1.0000
  S   S5        1.0  0.6308554348772953  0.8447619629493449  0.422276948531736  1.0000
  Fe  Fe4       1.0  0.5738801923203861  0.799101823993651  0.5815775317396289  1.0000
  S   S6        1.0  0.5828154552638698  0.8069431077591152  0.6684601034499126  1.0000
  S   S7        1.0  0.5665695410773791  0.7795555538921783  0.432029504534194  1.0000
  S   S8        1.0  0.5389379309940248  0.7639618167003961  0.5516667322587375  1.0000
  Fe  Fe5       1.0  0.4662219374570669  0.8241522445246381  0.006070103881245625  1.0000
  S   S9        1.0  0.477268146479902  0.7769438319361213  0.04451248719975065  1.0000
  S   S10       1.0  0.45372272778732775  0.8671344701724581  0.05546743528630382  1.0000
  Fe  Fe6       1.0  0.46853908316991316  0.7967554806495025  0.8950323107589276  1.0000
  S   S11       1.0  0.48012103752165686  0.7467824317550498  0.9234795993127343  1.0000
  S   S12       1.0  0.4572939975802585  0.8068585708585281  0.8093409008071787  1.0000
  Fe  Fe7       1.0  0.44316486546261347  0.7572933370599637  0.9860564178333056  1.0000
  S   S13       1.0  0.40472491309528213  0.7232371031588241  0.0069657470786073095  1.0000
  Fe  Fe8       1.0  0.5132915264565937  0.7707703580844357  0.979100710057901  1.0000
  S   S14       1.0  0.5609595958307585  0.7496981343086858  0.002427448259444853  1.0000
  S   S15       1.0  0.4286284173088612  0.8053251587954536  0.9532258623909271  1.0000
  S   S16       1.0  0.5053810203887772  0.8201228946951314  0.9450752943087181  1.0000
  Fe  Fe9       1.0  0.4616296758322446  0.9513806009602536  0.28728906509458424  1.0000
  S   S17       1.0  0.45039996506226526  0.9594779594037464  0.37296842972102145  1.0000
  S   S18       1.0  0.4994407438740016  0.9143215290192872  0.2680577679538574  1.0000
  Fe  Fe10      1.0  0.4131538653346092  0.001436675781085528  0.2506748444868775  1.0000
  S   S19       1.0  0.39740937621249317  0.014206799661227176  0.3334240797200842  1.0000
  S   S20       1.0  0.39078840635764217  0.02099684807224622  0.17640898903647292  1.0000
  Fe  Fe11      1.0  0.45004899400686804  0.011366877031562694  0.3513008336889492  1.0000
  S   S21       1.0  0.4745286745769818  0.04248244883722352  0.41002720483485333  1.0000
  Fe  Fe12      1.0  0.39930880142868436  0.961171524224706  0.34745082541783096  1.0000
  S   S22       1.0  0.3593744952866821  0.9353512726491522  0.3873148887110377  1.0000
  S   S23       1.0  0.4656645022235528  0.0030522889188056013  0.26684496384430256  1.0000
  S   S24       1.0  0.4105910782569652  0.9485326571090498  0.26305435892999474  1.0000
  Fe  Fe13      1.0  0.4836944862629965  0.0412331496218068  0.9294407903306808  1.0000
  S   S25       1.0  0.43435082030191424  0.051296537182887514  0.8988034901371202  1.0000
  S   S26       1.0  0.4968248455312956  0.058174259381422955  0.010276348269465439  1.0000
  Fe  Fe14      1.0  0.5043944352816009  0.002671783503304992  0.833143642883784  1.0000
  S   S27       1.0  0.45615613091386165  0.007951642702180184  0.7947538021362244  1.0000
  S   S28       1.0  0.5445088351100527  0.9764235061505631  0.7900497065282438  1.0000
  Fe  Fe15      1.0  0.458380200140596  0.0590085702516332  0.820674107320979  1.0000
  S   S29       1.0  0.4439060960256414  0.10081209758142307  0.7695973378786952  1.0000
  Fe  Fe16      1.0  0.43665051409036715  0.9996556537018259  0.8763520654257768  1.0000
  S   S30       1.0  0.3951336948597429  0.9700368128449279  0.8984601318215999  1.0000
  S   S31       1.0  0.5080342164347861  0.054588950563691174  0.8532588520526879  1.0000
  S   S32       1.0  0.48456833683588135  0.9887481787835697  0.9125492109157739  1.0000
  Fe  Fe17      1.0  0.7031896705591765  0.717023607107207  0.8451840621821038  1.0000
  S   S33       1.0  0.7451073592490293  0.7014734651853561  0.7952099983367861  1.0000
  S   S34       1.0  0.6567103720525862  0.7340835451187951  0.8096197555460216  1.0000
  Fe  Fe18      1.0  0.7378547955788712  0.7038810041672485  0.9479304285498422  1.0000
  S   S35       1.0  0.7832821373110599  0.6872502864388088  0.9076289455975856  1.0000
  S   S36       1.0  0.7337283716589125  0.7041055473844892  0.036683205672148  1.0000
  Fe  Fe19      1.0  0.7737303564150539  0.7288705291083719  0.8530050173008503  1.0000
  S   S37       1.0  0.8123361924936726  0.7608853732600043  0.8251160808608848  1.0000
  Fe  Fe20      1.0  0.7508384082128592  0.6612868780181955  0.8538153214316498  1.0000
  S   S38       1.0  0.7627043091334806  0.6117833176792354  0.8253064097028358  1.0000
  S   S39       1.0  0.7312275504656786  0.7482487938273211  0.8983711275779952  1.0000
  S   S40       1.0  0.7060469478812682  0.674002937860854  0.8985640050781681  1.0000
  Fe  Fe21      1.0  0.7841469351663007  0.7869069264383113  0.30559608320864423  1.0000
  S   S41       1.0  0.7811775128368968  0.8242454587847874  0.2415496365601661  1.0000
  S   S42       1.0  0.7426639372227294  0.7571712577004384  0.32844839285645144  1.0000
  Fe  Fe22      1.0  0.8541740060672409  0.7958980247555186  0.32559660678176233  1.0000
  S   S43       1.0  0.8578646002049198  0.8336429030497532  0.2629963838699358  1.0000
  S   S44       1.0  0.8981218491815788  0.7815339377469904  0.37113139583810806  1.0000
  Fe  Fe23      1.0  0.811379572982443  0.8526006342477219  0.295934958101379  1.0000
  S   S45       1.0  0.8062799037075827  0.9055497476393924  0.30687770809847664  1.0000
  Fe  Fe24      1.0  0.8277422009113437  0.8019915638810015  0.21448725714154923  1.0000
  S   S46       1.0  0.8371526798763489  0.7953480301602774  0.12779163876890975  1.0000
  S   S47       1.0  0.8098841841141182  0.8175231406465504  0.3632413630828044  1.0000
  S   S48       1.0  0.8284480430753249  0.7620146803913754  0.2739070870956325  1.0000
  Fe  Fe25      1.0  0.7202309709242282  0.958766879764077  0.8686716792675668  1.0000
  S   S49       1.0  0.7242470297200578  0.966897922599999  0.7812519704941449  1.0000
  S   S50       1.0  0.6758413305389351  0.9741492493543408  0.9138291007362389  1.0000
  Fe  Fe26      1.0  0.7896618402040977  0.9339502593338713  0.8781138299497416  1.0000
  S   S51       1.0  0.7991361547911233  0.9399812174418953  0.7909672285293107  1.0000
  S   S52       1.0  0.831422458577308  0.9155147468807214  0.9270979661582085  1.0000
  Fe  Fe27      1.0  0.7720112761393157  0.9865993834442146  0.8000287428700973  1.0000
  S   S53       1.0  0.7876580048914478  0.034247992365887825  0.7710703843491752  1.0000
  Fe  Fe28      1.0  0.7507562403758112  0.9194305249138004  0.7812266008414787  1.0000
  S   S54       1.0  0.7398660735900012  0.8803657211617706  0.7243175041428442  1.0000
  S   S55       1.0  0.7660224574958373  0.9824163097935483  0.8876358701310049  1.0000
  S   S56       1.0  0.7431608871264793  0.9094201867376843  0.8678734804958018  1.0000
  Fe  Fe29      1.0  0.6557664491217173  0.04808748826348608  0.42730403755342294  1.0000
  S   S57       1.0  0.6973246608220933  0.018161616482303078  0.3983779663609215  1.0000
  S   S58       1.0  0.6204840751998972  0.060179457082712995  0.36350900617125925  1.0000
  Fe  Fe30      1.0  0.683022378187942  0.053538682184541164  0.5368967103233196  1.0000
  S   S59       1.0  0.7272054688943774  0.024127168182194403  0.5177009003079274  1.0000
  S   S60       1.0  0.677475697896882  0.0778756110539649  0.6152529213639183  1.0000
  Fe  Fe31      1.0  0.7274453543364816  0.05235668824996642  0.44216927077951385  1.0000
  S   S61       1.0  0.7723279204045669  0.07510824635179869  0.4133467813146473  1.0000
  Fe  Fe32      1.0  0.6933625435390082  0.9926614079093369  0.4761286573088557  1.0000
  S   S62       1.0  0.6994376310745779  0.9393573799728292  0.4769337614777342  1.0000
  S   S63       1.0  0.6860652106614166  0.08473728384394374  0.4646167032120559  1.0000
  S   S64       1.0  0.6486114992909142  0.019484630264819502  0.5017941455295035  1.0000
  Fe  Fe33      1.0  0.19059870566951065  0.68559778011174  0.6481118942114567  1.0000
  S   S65       1.0  0.22732919135913138  0.6596099286832994  0.6974506131718814  1.0000
  S   S66       1.0  0.19112431355651688  0.6759085736561309  0.5607485841464493  1.0000
  Fe  Fe34      1.0  0.16288809591492737  0.7224543874312418  0.7419882055479115  1.0000
  S   S67       1.0  0.19772086333566644  0.700215818742721  0.7992600150872954  1.0000
  S   S68       1.0  0.12706670441674062  0.759019635373549  0.7712485593960197  1.0000
  Fe  Fe35      1.0  0.23361537848188518  0.7077020975546038  0.7343336153718112  1.0000
  S   S69       1.0  0.2816640241813975  0.7291391995225391  0.7412291401626866  1.0000
  Fe  Fe36      1.0  0.18742877390543855  0.6547170732656524  0.7565387957458191  1.0000
  S   S70       1.0  0.17288213562572344  0.6091385249701973  0.7959579961956716  1.0000
  S   S71       1.0  0.19939430152197918  0.7342047957368494  0.6809503517739961  1.0000
  S   S72       1.0  0.14978838512873263  0.6765501800178944  0.7036512161242409  1.0000
  Fe  Fe37      1.0  0.31826061668099676  0.7686984864215752  0.26506677723638145  1.0000
  S   S73       1.0  0.30792753426380665  0.8058411152138717  0.32709302453516775  1.0000
  S   S74       1.0  0.3693271368604328  0.7656254092544632  0.2391251340365664  1.0000
  Fe  Fe38      1.0  0.2526663465605973  0.7411248910791005  0.27326092664288165  1.0000
  S   S75       1.0  0.23716724057990615  0.7749539723294067  0.3377384498133273  1.0000
  S   S76       1.0  0.21743550230788347  0.7041206892384766  0.2503512295336241  1.0000
  Fe  Fe39      1.0  0.2605026150234746  0.8118871657354401  0.2875041741229586  1.0000
  S   S77       1.0  0.23302866718048404  0.8584587117971593  0.2795322988392699  1.0000
  Fe  Fe40      1.0  0.2859674778125012  0.7656084557440096  0.371138707070283  1.0000
  S   S78       1.0  0.2971171873003336  0.7599053708241625  0.4572855998015613  1.0000
  S   S79       1.0  0.2728783937511263  0.7789109944309266  0.21999789673522696  1.0000
  S   S80       1.0  0.29937505714337675  0.727824414392919  0.3120822707061626  1.0000
  Fe  Fe41      1.0  0.25595608959612104  0.0005264205307675685  0.11539738024369467  1.0000
  S   S81       1.0  0.20407285794063287  0.994572250328671  0.09925347442097163  1.0000
  S   S82       1.0  0.2889124470400282  0.9571805906854356  0.11630977498223732  1.0000
  Fe  Fe42      1.0  0.24781419134833566  0.07201436473444844  0.13106660365402117  1.0000
  S   S83       1.0  0.1950312652580385  0.07222109383402464  0.11557557052267772  1.0000
  S   S84       1.0  0.27019631309963527  0.11778786980956579  0.15561618521259435  1.0000
  Fe  Fe43      1.0  0.19581605438128988  0.02833884849170132  0.16689548039639074  1.0000
  S   S85       1.0  0.16125469708781412  0.016351866236009593  0.2317769124623521  1.0000
  Fe  Fe44      1.0  0.2081604642516402  0.038657127372759614  0.04928135732409927  1.0000
  S   S86       1.0  0.18184222868261804  0.0376113734932213  0.9717506719665983  1.0000
  S   S87       1.0  0.2475074663560789  0.030584775572893186  0.18745691554959618  1.0000
  S   S88       1.0  0.26127804239021485  0.04214097100019831  0.059918749073952705  1.0000
  Fe  Fe45      1.0  0.3191631143518329  0.9334071171902344  0.6761060635101237  1.0000
  S   S89       1.0  0.3203442224401515  0.9417108205535673  0.7637086986584395  1.0000
  S   S90       1.0  0.36732440360855545  0.9293260768657364  0.6366864381065596  1.0000
  Fe  Fe46      1.0  0.24663585836035565  0.9355955084150817  0.67269299361337  1.0000
  S   S91       1.0  0.2424616143166816  0.9439867861743632  0.7602521446551623  1.0000
  S   S92       1.0  0.20348389544888718  0.9299656290794212  0.6206723561251578  1.0000
  Fe  Fe47      1.0  0.2814560158324333  0.9785028483739646  0.747371049238971  1.0000
  S   S93       1.0  0.2824999752565216  0.02713511945136693  0.7847185574694833  1.0000
  Fe  Fe48      1.0  0.2812753877668061  0.9064898186285897  0.7672157036343623  1.0000
  S   S94       1.0  0.2736636311829113  0.8697519408345713  0.8307523937699854  1.0000
  S   S95       1.0  0.28320536298780874  0.9730139550894052  0.6590690022104522  1.0000
  S   S96       1.0  0.28294865381333234  0.8950417035191032  0.6805147482919681  1.0000
  Fe  Fe49      1.0  0.8992655302517996  0.763530166105251  0.6618848194172084  1.0000
  S   S97       1.0  0.8963808761905391  0.7557364513238202  0.7498270528155447  1.0000
  S   S98       1.0  0.8561228762449572  0.7637239209821255  0.609860259054058  1.0000
  Fe  Fe50      1.0  0.971531494781946  0.7666243232917077  0.6609206927312195  1.0000
  S   S99       1.0  0.9753503680120952  0.7584498976952232  0.7487320245977006  1.0000
  S   S100      1.0  0.014556193453851174  0.7712214088923456  0.6082221319566622  1.0000
  Fe  Fe51      1.0  0.9383330521690262  0.7218911866760934  0.7367006480131387  1.0000
  S   S101      1.0  0.9418448106262908  0.6711319519575701  0.7649808865745003  1.0000
  Fe  Fe52      1.0  0.9334421761961224  0.7931078802442909  0.7532496148255802  1.0000
  S   S102      1.0  0.9327177942590428  0.8353654763635469  0.8070409625909882  1.0000
  S   S103      1.0  0.9382911843897142  0.7267142794009017  0.6482958165303717  1.0000
  S   S104      1.0  0.9325280443717524  0.8041480123669069  0.6662042717801876  1.0000
  Fe  Fe53      1.0  0.0757139790917607  0.726719728330332  0.07508906899409964  1.0000
  S   S105      1.0  0.040266166474816734  0.7406742208160414  0.13844871317522844  1.0000
  S   S106      1.0  0.1235840818608564  0.7491864617226345  0.06730763752439885  1.0000
  Fe  Fe54      1.0  0.03239612674146408  0.6796215865443136  0.024131288408954617  1.0000
  S   S107      1.0  0.9928576657597389  0.6889220709699283  0.08306054889326166  1.0000
  S   S108      1.0  0.03201531829857962  0.6419410837745044  0.9605249317412639  1.0000
  Fe  Fe55      1.0  0.004300702823413216  0.7406556534793179  0.07297970391438297  1.0000
  S   S109      1.0  0.9642855268759255  0.7779782731106383  0.07070529255737938  1.0000
  Fe  Fe56      1.0  0.03168882740644818  0.6881290546353278  0.14409225534247389  1.0000
  S   S110      1.0  0.0213471403598815  0.6668305288284146  0.22433049463539226  1.0000
  S   S111      1.0  0.040584116804721404  0.7315747442636402  0.008449982206296891  1.0000
  S   S112      1.0  0.07036058980659976  0.6738954486689709  0.08615925917741346  1.0000
  Fe  Fe57      1.0  0.9300008412352941  0.9986138567458732  0.12428004113819735  1.0000
  S   S113      1.0  0.9372538042605448  0.948070229135565  0.15309099112626487  1.0000
  S   S114      1.0  0.88593308301575  0.017307811987989474  0.08326944885313718  1.0000
  Fe  Fe58      1.0  0.9922977403356396  0.020376157253119143  0.16913310308348314  1.0000
  S   S115      1.0  0.005835409666330893  0.9716218228508293  0.20067589733335958  1.0000
  S   S116      1.0  0.021322453437389033  0.06431370321203356  0.17667174192018711  1.0000
  Fe  Fe59      1.0  0.9875985383322193  0.9535884586584148  0.12347581486087553  1.0000
  S   S117      1.0  0.01854561012483713  0.9173354213366539  0.07984311721907325  1.0000
  Fe  Fe60      1.0  0.9547975714901199  0.9706330938934388  0.22760215474053058  1.0000
  S   S118      1.0  0.9408398425183354  0.9544999213587904  0.30948832709108026  1.0000
  S   S119      1.0  0.9788268031888  0.002637489933591919  0.08883770084259865  1.0000
  S   S120      1.0  0.9425345482115296  0.020800742857523202  0.20162540661763645  1.0000
  Fe  Fe61      1.0  0.03073477246115397  0.9880354950892035  0.6677460642704072  1.0000
  S   S121      1.0  0.9824471017281152  0.9909465363947488  0.7064454581849127  1.0000
  S   S122      1.0  0.07116658321772618  0.9745879728132245  0.7223180480863693  1.0000
  Fe  Fe62      1.0  0.005892888924976747  0.01596713879015299  0.5644954041559614  1.0000
  S   S123      1.0  0.9557688121517999  0.022674810664134126  0.5955238813382068  1.0000
  S   S124      1.0  0.01832069031345962  0.029935609917506323  0.4805942884173527  1.0000
  Fe  Fe63      1.0  0.9786392115604282  0.039611442898217275  0.6701331543640594  1.0000
  S   S125      1.0  0.9597118714438753  0.08044282233769895  0.7202458824298532  1.0000
  Fe  Fe64      1.0  0.9642112910082405  0.9735349244971084  0.6292988183325069  1.0000
  S   S126      1.0  0.924558532585459  0.9388668704946981  0.6261062254964872  1.0000
  S   S127      1.0  0.028142718974602854  0.03812310269602781  0.6358741936566168  1.0000
  S   S128      1.0  0.012970311853174099  0.9652341898588593  0.5933827623974222  1.0000
  Fe  Fe65      1.0  0.12180169739917424  0.5668886228040528  0.4161870816129277  1.0000
  S   S129      1.0  0.13448592429914275  0.5741223219828115  0.5019289981483193  1.0000
  S   S130      1.0  0.13611599621933457  0.6006051276427946  0.3506420499678937  1.0000
  Fe  Fe66      1.0  0.08990453294831946  0.5042601177650599  0.43754802369473517  1.0000
  S   S131      1.0  0.09864117787347881  0.5061901852932179  0.5246508095358692  1.0000
  S   S132      1.0  0.06467879365900009  0.4637772290254602  0.40008174018678855  1.0000
  Fe  Fe67      1.0  0.08474583435713279  0.5581477944103952  0.5177916008070247  1.0000
  S   S133      1.0  0.054540259115555934  0.578670096065475  0.5839068263196339  1.0000
  Fe  Fe68      1.0  0.14732365488766908  0.5216541168845195  0.5015912162334034  1.0000
  S   S134      1.0  0.18603506002408254  0.49679401965628833  0.5483863225297945  1.0000
  S   S135      1.0  0.07074705312132146  0.5548467407865348  0.4323228500896358  1.0000
  S   S136      1.0  0.1399316900276657  0.5156531432351725  0.4143540324687085  1.0000
  Fe  Fe69      1.0  0.9930387859690207  0.4458721596383522  0.7288884337101407  1.0000
  S   S137      1.0  0.9912357560607273  0.477056706525676  0.8009952473004707  1.0000
  S   S138      1.0  0.9774406719601259  0.4575699349915858  0.6459949947760543  1.0000
  Fe  Fe70      1.0  0.026282152542629555  0.3908110919908199  0.7851139712541328  1.0000
  S   S139      1.0  0.02777881562189566  0.4159913339232137  0.8631105236119304  1.0000
  S   S140      1.0  0.04712492440823057  0.3417881471374751  0.7693582861809524  1.0000
  Fe  Fe71      1.0  0.9776688464709467  0.4324669075005651  0.8440297522801138  1.0000
  S   S141      1.0  0.9371567948021784  0.43612022911106574  0.9024230104519814  1.0000
  Fe  Fe72      1.0  0.04140714377049193  0.4588821108768421  0.8149304599031474  1.0000
  S   S142      1.0  0.07977384054959225  0.49322610978920334  0.8350926398887233  1.0000
  S   S143      1.0  0.974644509601791  0.40274552177426987  0.7703300449738182  1.0000
  S   S144      1.0  0.044723572741904194  0.43202947321874574  0.7385375400707913  1.0000
  Fe  Fe73      1.0  0.039371183961192546  0.20431093745225515  0.9569451144682781  1.0000
  S   S145      1.0  0.09157860878540025  0.2096495092432467  0.9722895518531292  1.0000
  S   S146      1.0  0.0062145578502454946  0.24744254913911196  0.9518873060080331  1.0000
  Fe  Fe74      1.0  0.04434802087697731  0.13209215034629382  0.9577915169993652  1.0000
  S   S147      1.0  0.09678499415068109  0.1307878424549376  0.9741581881085051  1.0000
  S   S148      1.0  0.021236309741432757  0.08497349248975782  0.9483169135964525  1.0000
  Fe  Fe75      1.0  0.08494074819926634  0.17025155637751663  0.03136104368554027  1.0000
  S   S149      1.0  0.1079520690541349  0.17152798265363678  0.11108731459388821  1.0000
  Fe  Fe76      1.0  0.09859739621116859  0.1699250044396876  0.9134938269066433  1.0000
  S   S150      1.0  0.13573230790386295  0.17078237339732052  0.8488783072162579  1.0000
  S   S151      1.0  0.03195631948374067  0.16777583966090528  0.021019862942997847  1.0000
  S   S152      1.0  0.04674334273332703  0.1682654228998396  0.8921407028201062  1.0000
  Fe  Fe77      1.0  0.09067031783859658  0.2870621960585386  0.4370775564952795  1.0000
  S   S153      1.0  0.08989203822460112  0.24151545537117405  0.48460065229187377  1.0000
  S   S154      1.0  0.11876194873350698  0.3273616037671599  0.46987936052196383  1.0000
  Fe  Fe78      1.0  0.05298283959767769  0.25981346335900696  0.34667115987317254  1.0000
  S   S155      1.0  0.04880387556865906  0.2123441871056927  0.3865574526424054  1.0000
  S   S156      1.0  0.030984142220290112  0.26487175145234026  0.2660183221693584  1.0000
  Fe  Fe79      1.0  0.038616565474988374  0.24081566930563303  0.45997414131775977  1.0000
  S   S157      1.0  0.9990231941597486  0.223640377688637  0.5118541948023285  1.0000
  Fe  Fe80      1.0  0.10011799546145506  0.21743884895322751  0.4068092390039156  1.0000
  S   S158      1.0  0.13346264194559776  0.17588734482992952  0.38882787938499713  1.0000
  S   S159      1.0  0.03809569481897257  0.28835942052406255  0.418486230666076  1.0000
  S   S160      1.0  0.10553008554974941  0.2630889475738703  0.3611802621964772  1.0000
  Fe  Fe81      1.0  0.30402676079622676  0.18099192536347047  0.9316268793358095  1.0000
  S   S161      1.0  0.28791404380895724  0.22848333266120505  0.8980662814928884  1.0000
  S   S162      1.0  0.27495730029274373  0.13701631452345925  0.9316353071042114  1.0000
  Fe  Fe82      1.0  0.3651393641983236  0.20656608780366234  0.9753609162969763  1.0000
  S   S163      1.0  0.35457687772164137  0.2563120049171288  0.9459639652033366  1.0000
  S   S164      1.0  0.41060922047004084  0.19487832103892072  0.01842554342625724  1.0000
  Fe  Fe83      1.0  0.3046817722075104  0.24816231668514416  0.9750657088705329  1.0000
  S   S165      1.0  0.2734322183243877  0.281053183773428  0.0246890636044943  1.0000
  Fe  Fe84      1.0  0.3391463417948298  0.23192195887013123  0.8717535954997409  1.0000
  S   S166      1.0  0.35224742437520185  0.25250015862693337  0.7920715020688934  1.0000
  S   S167      1.0  0.3167586514117839  0.2002713032804088  0.01101271575945062  1.0000
  S   S168      1.0  0.35383307363119076  0.18247627814608502  0.8990133998116555  1.0000
  Fe  Fe85      1.0  0.3254221634551706  0.13399673482173338  0.440435582895955  1.0000
  S   S169      1.0  0.3178646798756582  0.1183729591842885  0.5248651027803083  1.0000
  S   S170      1.0  0.33672384173661724  0.09647079326969954  0.3787775203043549  1.0000
  Fe  Fe86      1.0  0.3159473372339222  0.20411516468099228  0.46615276633293395  1.0000
  S   S171      1.0  0.3068650538552842  0.19501556056935226  0.5525909536059885  1.0000
  S   S172      1.0  0.31255372244777646  0.2520613023208446  0.42520246244384624  1.0000
  Fe  Fe87      1.0  0.34800855608036596  0.159619807452679  0.5456722915532827  1.0000
  S   S173      1.0  0.38277651730577006  0.15134542338553447  0.6120541071443524  1.0000
  Fe  Fe88      1.0  0.2775941392359403  0.15467414487070666  0.5254886740807728  1.0000
  S   S174      1.0  0.23185136808494966  0.1471588936719615  0.5696394620730719  1.0000
  S   S175      1.0  0.3598984797265225  0.17191500691117131  0.4611821122486128  1.0000
  S   S176      1.0  0.2822231736007186  0.1671026552321033  0.4391364149014788  1.0000
  Fe  Fe89      1.0  0.24420076932784898  0.5272645201774581  0.03402246626913885  1.0000
  S   S177      1.0  0.20528634646093494  0.5186256369031399  0.09340158461121506  1.0000
  S   S178      1.0  0.25135804231014763  0.5771639946087859  0.0038736405014330177  1.0000
  Fe  Fe90      1.0  0.27246999316322146  0.45935505892335027  0.044200370298135505  1.0000
  S   S179      1.0  0.23610560605030967  0.4456198534038159  0.10505418946586387  1.0000
  S   S180      1.0  0.3117438152929342  0.4255620601176393  0.015314447227463113  1.0000
  Fe  Fe91      1.0  0.20122440474806522  0.4716911440369305  0.052195133102228786  1.0000
  S   S181      1.0  0.15440672724265606  0.44834775101967783  0.040313810735335354  1.0000
  Fe  Fe92      1.0  0.24426910768932764  0.49376756924741055  0.1397763907171612  1.0000
  S   S182      1.0  0.25365042550858574  0.5044805672808232  0.22500620093109278  1.0000
  S   S183      1.0  0.2369791314552615  0.48220881319758685  0.9880100004985172  1.0000
  S   S184      1.0  0.2835595819895599  0.5055150150161495  0.0833847979460709  1.0000
  Fe  Fe93      1.0  0.3740518459490411  0.4284738405404496  0.3929771196529778  1.0000
  S   S185      1.0  0.39536525021232904  0.47543324135855003  0.412034559147773  1.0000
  S   S186      1.0  0.36526877807055297  0.41314512719300256  0.30948659645291393  1.0000
  Fe  Fe94      1.0  0.36138267408062574  0.41184019910108416  0.507996745220692  1.0000
  S   S187      1.0  0.3798307500289157  0.458317201184652  0.537384692786461  1.0000
  S   S188      1.0  0.34666351409945895  0.372001733007822  0.562304069119263  1.0000
  Fe  Fe95      1.0  0.3538951012602159  0.4806447253578729  0.4683657312604359  1.0000
  S   S189      1.0  0.3243041368150449  0.5263737306288633  0.46714965859722707  1.0000
  Fe  Fe96      1.0  0.41961854618870514  0.4486604600898278  0.47857862310946114  1.0000
  S   S190      1.0  0.4707849711374947  0.45467285736033963  0.5026272492729968  1.0000
  S   S191      1.0  0.3309098721925582  0.4351684113741126  0.4452048747065117  1.0000
  S   S192      1.0  0.4027013690796152  0.4007630215052183  0.4534400701137025  1.0000
  Fe  Fe97      1.0  0.6317172960628705  0.5801601091642524  0.12624905123300056  1.0000
  S   S193      1.0  0.6020604445848718  0.5892092475138473  0.19985067394548048  1.0000
  S   S194      1.0  0.6169852133499347  0.5842693782400162  0.04076481886968253  1.0000
  Fe  Fe98      1.0  0.6935673133505138  0.5704946599528836  0.18646591137080915  1.0000
  S   S195      1.0  0.6701470451111602  0.5783166944942959  0.26548102513562605  1.0000
  S   S196      1.0  0.7468137053616638  0.5663864453389625  0.1779826353283621  1.0000
  Fe  Fe99      1.0  0.6316177085103863  0.5479504267775247  0.23350112575309806  1.0000
  S   S197      1.0  0.6148170473362216  0.5086939060059228  0.2871288552062986  1.0000
  Fe  Fe100     1.0  0.642994612802703  0.6186514228838017  0.22633814058297766  1.0000
  S   S198      1.0  0.6426657799683381  0.6688395167121022  0.2573391057214891  1.0000
  S   S199      1.0  0.6577099705464335  0.5363422501512839  0.1574897930003067  1.0000
  S   S200      1.0  0.6696835066152352  0.6134244301248494  0.1499066680935187  1.0000
  Fe  Fe101     1.0  0.5258702209201414  0.42401519771590235  0.7765893759350511  1.0000
  S   S201      1.0  0.5457436322155951  0.3963413683414042  0.8457391469756226  1.0000
  S   S202      1.0  0.47809229396856234  0.4129263785075636  0.7430564231255746  1.0000
  Fe  Fe102     1.0  0.5855948347240482  0.4611844169774584  0.7612687016556698  1.0000
  S   S203      1.0  0.6116606910044288  0.4363605972890253  0.8281272717749458  1.0000
  S   S204      1.0  0.6067124065977025  0.5020637709305481  0.7169920275059268  1.0000
  Fe  Fe103     1.0  0.5901613469270115  0.39193665959878266  0.7964463936766428  1.0000
  S   S205      1.0  0.615066223155829  0.34396045306467377  0.7892494827023998  1.0000
  Fe  Fe104     1.0  0.5650749857162242  0.44313928762701416  0.8716043684450576  1.0000
  S   S206      1.0  0.5636584854595437  0.4537677781776712  0.9587308642915195  1.0000
  S   S207      1.0  0.5690126244438299  0.4160117956358432  0.7248342479139722  1.0000
  S   S208      1.0  0.5404103202005793  0.47152989493240965  0.8073771611956945  1.0000
  Fe  Fe105     1.0  0.9227042319873942  0.4086778913132524  0.19027500461185498  1.0000
  S   S209      1.0  0.9256795954096235  0.3938064808476962  0.2757282342348582  1.0000
  S   S210      1.0  0.9684704164689163  0.4140837910030414  0.14446034797656637  1.0000
  Fe  Fe106     1.0  0.850625504675147  0.41781324705322404  0.19329950928040135  1.0000
  S   S211      1.0  0.8475097543149938  0.4044885144488753  0.27916313246990276  1.0000
  S   S212      1.0  0.8038827773199849  0.42591891193334175  0.15117591602361988  1.0000
  Fe  Fe107     1.0  0.8903530664671692  0.4343365495388651  0.2888540038406059  1.0000
  S   S213      1.0  0.8959682512328503  0.46485144526223804  0.3607544601018545  1.0000
  Fe  Fe108     1.0  0.8827638021771874  0.3652578753946389  0.25814325845642283  1.0000
  S   S214      1.0  0.8732547312541837  0.31729005054409637  0.2935016438153663  1.0000
  S   S215      1.0  0.8905646225954672  0.4517124000698641  0.20451862569156948  1.0000
  S   S216      1.0  0.8828412164139035  0.3759389202587256  0.17101463728449248  1.0000
  Fe  Fe109     1.0  0.7238263242869969  0.5756429202004929  0.5490710702380257  1.0000
  S   S217      1.0  0.7056688182298192  0.5618718934384578  0.46927767250666724  1.0000
  S   S218      1.0  0.7031052266640548  0.6160308241853867  0.5970153673682155  1.0000
  Fe  Fe110     1.0  0.7713011021756236  0.5198733764095221  0.5556998766486433  1.0000
  S   S219      1.0  0.7577995360757981  0.5003232830716612  0.47678714599766914  1.0000
  S   S220      1.0  0.8069430790082617  0.49568176080622645  0.6095475365436466  1.0000
  Fe  Fe111     1.0  0.7575227068889973  0.5517694200776554  0.45113758428095135  1.0000
  S   S221      1.0  0.7787657017774466  0.5628077775690293  0.3721369546051315  1.0000
  Fe  Fe112     1.0  0.7073880592485563  0.5119615636418662  0.5015853299925042  1.0000
  S   S222      1.0  0.6673551469113346  0.47832083582920554  0.4919104633768954  1.0000
  S   S223      1.0  0.7757723747021334  0.570518012159702  0.5278283300237312  1.0000
  S   S224      1.0  0.7208513725041669  0.526611886611595  0.5834095230495766  1.0000
  Fe  Fe113     1.0  0.8604414854269575  0.30721216210692553  0.6477519737181481  1.0000
  S   S225      1.0  0.8416377603413108  0.3288780968711032  0.7234844023584021  1.0000
  S   S226      1.0  0.9039598998271042  0.3282719115136083  0.6091080458214009  1.0000
  Fe  Fe114     1.0  0.806972339589483  0.26002663518615127  0.6423508729425338  1.0000
  S   S227      1.0  0.7836660533555542  0.2773342623020049  0.7175742976135907  1.0000
  S   S228      1.0  0.7853879347243462  0.22274964507035205  0.5913938981868208  1.0000
  Fe  Fe115     1.0  0.7935143086214913  0.3261329162648853  0.6858532865151759  1.0000
  S   S229      1.0  0.754068000461059  0.36362460188544315  0.684898749903697  1.0000
  Fe  Fe116     1.0  0.8337283172175486  0.2780487043784702  0.7484096471720578  1.0000
  S   S230      1.0  0.8509677046484054  0.2602496661567349  0.827689703355643  1.0000
  S   S231      1.0  0.8128247709894327  0.30893800941990923  0.6077174178493053  1.0000
  S   S232      1.0  0.8563816323138421  0.2563747189267943  0.675802445194058  1.0000
  Fe  Fe117     1.0  0.750178378331777  0.202556458854117  0.15471294254007734  1.0000
  S   S233      1.0  0.7916453196643223  0.1748366574654433  0.18967540129748908  1.0000
  S   S234      1.0  0.7205512833684826  0.23218470099961053  0.21250723976824096  1.0000
  Fe  Fe118     1.0  0.7652608792445337  0.17884471542732588  0.043667855692971956  1.0000
  S   S235      1.0  0.8078291391074175  0.14890943495277995  0.0688532810400204  1.0000
  S   S236      1.0  0.7516837447418393  0.17969570136231036  0.9578421438139884  1.0000
  Fe  Fe119     1.0  0.776769626097149  0.13507223251251205  0.13726112393505957  1.0000
  S   S237      1.0  0.773694209075991  0.08407580679354787  0.16387309721629573  1.0000
  Fe  Fe120     1.0  0.8191345769647171  0.19121878762251354  0.11861015869603014  1.0000
  S   S238      1.0  0.869164422154733  0.209031606015459  0.12119903145727433  1.0000
  S   S239      1.0  0.7327064819072672  0.16122504580121483  0.1078978347047701  1.0000
  S   S240      1.0  0.7789762958136673  0.22270316604063836  0.08774380145642574  1.0000
  Fe  Fe121     1.0  0.5487555394268965  0.30066800355095447  0.18378536397564846  1.0000
  S   S241      1.0  0.563577976774884  0.3411320560166077  0.23514527494954204  1.0000
  S   S242      1.0  0.5829049571780691  0.27407106175869766  0.12914371660620488  1.0000
  Fe  Fe122     1.0  0.4777967173774357  0.31243653664606535  0.20663918846758725  1.0000
  S   S243      1.0  0.4864009148496567  0.3542722266191226  0.25889268014697947  1.0000
  S   S244      1.0  0.4265577858517797  0.3009153521664315  0.1930660362094748  1.0000
  Fe  Fe123     1.0  0.5223284529535441  0.3681796827144174  0.1978262930216659  1.0000
  S   S245      1.0  0.5243356606430513  0.41740830295343206  0.16298139528418995  1.0000
  Fe  Fe124     1.0  0.5262884947939224  0.32327218947570807  0.2914609150542773  1.0000
  S   S246      1.0  0.5305665918274824  0.32072495774097937  0.37982576503456883  1.0000
  S   S247      1.0  0.5100020998758483  0.3291442796429926  0.14207341531504447  1.0000
  S   S248      1.0  0.5150198916624581  0.27989180476450565  0.24377945968332337  1.0000
  Fe  Fe125     1.0  0.5636108098037649  0.21511101260358279  0.6194178309635987  1.0000
  S   S249      1.0  0.6153423421613745  0.2219730571131606  0.6003124644112912  1.0000
  S   S250      1.0  0.5321647380114244  0.25616945495510096  0.6476015778380227  1.0000
  Fe  Fe126     1.0  0.5666435001271879  0.14551021057333965  0.5870693015617958  1.0000
  S   S251      1.0  0.6186466515622179  0.14575950027239576  0.5659898191327122  1.0000
  S   S252      1.0  0.5393099708262039  0.10108684453068739  0.5759011123803996  1.0000
  Fe  Fe127     1.0  0.6228780490399831  0.17438132349313593  0.6404909536320108  1.0000
  S   S253      1.0  0.6623157330629493  0.16814860426123374  0.6994903598153525  1.0000
  Fe  Fe128     1.0  0.6061504378734951  0.19295711573609534  0.5279486454601044  1.0000
  S   S254      1.0  0.6231371123939894  0.20606302714578606  0.4462310113756204  1.0000
  S   S255      1.0  0.5717848848794319  0.1697105812893801  0.6656587373381816  1.0000
  S   S256      1.0  0.5534261299902217  0.19038383638764925  0.5431917643329187  1.0000
  C   C1        1.0  0.5577032447196767  0.2898962274412932  0.39746077529433604  1.0000
  C   C2        1.0  0.5768207586004263  0.2742979515127186  0.35910122849988346  1.0000
  C   C3        1.0  0.597935673859544  0.24910720914689968  0.37409896595674896  1.0000
  C   C4        1.0  0.599705336739716  0.23957043668096797  0.4273522998559375  1.0000
  C   C5        1.0  0.5808999995800214  0.25555717314279225  0.4655287654892352  1.0000
  C   C6        1.0  0.5598335298921266  0.28052676962794204  0.4505735927717849  1.0000
  H   H1        1.0  0.5753353028169883  0.2815940511963649  0.3179380070242933  1.0000
  H   H2        1.0  0.6124900850364358  0.23685783989656625  0.34440101291603664  1.0000
  H   H3        1.0  0.582286417552527  0.2485628109214527  0.5067054147223057  1.0000
  H   H4        1.0  0.5446884978033781  0.2920505191278157  0.48005452161845596  1.0000
  C   C7        1.0  0.6823427104144192  0.2439071450969291  0.18933036737213338  1.0000
  C   C8        1.0  0.660606599385799  0.25996754607055694  0.22335464156941945  1.0000
  C   C9        1.0  0.6299309752207001  0.2693024910270142  0.20542015165494815  1.0000
  C   C10       1.0  0.6209814096651298  0.26263937189180964  0.15333109390070573  1.0000
  C   C11       1.0  0.6427799444976693  0.24661932895584174  0.11943094105565648  1.0000
  C   C12       1.0  0.6733746834291637  0.23724269287200705  0.13735534824845572  1.0000
  H   H5        1.0  0.667411766155689  0.2651188990530643  0.26367533890282924  1.0000
  H   H6        1.0  0.6132296206686955  0.2815756326033007  0.23184633580313435  1.0000
  H   H7        1.0  0.6359565480524517  0.24139323401850682  0.07913115274705972  1.0000
  H   H8        1.0  0.6899841230118504  0.22492950064229025  0.11079890344293687  1.0000
  C   C13       1.0  0.8237335241690692  0.23671620562104592  0.8625813093392048  1.0000
  C   C14       1.0  0.829239513396082  0.22965286112432134  0.9161597247744613  1.0000
  C   C15       1.0  0.8073180915430668  0.21182715784591044  0.9453026976169114  1.0000
  C   C16       1.0  0.7797782724843443  0.20098917136726008  0.9209661600189503  1.0000
  C   C17       1.0  0.7746986425790663  0.20719997440356713  0.8669822080710866  1.0000
  C   C18       1.0  0.7966900235664286  0.22501480362231266  0.8378011464953263  1.0000
  H   H9        1.0  0.8502468590019222  0.23838423589013136  0.935413923945902  1.0000
  H   H10       1.0  0.8117386562564185  0.2066895191805553  0.9866767606281892  1.0000
  H   H11       1.0  0.7535588814135222  0.19865400007422146  0.8478793939790632  1.0000
  H   H12       1.0  0.7926754145406327  0.2296034313744259  0.7962345712125303  1.0000
  C   C19       1.0  0.7516471527748053  0.2070115377071961  0.6219830394021957  1.0000
  C   C20       1.0  0.7260140509347972  0.19802900740604298  0.5907322759128016  1.0000
  C   C21       1.0  0.6989251882106358  0.18517361537300012  0.6144992050638963  1.0000
  C   C22       1.0  0.6974842932005569  0.18108568129293878  0.6695776556870922  1.0000
  C   C23       1.0  0.7235418191659745  0.18913468642362316  0.7007700392628367  1.0000
  C   C24       1.0  0.7505449308427182  0.2023664826516948  0.6770019197834958  1.0000
  H   H13       1.0  0.7268606751828403  0.20144839964815298  0.5481583461010493  1.0000
  H   H14       1.0  0.6790021146892825  0.1787222628712005  0.5901828164568357  1.0000
  H   H15       1.0  0.7225110555706854  0.18590999882232692  0.7433929350947036  1.0000
  H   H16       1.0  0.7706434709754166  0.2085352841005318  0.7012141885255632  1.0000
  C   C25       1.0  0.7919305311429802  0.45938439073601167  0.6316987950228833  1.0000
  C   C26       1.0  0.76282139276995  0.4489472440508226  0.6124637930139933  1.0000
  C   C27       1.0  0.7509285012577358  0.4197915612889482  0.629911103426705  1.0000
  C   C28       1.0  0.7686113360709497  0.4005717645427159  0.6653471791093728  1.0000
  C   C29       1.0  0.7977557071764733  0.41092145644914807  0.6846103365777386  1.0000
  C   C30       1.0  0.8091404330505255  0.4406318193461968  0.6685046240300416  1.0000
  H   H17       1.0  0.7495875677089399  0.46303278867692055  0.5835506388860957  1.0000
  H   H18       1.0  0.7284352235720658  0.4117523200079965  0.6148071324899406  1.0000
  H   H19       1.0  0.8112176464841133  0.39628625211292734  0.7126549535572196  1.0000
  H   H20       1.0  0.8314171417937735  0.4488583255704528  0.6841260778843363  1.0000
  C   C31       1.0  0.8736783578865679  0.2868417524801677  0.2462172168380582  1.0000
  C   C32       1.0  0.8543080313492508  0.2606455274663117  0.2543592105603584  1.0000
  C   C33       1.0  0.8531592729558868  0.23661171141476875  0.21615807529223457  1.0000
  C   C34       1.0  0.871899901554783  0.23828445527384448  0.17021670889603607  1.0000
  C   C35       1.0  0.8921789318926806  0.26392889567277356  0.16285869676341572  1.0000
  C   C36       1.0  0.8928751147093789  0.288434580689004  0.2006729460336859  1.0000
  H   H21       1.0  0.8396127487672418  0.25923143867706616  0.2897546991718143  1.0000
  H   H22       1.0  0.8380139457937208  0.2166107171183134  0.22264002890447335  1.0000
  H   H23       1.0  0.9066728408894587  0.2651282843416813  0.1273022780778151  1.0000
  H   H24       1.0  0.9082683615477569  0.3084208766265261  0.19467175526718555  1.0000
  C   C37       1.0  0.865377454854902  0.49443337923365643  0.36302231079854624  1.0000
  C   C38       1.0  0.8503193555424168  0.505075131503601  0.31646091888716543  1.0000
  C   C39       1.0  0.8250203296649619  0.5278619903911534  0.31906282161890964  1.0000
  C   C40       1.0  0.8138428164876534  0.5388831519843218  0.3682266453782103  1.0000
  C   C41       1.0  0.8292087453238239  0.5285889121294544  0.41467634491698196  1.0000
  C   C42       1.0  0.855348274992218  0.5068584212025283  0.4119798946933607  1.0000
  H   H25       1.0  0.8580876459913954  0.4958235709099732  0.27844836944991247  1.0000
  H   H26       1.0  0.8133327861814288  0.5360754877908954  0.2832507118990457  1.0000
  H   H27       1.0  0.8209333430676046  0.5372397425463022  0.45283647316599995  1.0000
  H   H28       1.0  0.8671375413577633  0.49904783061287916  0.4479964630452439  1.0000
  C   C43       1.0  0.589725744077192  0.3177032979742171  0.7573654694998342  1.0000
  C   C44       1.0  0.5594272484121972  0.32833347655113676  0.7403221468164985  1.0000
  C   C45       1.0  0.5408781136896229  0.3084662721158925  0.7092693317305906  1.0000
  C   C46       1.0  0.5529151463228161  0.27829026043776306  0.6941401786084958  1.0000
  C   C47       1.0  0.5823457565620668  0.26688790788351413  0.7137916582658576  1.0000
  C   C48       1.0  0.6005289943709289  0.2864630322628716  0.7460540490489048  1.0000
  H   H29       1.0  0.5503013918117884  0.3519260366756015  0.7506924918394173  1.0000
  H   H30       1.0  0.5175306097442587  0.3167565022626506  0.6960504627316582  1.0000
  H   H31       1.0  0.5911805727962801  0.24304050837355154  0.7040978443714457  1.0000
  H   H32       1.0  0.6232911717287327  0.27769177670939504  0.7611961904661567  1.0000
  C   C49       1.0  0.6186076129541154  0.4951455194001984  0.6511743248716322  1.0000
  C   C50       1.0  0.619415281300931  0.46438560022345027  0.62929159349864  1.0000
  C   C51       1.0  0.6325155097762232  0.45924397003771605  0.5784369640607477  1.0000
  C   C52       1.0  0.6451134766598033  0.4848429652134578  0.5500738832869811  1.0000
  C   C53       1.0  0.6429658930563459  0.5156935898336958  0.5710669829709857  1.0000
  C   C54       1.0  0.629829822050285  0.5208163029627184  0.62152764727435  1.0000
  H   H33       1.0  0.6114021236636177  0.4443981427373841  0.6523975231593899  1.0000
  H   H34       1.0  0.6346489794043314  0.4352804198190088  0.5625858025393725  1.0000
  H   H35       1.0  0.6524272330028998  0.5356330263132529  0.5491456102913583  1.0000
  H   H36       1.0  0.6293004205369723  0.5446256032545618  0.6382743483317879  1.0000
  C   C55       1.0  0.7628879849983055  0.5278647012367993  0.1658836583209885  1.0000
  C   C56       1.0  0.7950454367595882  0.5211795008469265  0.17730945987484548  1.0000
  C   C57       1.0  0.8077640747575888  0.4898956753214597  0.17293403331695703  1.0000
  C   C58       1.0  0.7886590230927937  0.46540506546931965  0.15520347797399417  1.0000
  C   C59       1.0  0.7568574058625934  0.4723941601107108  0.14120762679615326  1.0000
  C   C60       1.0  0.7439436907252643  0.5036004233693864  0.1466894996872129  1.0000
  H   H37       1.0  0.8100177985085152  0.5400998033639292  0.19066430141581317  1.0000
  H   H38       1.0  0.8323822364278147  0.4848709372011988  0.18304403575214942  1.0000
  H   H39       1.0  0.7421202354865708  0.453583785120164  0.12670473627778167  1.0000
  H   H40       1.0  0.7193837950756097  0.5087330359587303  0.13616609449165307  1.0000
  C   C61       1.0  0.6026558100080496  0.5479342187397339  0.017270396572159674  1.0000
  C   C62       1.0  0.5953186677739288  0.5235235173360304  0.052948369957822594  1.0000
  C   C63       1.0  0.5835260308531441  0.49471288539851466  0.03430051807477685  1.0000
  C   C64       1.0  0.5790897539903567  0.49007510591267855  0.9799215501543206  1.0000
  C   C65       1.0  0.5866172505648695  0.5143815090088661  0.9439820045911551  1.0000
  C   C66       1.0  0.5982052804672577  0.5434202407875536  0.9627352482070747  1.0000
  H   H41       1.0  0.5982664012679494  0.5269308033147451  0.0950507923968329  1.0000
  H   H42       1.0  0.5777585988309674  0.4759450781954821  0.062106522461405245  1.0000
  H   H43       1.0  0.5831582271628515  0.5109148461931621  0.9019130295467069  1.0000
  H   H44       1.0  0.6038085942887139  0.5622576418247451  0.9349496709765102  1.0000
  C   C67       1.0  0.589581451193693  0.4833730733185854  0.2527626888633422  1.0000
  C   C68       1.0  0.5758429283596928  0.49329755190994884  0.20478102474191426  1.0000
  C   C69       1.0  0.5554375642091827  0.47308478604168985  0.1777728838647491  1.0000
  C   C70       1.0  0.5490821277588191  0.4427483263859657  0.19826807144319153  1.0000
  C   C71       1.0  0.56279162772518  0.4328342048958096  0.24632579467567808  1.0000
  C   C72       1.0  0.5829882703787381  0.4531455157065551  0.2735824452016076  1.0000
  H   H45       1.0  0.5805902174002523  0.5167022186651818  0.18873018001274658  1.0000
  H   H46       1.0  0.544512678237587  0.4809943721082231  0.14098765340754835  1.0000
  H   H47       1.0  0.5576798775840297  0.4096141877977377  0.2626898164620954  1.0000
  H   H48       1.0  0.5937650535924237  0.44514168743216564  0.3103241479976644  1.0000
  C   C73       1.0  0.4726916853778153  0.44435335694708417  0.5699953451823322  1.0000
  C   C74       1.0  0.44910437742044435  0.42542780208793635  0.592296620424801  1.0000
  C   C75       1.0  0.45018103858559944  0.41721179317364543  0.6461354819427134  1.0000
  C   C76       1.0  0.4753743901518455  0.42690506115231824  0.6775782099414869  1.0000
  C   C77       1.0  0.49903231815353816  0.44590804428742575  0.6554483186867976  1.0000
  C   C78       1.0  0.4977025170813019  0.4546338744753817  0.6016061889568267  1.0000
  H   H49       1.0  0.4302449950557171  0.4165960104072205  0.5679417313676269  1.0000
  H   H50       1.0  0.4316699365987655  0.4031079464081413  0.6633296865063346  1.0000
  H   H51       1.0  0.5180292003521358  0.4543789558071404  0.679953453896604  1.0000
  H   H52       1.0  0.5157554082434612  0.4696756918542236  0.5848767082824065  1.0000
  C   C79       1.0  0.2863888888022243  0.4805531093832835  0.2460166146228612  1.0000
  C   C80       1.0  0.29650004612689607  0.4536776431882863  0.2167413958936848  1.0000
  C   C81       1.0  0.3210094149633349  0.4331575260776594  0.23586254740742846  1.0000
  C   C82       1.0  0.33593123287617765  0.4398159897186159  0.2838285061276978  1.0000
  C   C83       1.0  0.3265072030125905  0.4673069510182543  0.312162158934748  1.0000
  C   C84       1.0  0.30165494164284307  0.48752905382530776  0.2934850473786937  1.0000
  H   H53       1.0  0.2850680065335923  0.4482355424066996  0.17988078916710004  1.0000
  H   H54       1.0  0.3278823678186712  0.411858296676777  0.21398459928237584  1.0000
  H   H55       1.0  0.3381936397519704  0.4730880666769856  0.3486928526269864  1.0000
  H   H56       1.0  0.2943396125603192  0.508547084655942  0.31592362853356276  1.0000
  C   C85       1.0  0.3210623977917841  0.285137479218125  0.46454091438928447  1.0000
  C   C86       1.0  0.32004091002082524  0.3156930436095191  0.4415294249052388  1.0000
  C   C87       1.0  0.3277701589149167  0.3424300607385472  0.471575532182096  1.0000
  C   C88       1.0  0.33578610459814784  0.3388021878553978  0.5250978750835645  1.0000
  C   C89       1.0  0.33596702434666376  0.3083436999000316  0.5485181597220935  1.0000
  C   C90       1.0  0.32900731306266295  0.2814710258059161  0.5180767848251628  1.0000
  H   H57       1.0  0.3137132529226796  0.31868500454267884  0.4001972247308513  1.0000
  H   H58       1.0  0.327527020548994  0.36583255603634557  0.4532487107231717  1.0000
  H   H59       1.0  0.34190607331424805  0.3054112569504976  0.5899640674671518  1.0000
  H   H60       1.0  0.32997556643993403  0.2579977848771861  0.5360704277311045  1.0000
  C   C91       1.0  0.4225481082926433  0.2711263700388888  0.14502430366995975  1.0000
  C   C92       1.0  0.39243404746015903  0.2660276095159912  0.12345661171572357  1.0000
  C   C93       1.0  0.38884980597081187  0.24271381694623534  0.08439624121357103  1.0000
  C   C94       1.0  0.4152419396047779  0.2239213266085816  0.0675944368960475  1.0000
  C   C95       1.0  0.4453229819157887  0.2286862801996773  0.08966330763703811  1.0000
  C   C96       1.0  0.4490622818493527  0.2525632378228715  0.12794809307472063  1.0000
  H   H61       1.0  0.3718354648444095  0.28022434370524757  0.1366190503852062  1.0000
  H   H62       1.0  0.36553876527138657  0.2392003760000004  0.06766478696192868  1.0000
  H   H63       1.0  0.46581510786436103  0.2142583274588902  0.07670057624461513  1.0000
  H   H64       1.0  0.47240864905994845  0.2564148410713263  0.14444354588256783  1.0000
  C   C97       1.0  0.286520396361311  0.3204445807897349  0.024687244070336067  1.0000
  C   C98       1.0  0.2744312509411959  0.3419572632764663  0.06274714691031802  1.0000
  C   C99       1.0  0.2828072319890983  0.374124557238568  0.06094664779721293  1.0000
  C   C100      1.0  0.30297794732375144  0.38496576009812866  0.020736338035200808  1.0000
  C   C101      1.0  0.31581221501427914  0.3632689695826416  0.9835872525769438  1.0000
  C   C102      1.0  0.3074501556767685  0.33106575060131455  0.9853617887727687  1.0000
  H   H65       1.0  0.258459529567671  0.333763725324396  0.09353458481778465  1.0000
  H   H66       1.0  0.273834095641007  0.39039278859399085  0.09095220722700326  1.0000
  H   H67       1.0  0.33151913050753223  0.3715487835371016  0.9524751217633205  1.0000
  H   H68       1.0  0.3164227840085203  0.3147592755984624  0.95528161565518  1.0000
  C   C103      1.0  0.3764203325944477  0.17998429087033174  0.6618939814099561  1.0000
  C   C104      1.0  0.3824443921554843  0.17194318358594066  0.714950911923863  1.0000
  C   C105      1.0  0.37472256765260864  0.1939243144692668  0.755334454920256  1.0000
  C   C106      1.0  0.361539925202451  0.22417564046759872  0.7426330223703081  1.0000
  C   C107      1.0  0.3563950077217923  0.23243535556507328  0.6894357990694655  1.0000
  C   C108      1.0  0.36384986466756664  0.21041542066231822  0.6491811856491184  1.0000
  H   H69       1.0  0.3925995842278096  0.1485323555145943  0.7248494939120335  1.0000
  H   H70       1.0  0.3793174432328577  0.18749936474290146  0.7960250286582975  1.0000
  H   H71       1.0  0.34617474987582003  0.2557120100363596  0.6792410367083815  1.0000
  H   H72       1.0  0.36019762773597463  0.21715570737233628  0.6082002054908772  1.0000
  C   C109      1.0  0.9729145932371402  0.25322523963366406  0.5377693057842363  1.0000
  C   C110      1.0  0.9805765754730676  0.28553637253699116  0.5367341689649401  1.0000
  C   C111      1.0  0.9591353860106641  0.30867406392342417  0.5581454335157748  1.0000
  C   C112      1.0  0.9299549620929166  0.2994815471385289  0.5800837589585393  1.0000
  C   C113      1.0  0.9220449334783636  0.2673075576618823  0.5794684519565582  1.0000
  C   C114      1.0  0.9436240313355554  0.24418399381520073  0.5590318744134719  1.0000
  H   H73       1.0  0.0031311327949474776  0.2925154102694118  0.5200832560486424  1.0000
  H   H74       1.0  0.9651337015773347  0.3335993494055506  0.5579334027097087  1.0000
  H   H75       1.0  0.8992161113106559  0.2601149231829552  0.5942827235537375  1.0000
  H   H76       1.0  0.9374760008448296  0.21923037879978166  0.5593160361339928  1.0000
  C   C115      1.0  0.15770953605798055  0.16310615913029528  0.44149398113265  1.0000
  C   C116      1.0  0.15019150202254286  0.17154930193893692  0.49385342212636846  1.0000
  C   C117      1.0  0.17212418189408318  0.16456922960625586  0.5344727695205278  1.0000
  C   C118      1.0  0.20145140032626327  0.1491742489286518  0.5224620435321193  1.0000
  C   C119      1.0  0.20791917636396348  0.13888677936909274  0.4707343786437613  1.0000
  C   C120      1.0  0.18600758767736938  0.14573598533342055  0.4302776174072892  1.0000
  H   H77       1.0  0.12789644544808537  0.1840859770308388  0.5029386863527207  1.0000
  H   H78       1.0  0.16700286382199347  0.17236447509271727  0.5746049075058711  1.0000
  H   H79       1.0  0.23013261051764916  0.12608679584820748  0.4616875081412545  1.0000
  H   H80       1.0  0.19167431987039146  0.13874016100090833  0.38990940222216525  1.0000
  C   C121      1.0  0.1743735056447137  0.16073161278750367  0.8713610850458201  1.0000
  C   C122      1.0  0.17916414752672874  0.13839200122649695  0.9122573228515872  1.0000
  C   C123      1.0  0.21018706816468946  0.1304290690515071  0.9295081410981791  1.0000
  C   C124      1.0  0.23647929874024146  0.14533550089869607  0.9068741642999281  1.0000
  C   C125      1.0  0.23170672027281902  0.16770061393930066  0.8660060591430839  1.0000
  C   C126      1.0  0.20073308956716965  0.17500934914542726  0.8477066696878903  1.0000
  H   H81       1.0  0.15913569945822612  0.12668097066111556  0.9300016331035688  1.0000
  H   H82       1.0  0.21363959168573426  0.11313052978725469  0.9611274465813014  1.0000
  H   H83       1.0  0.2518830155095591  0.1790606667997804  0.8478950131009971  1.0000
  H   H84       1.0  0.19713111594119304  0.19217647166069052  0.8158413953077744  1.0000
  C   C127      1.0  0.08606913931508009  0.19707780821806112  0.15394762208683138  1.0000
  C   C128      1.0  0.0944488697212722  0.19853671154599045  0.20746021460571393  1.0000
  C   C129      1.0  0.07729156549372118  0.21900979411377172  0.24200903756569583  1.0000
  C   C130      1.0  0.05171831739097943  0.2381976463617551  0.22322443056210428  1.0000
  C   C131      1.0  0.042967398533753975  0.23629955300409425  0.16989254820771724  1.0000
  C   C132      1.0  0.06031286857867002  0.21603359153498988  0.13513125094137113  1.0000
  H   H85       1.0  0.11422047357311116  0.18381671790150994  0.2222951090852125  1.0000
  H   H86       1.0  0.08401872762820695  0.21979255615184676  0.2831464711809531  1.0000
  H   H87       1.0  0.022784364043662242  0.25040371261043237  0.1555522348698926  1.0000
  H   H88       1.0  0.05389240282588248  0.2152757418598504  0.0937719114250883  1.0000
  C   C133      1.0  0.9464868224380295  0.4326598324631617  0.9699978986654467  1.0000
  C   C134      1.0  0.9780615694423718  0.4335213250144812  0.987813406891906  1.0000
  C   C135      1.0  0.9847482734797539  0.42926234164648086  0.04199466162670307  1.0000
  C   C136      1.0  0.9598881824062746  0.42384577523057754  0.07818705826699243  1.0000
  C   C137      1.0  0.9283164559005865  0.42414854571585064  0.06056634971411282  1.0000
  C   C138      1.0  0.9216487386664377  0.4286144866804345  0.006614993388925017  1.0000
  H   H89       1.0  0.9972790529989342  0.4371851795659443  0.9599246100714638  1.0000
  H   H90       1.0  0.009216641506886614  0.42919713201504284  0.05559442604711189  1.0000
  H   H91       1.0  0.9089523806272702  0.4203449842974677  0.0882278476563406  1.0000
  H   H92       1.0  0.8971731865289706  0.42826240072157223  0.9930354262458043  1.0000
  C   C139      1.0  0.037112631245421523  0.3161430977124141  0.8216940057923914  1.0000
  C   C140      1.0  0.051779726294683526  0.2856550108779641  0.8255924041405176  1.0000
  C   C141      1.0  0.04286223535568934  0.2646246853088172  0.8662750875600314  1.0000
  C   C142      1.0  0.018935709264542355  0.2739364632033609  0.9025681949831934  1.0000
  C   C143      1.0  0.004311939036516055  0.3044088422574451  0.8986450847870748  1.0000
  C   C144      1.0  0.01345842829351862  0.32555499678261784  0.8584106742000632  1.0000
  H   H93       1.0  0.07002279823575575  0.27825603431679846  0.7971554759868535  1.0000
  H   H94       1.0  0.05426695545671789  0.24109368168130102  0.8690554384104419  1.0000
  H   H95       1.0  0.9854135286560408  0.3114413842437352  0.9259999636880051  1.0000
  H   H96       1.0  0.001673026488507423  0.34887598572060324  0.8551610307644538  1.0000
  C   C145      1.0  0.1002595986419681  0.4816875829824513  0.8929680345177164  1.0000
  C   C146      1.0  0.13081650461752717  0.49291629532686143  0.9024248209700809  1.0000
  C   C147      1.0  0.1474735452027807  0.4833254784436043  0.9482627935603928  1.0000
  C   C148      1.0  0.1335551032915824  0.46242928771048797  0.9845395536642751  1.0000
  C   C149      1.0  0.10274401134893596  0.45183861434511485  0.9756881461182231  1.0000
  C   C150      1.0  0.0860500696818327  0.4617065906856314  0.9302669969889241  1.0000
  H   H97       1.0  0.14181009347366968  0.5086679745867642  0.8740912991595398  1.0000
  H   H98       1.0  0.17109636547910004  0.49193796103419557  0.9552255676674831  1.0000
  H   H99       1.0  0.0917472574432725  0.43601244545584  0.00407321833944807  1.0000
  H   H100      1.0  0.062006467556384504  0.4542204970793224  0.9248546980444374  1.0000
  C   C151      1.0  0.22430495532272451  0.5059162463284934  0.5265010464205188  1.0000
  C   C152      1.0  0.250622400515255  0.4880685809441394  0.5457492616260834  1.0000
  C   C153      1.0  0.28137852650384365  0.4940428126170331  0.5268264177596784  1.0000
  C   C154      1.0  0.28583113298267626  0.5182475877550903  0.4893654375915319  1.0000
  C   C155      1.0  0.2595103420020982  0.5362103317729845  0.47020356731720486  1.0000
  C   C156      1.0  0.2286611130335223  0.5299788160167611  0.4886888153748047  1.0000
  H   H101      1.0  0.24721912571293095  0.4693450209121469  0.5748779273208847  1.0000
  H   H102      1.0  0.3017145058588917  0.48018413530275433  0.541788594954478  1.0000
  H   H103      1.0  0.2628704610563501  0.5545199115957157  0.44038410533593025  1.0000
  H   H104      1.0  0.2082697773306309  0.5436371919478304  0.4734870162283684  1.0000
  C   C157      1.0  0.028414000828096198  0.5481044003322747  0.5995946964538851  1.0000
  C   C158      1.0  0.02082359231841613  0.5257407421956523  0.5609033632426522  1.0000
  C   C159      1.0  0.003722136923441699  0.49864838910778303  0.5747451748658085  1.0000
  C   C160      1.0  0.9947129119746551  0.4936126903000593  0.627533571885131  1.0000
  C   C161      1.0  0.0013502856330509516  0.5165327394873982  0.6658857359899105  1.0000
  C   C162      1.0  0.017829832688502245  0.5440119623102405  0.6518231057643312  1.0000
  H   H105      1.0  0.028631828282216887  0.5289806549805213  0.5203227729218842  1.0000
  H   H106      1.0  0.9986327595161377  0.48106409646427867  0.5449030232776929  1.0000
  H   H107      1.0  0.9938643578210683  0.5130857028954908  0.7064485666001252  1.0000
  H   H108      1.0  0.023532244534553826  0.5612536638662253  0.681848131729146  1.0000
  C   C163      1.0  0.0807024674681136  0.42609832189508523  0.41838001218853343  1.0000
  C   C164      1.0  0.10637786035302388  0.42322436824377124  0.4535465834907006  1.0000
  C   C165      1.0  0.11834998760800297  0.3927904765506402  0.46864023911888875  1.0000
  C   C166      1.0  0.1048421236769721  0.3652469060999305  0.4482595320207387  1.0000
  C   C167      1.0  0.07951464848037149  0.3681938788015007  0.41251641572865944  1.0000
  C   C168      1.0  0.06736242847389784  0.3985701347424123  0.3977949567962372  1.0000
  H   H109      1.0  0.11692419403887033  0.4444019107041498  0.46931057655015396  1.0000
  H   H110      1.0  0.137944285209894  0.39060766509505285  0.4963552406053256  1.0000
  H   H111      1.0  0.06934639229872008  0.34710817695417184  0.395929545523283  1.0000
  H   H112      1.0  0.047676304492795696  0.4007028767827739  0.37027384003297664  1.0000
  C   C169      1.0  0.9771869357893832  0.08165517694049451  0.783466175696869  1.0000
  C   C170      1.0  0.972727472312033  0.10900824103005902  0.8148390493895755  1.0000
  C   C171      1.0  0.9863907141729319  0.11022800348014038  0.8654800754217455  1.0000
  C   C172      1.0  0.0036129087302207985  0.08364916672090315  0.8855566131460647  1.0000
  C   C173      1.0  0.0077947631501009695  0.056191710305350195  0.8545752582866876  1.0000
  C   C174      1.0  0.9952109594334072  0.055488927679594235  0.8032282616408686  1.0000
  H   H113      1.0  0.9589878718216648  0.12939895973962773  0.7996754470662668  1.0000
  H   H114      1.0  0.983229990434645  0.1316121150624478  0.8891315442219464  1.0000
  H   H115      1.0  0.021418076662722108  0.03571138144324304  0.8696751091104192  1.0000
  H   H116      1.0  0.9995451406066224  0.034633031496675404  0.7792067073104136  1.0000
  C   C175      1.0  0.962552570895394  0.9750400962749362  0.3572973684992555  1.0000
  C   C176      1.0  0.9842817956913756  0.9979944976468871  0.3414854495781922  1.0000
  C   C177      1.0  0.001464650147437574  0.014524822906317292  0.3795359469107532  1.0000
  C   C178      1.0  0.9967169661188054  0.0085687604118303  0.43368336232394433  1.0000
  C   C179      1.0  0.9746990910822346  0.985831958683475  0.4496706363586477  1.0000
  C   C180      1.0  0.9576534183730135  0.9690543358616528  0.4114718807183537  1.0000
  H   H117      1.0  0.9879660323239439  0.0030823955928545033  0.299907182806023  1.0000
  H   H118      1.0  0.01848574942486536  0.03187611722190753  0.366853138185414  1.0000
  H   H119      1.0  0.970765761962045  0.9812503225254221  0.49142816126504757  1.0000
  H   H120      1.0  0.9406051214509769  0.9515807492401019  0.4238899646855845  1.0000
  C   C181      1.0  0.05341723871155879  0.6476634194877571  0.2579091331586139  1.0000
  C   C182      1.0  0.08366446239711989  0.6437562995651219  0.23434419331586262  1.0000
  C   C183      1.0  0.10878218605405343  0.628450356063782  0.26245109453728843  1.0000
  C   C184      1.0  0.10381286517160748  0.617232746923474  0.3143185185400732  1.0000
  C   C185      1.0  0.07367304096114813  0.6215182079050169  0.337957509583606  1.0000
  C   C186      1.0  0.0485256875713882  0.6364906759859775  0.3097304607989887  1.0000
  H   H121      1.0  0.08773799243754787  0.6524306279797802  0.19452707805612168  1.0000
  H   H122      1.0  0.13214069588642285  0.6254904299555049  0.24411251196705394  1.0000
  H   H123      1.0  0.069868130866507  0.6141224651967115  0.37850270415918397  1.0000
  H   H124      1.0  0.025276108559924015  0.6397282498709991  0.3283446211186641  1.0000
  C   C187      1.0  0.9792242232969798  0.8167181681885419  0.07266781106971583  1.0000
  C   C188      1.0  0.9581953874986868  0.8431694728966614  0.07952535126792287  1.0000
  C   C189      1.0  0.9700768286901583  0.8741746386704453  0.08193524878153631  1.0000
  C   C190      1.0  0.0029635042656865895  0.8787957596354692  0.07703783497580173  1.0000
  C   C191      1.0  0.023848709891793884  0.8523384251914053  0.06934171649764144  1.0000
  C   C192      1.0  0.012051332152520411  0.8213344834806089  0.06761574429677575  1.0000
  H   H125      1.0  0.93278942537276  0.8396535268348978  0.08307370755233862  1.0000
  H   H126      1.0  0.9538093471531902  0.8945151873684228  0.08648894343127722  1.0000
  H   H127      1.0  0.04923346648398996  0.8557981085566745  0.06506194410104273  1.0000
  H   H128      1.0  0.02838108729486377  0.8010544556244443  0.061891192382476125  1.0000
  C   C193      1.0  0.9282473087720464  0.8676253677888204  0.7631564614309276  1.0000
  C   C194      1.0  0.953596281596595  0.8880426290048125  0.7548528459176176  1.0000
  C   C195      1.0  0.9523645172094455  0.9103143066583694  0.7131346529385257  1.0000
  C   C196      1.0  0.9255470142414681  0.9125478133468119  0.6803378013763091  1.0000
  C   C197      1.0  0.8998223114287223  0.892700940817264  0.68956575738296  1.0000
  C   C198      1.0  0.901236911788834  0.8701226254924925  0.7308198190567986  1.0000
  H   H129      1.0  0.9749076663937198  0.8854568327204243  0.7788156374919111  1.0000
  H   H130      1.0  0.9728089064869854  0.9246696528044608  0.7050625646219106  1.0000
  H   H131      1.0  0.8791418151991208  0.8941903262738762  0.6640435041527143  1.0000
  H   H132      1.0  0.8818511913652866  0.8538981756449083  0.7365443169496925  1.0000
  C   C199      1.0  0.9676363701375819  0.6644299195254693  0.8187480778513649  1.0000
  C   C200      1.0  0.9741408687820542  0.6887590340226875  0.8547228769917349  1.0000
  C   C201      1.0  0.9938818622805913  0.6821392368639143  0.8986905675595953  1.0000
  C   C202      1.0  0.007751757194005782  0.6514611938293852  0.905674211219618  1.0000
  C   C203      1.0  0.0021919049834704385  0.6276453598732643  0.8683728909779267  1.0000
  C   C204      1.0  0.9817812610164751  0.6339532978461123  0.8255764823732133  1.0000
  H   H133      1.0  0.9632089297283489  0.712372193869599  0.8496080120191057  1.0000
  H   H134      1.0  0.9980806109967977  0.7006827751358082  0.9272945144057542  1.0000
  H   H135      1.0  0.013161017547285159  0.604067833350197  0.8729643561461343  1.0000
  H   H136      1.0  0.9768821919814232  0.6151390716523831  0.797732258567964  1.0000
  C   C205      1.0  0.1668981142976597  0.9451657909310476  0.6465915203657943  1.0000
  C   C206      1.0  0.1386546202141362  0.9421682062542326  0.6176418317326914  1.0000
  C   C207      1.0  0.10902675038883158  0.952063699678557  0.639795317834128  1.0000
  C   C208      1.0  0.10764367912404427  0.9642476487710856  0.6914001220566086  1.0000
  C   C209      1.0  0.13583321322303113  0.9675145980218898  0.7199534100327222  1.0000
  C   C210      1.0  0.16534102260238814  0.9586456948087415  0.6971559969182429  1.0000
  H   H137      1.0  0.139665835173923  0.9320140754414792  0.5782451543188053  1.0000
  H   H138      1.0  0.08727477588103683  0.9496067897558033  0.6174796521161884  1.0000
  H   H139      1.0  0.13490788111501137  0.9771537801018454  0.7597043829494996  1.0000
  H   H140      1.0  0.18675692900269397  0.9623706481867768  0.7189063068653287  1.0000
  C   C211      1.0  0.2900062991925234  0.11259647365106162  0.21667322838749503  1.0000
  C   C212      1.0  0.3063827643933453  0.0837544708314284  0.22849573740197868  1.0000
  C   C213      1.0  0.3218092295135791  0.0796446942818172  0.2774402200129312  1.0000
  C   C214      1.0  0.31989600054481654  0.10377792470349245  0.3157450398960527  1.0000
  C   C215      1.0  0.30415714980777836  0.13291900352876182  0.30348854685724896  1.0000
  C   C216      1.0  0.2895811153579687  0.1374554816660724  0.25376139678338483  1.0000
  H   H141      1.0  0.3077149861462562  0.06473866377147397  0.19960243115592652  1.0000
  H   H142      1.0  0.33529253067655734  0.057718835664323453  0.28567644362804334  1.0000
  H   H143      1.0  0.3032851646057976  0.1520104757537841  0.3321585681100092  1.0000
  H   H144      1.0  0.2772797269942955  0.15994834621799006  0.24466437996388282  1.0000
  C   C217      1.0  0.1225840415195744  0.03198193077750755  0.22039612290478555  1.0000
  C   C218      1.0  0.11740012950402942  0.0593877521705124  0.18911900737069048  1.0000
  C   C219      1.0  0.08613873631881797  0.0703734772252258  0.17788197575955644  1.0000
  C   C220      1.0  0.060098357086504794  0.0536359634435839  0.19731940010258217  1.0000
  C   C221      1.0  0.06530856734945889  0.027246339110797768  0.23074970770635925  1.0000
  C   C222      1.0  0.09650725418024075  0.01642905878496892  0.24229722646065946  1.0000
  H   H145      1.0  0.1373806523024218  0.07224721644877952  0.17371061984385888  1.0000
  H   H146      1.0  0.0822341460036673  0.09131001522084414  0.1529521066550497  1.0000
  H   H147      1.0  0.04531520464368688  0.015211646865827433  0.24802994421292557  1.0000
  H   H148      1.0  0.10041179505824815  0.9955554277368048  0.2673028254057306  1.0000
  C   C223      1.0  0.20872851589637895  0.0369241027760463  0.9180027400176606  1.0000
  C   C224      1.0  0.23824019920028516  0.05142488708889914  0.9219048340391064  1.0000
  C   C225      1.0  0.26021531170438367  0.04953637587785975  0.8797919047778628  1.0000
  C   C226      1.0  0.25314102266679545  0.03233853421001798  0.8341803691898697  1.0000
  C   C227      1.0  0.2234502476857881  0.018166716648948755  0.829817663031411  1.0000
  C   C228      1.0  0.20114289788739964  0.020675981521009357  0.871554759728138  1.0000
  H   H149      1.0  0.24408440602205952  0.06459002547183923  0.9570290630417435  1.0000
  H   H150      1.0  0.28299366701334433  0.06087873398649046  0.883181819938428  1.0000
  H   H151      1.0  0.21757155887135562  0.005491864493462506  0.7941435108475251  1.0000
  H   H152      1.0  0.1783992641418128  0.009308674601875566  0.8683465291137417  1.0000
  C   C229      1.0  0.2501030745990362  0.88589309763361  0.23598307463772994  1.0000
  C   C230      1.0  0.23473727653662005  0.9157622870567359  0.22873823094460727  1.0000
  C   C231      1.0  0.24685387749441517  0.9376459876125294  0.19226888161616187  1.0000
  C   C232      1.0  0.27440746798985705  0.9297941605550472  0.162801321663101  1.0000
  C   C233      1.0  0.2900478422935347  0.8999859178966587  0.1703543884607572  1.0000
  C   C234      1.0  0.27785931900666644  0.877957265314685  0.20698382722599065  1.0000
  H   H153      1.0  0.21332575647345497  0.9220232030282763  0.2512216629929319  1.0000
  H   H154      1.0  0.23477042292112096  0.9606282228261298  0.18716021704827993  1.0000
  H   H155      1.0  0.3114137905999748  0.8938909256708901  0.14768843843446555  1.0000
  H   H156      1.0  0.28976366626470157  0.8548338856234928  0.21248493437992405  1.0000
  C   C235      1.0  0.19198915188069288  0.7161305698611516  0.19828961251669644  1.0000
  C   C236      1.0  0.16238420297453304  0.7018884795226641  0.1930640771180925  1.0000
  C   C237      1.0  0.1410983916710749  0.7122465821276018  0.15335592954517102  1.0000
  C   C238      1.0  0.14994737341805967  0.7358619158899794  0.11715793186772122  1.0000
  C   C239      1.0  0.1800259112875497  0.7492832992817694  0.12110105691179432  1.0000
  C   C240      1.0  0.20082660653346507  0.7397652838003757  0.16207211822655143  1.0000
  H   H157      1.0  0.1557077772740587  0.6829894449975644  0.21990422680557767  1.0000
  H   H158      1.0  0.11793201420242982  0.7018109706736744  0.15079442734018703  1.0000
  H   H159      1.0  0.18722710297120057  0.7670471148917404  0.09247371051268918  1.0000
  H   H160      1.0  0.2239919466307945  0.750098090917281  0.16464304693325557  1.0000
  C   C241      1.0  0.19499599633642584  0.6002199160531305  0.8533793939994682  1.0000
  C   C242      1.0  0.21929732398819848  0.6201050544913135  0.8694720877933017  1.0000
  C   C243      1.0  0.23634482416497  0.6130509749604383  0.9160506335057295  1.0000
  C   C244      1.0  0.22946229765678763  0.5858538732895255  0.9461694278212197  1.0000
  C   C245      1.0  0.20514048967345405  0.5659719771091632  0.9300743489868109  1.0000
  C   C246      1.0  0.1878162695863117  0.5732692934845024  0.8838434843289529  1.0000
  H   H161      1.0  0.22524265988144418  0.6407254200882255  0.845863770231382  1.0000
  H   H162      1.0  0.2552488473402387  0.6283688333893166  0.92831404988964  1.0000
  H   H163      1.0  0.1995320093386933  0.5451328598601126  0.9534861978819914  1.0000
  H   H164      1.0  0.1688692373226333  0.5580397377444279  0.8717574984086919  1.0000
  C   C247      1.0  0.04777622550181171  0.7720999755610515  0.6498954594556319  1.0000
  C   C248      1.0  0.04492823035451621  0.7866359435243521  0.6995915304670163  1.0000
  C   C249      1.0  0.06980244791962953  0.7833989615327321  0.7362849974386693  1.0000
  C   C250      1.0  0.0975646347265311  0.7656217437036683  0.7232528977072812  1.0000
  C   C251      1.0  0.10111061221441053  0.7523429182487954  0.6725846878611086  1.0000
  C   C252      1.0  0.07622849995949375  0.7557226351505997  0.6357582731089324  1.0000
  H   H165      1.0  0.023366549435986927  0.80018709214054  0.7100500558738158  1.0000
  H   H166      1.0  0.06711278486794825  0.7939994196735825  0.7752214204136593  1.0000
  H   H167      1.0  0.1228225192254359  0.7391441855126719  0.6619117928002052  1.0000
  H   H168      1.0  0.07859667578393803  0.7447166759066841  0.5971202158850466  1.0000
  C   C253      1.0  0.22262430798313781  0.6968018843996338  0.532223480682583  1.0000
  C   C254      1.0  0.22700169155355215  0.6968576368876968  0.4772029973255912  1.0000
  C   C255      1.0  0.25026412005250487  0.7159074255374144  0.45391997574956877  1.0000
  C   C256      1.0  0.2696501671576679  0.7343132165727836  0.4859263972325189  1.0000
  C   C257      1.0  0.2667998774656315  0.7324952344120853  0.541090673965814  1.0000
  C   C258      1.0  0.24342646312855995  0.7135785392064151  0.5641818050709009  1.0000
  H   H169      1.0  0.21231299677587437  0.682357241663482  0.4526069220402236  1.0000
  H   H170      1.0  0.25311730521013615  0.7164733973232307  0.4112513987581092  1.0000
  H   H171      1.0  0.2822655485665695  0.7461319516316925  0.5660110164516552  1.0000
  H   H172      1.0  0.2418231352052514  0.7119491526724628  0.606717666046889  1.0000
  C   C259      1.0  0.27759805138141824  0.7688201203409927  0.7629782818374734  1.0000
  C   C260      1.0  0.2981353549981716  0.7918530242599554  0.743168177069875  1.0000
  C   C261      1.0  0.29631562588089566  0.8232064853202072  0.762789209469139  1.0000
  C   C262      1.0  0.27477658435994134  0.8312091904234824  0.8036564254375271  1.0000
  C   C263      1.0  0.2543178986636086  0.8081341854417773  0.8236181760760881  1.0000
  C   C264      1.0  0.25531938616623834  0.7771098367954606  0.8026241866200639  1.0000
  H   H173      1.0  0.3154162321880637  0.7854559946541362  0.7125653990965082  1.0000
  H   H174      1.0  0.31232849106198196  0.8408916543243937  0.7475151475459393  1.0000
  H   H175      1.0  0.23765297976038163  0.8142752337180809  0.8552554624152475  1.0000
  H   H176      1.0  0.23963546528309485  0.7592943008931988  0.8184169753285717  1.0000
  C   C265      1.0  0.774139442895716  0.07647849179172406  0.3439650160732298  1.0000
  C   C266      1.0  0.7923383187337254  0.09956572528143814  0.318662776416255  1.0000
  C   C267      1.0  0.7928431755952261  0.10159528636608983  0.2631368473272762  1.0000
  C   C268      1.0  0.7752214172435207  0.08052709912638556  0.23294329754811835  1.0000
  C   C269      1.0  0.7583923343096576  0.056442484814261056  0.258224087147679  1.0000
  C   C270      1.0  0.7578179131335143  0.05448309586366551  0.3136521239766889  1.0000
  H   H177      1.0  0.8057145291449546  0.11613577363517535  0.34191019768350245  1.0000
  H   H178      1.0  0.8073777915759355  0.11902270858327049  0.24373517665974612  1.0000
  H   H179      1.0  0.7453297296530468  0.03961136919246821  0.23494663951886202  1.0000
  H   H180      1.0  0.745198846773622  0.03554192742423301  0.3326294541524701  1.0000
  C   C271      1.0  0.8472589734933332  0.9452634606654026  0.9671136472071983  1.0000
  C   C272      1.0  0.8795394974559315  0.9432683925548592  0.9815530622331929  1.0000
  C   C273      1.0  0.8919096103150077  0.9658942269441527  0.016173152937144494  1.0000
  C   C274      1.0  0.8720194466206442  0.990690672207674  0.0359617229933733  1.0000
  C   C275      1.0  0.8400042392249912  0.993094656082921  0.020505423795636357  1.0000
  C   C276      1.0  0.8275758861808029  0.9702111723478393  0.9866382826664554  1.0000
  H   H181      1.0  0.8949131573580489  0.9240080486385888  0.9665439007082558  1.0000
  H   H182      1.0  0.9167070504073368  0.9639373222470436  0.02805348373211913  1.0000
  H   H183      1.0  0.8244615754296835  0.011939010052562038  0.03651303382955384  1.0000
  H   H184      1.0  0.8024234305510889  0.9711499532205176  0.9776707130567681  1.0000
  C   C277      1.0  0.7580161576966311  0.04689287753040938  0.7263689752340251  1.0000
  C   C278      1.0  0.7450393697248036  0.07810806057848718  0.7285732648999833  1.0000
  C   C279      1.0  0.7195584763818446  0.08727432321785145  0.6954180370162738  1.0000
  C   C280      1.0  0.7077492121736109  0.06555950802822497  0.6589904730773741  1.0000
  C   C281      1.0  0.7208266556452589  0.03442025468557852  0.6566568904859149  1.0000
  C   C282      1.0  0.74583306268967  0.025041750027197107  0.6905511664906646  1.0000
  H   H185      1.0  0.7541734536824823  0.0950482114123139  0.7564291164434777  1.0000
  H   H186      1.0  0.7093328749381266  0.11135802404259643  0.6973931490048395  1.0000
  H   H187      1.0  0.7112527451894152  0.017315232078233045  0.6294996476860117  1.0000
  H   H188      1.0  0.7557266442256114  0.0008305533012991084  0.6888805008579103  1.0000
  C   C283      1.0  0.8870328541339104  0.7744476722439875  0.4372089940464216  1.0000
  C   C284      1.0  0.9095615479121105  0.776744706148258  0.4776407388004509  1.0000
  C   C285      1.0  0.9002195058073686  0.7729969661670532  0.5308020827514078  1.0000
  C   C286      1.0  0.868364406761247  0.766899286933008  0.543501184706217  1.0000
  C   C287      1.0  0.8460819948135074  0.7636770503602468  0.5029672788285751  1.0000
  C   C288      1.0  0.8554263861092462  0.7673917606896247  0.44986430359230417  1.0000
  H   H189      1.0  0.9340998436959238  0.7817633952378954  0.46788972418336217  1.0000
  H   H190      1.0  0.9176554686681119  0.7749915598463857  0.5618529341387554  1.0000
  H   H191      1.0  0.821639753493873  0.7581437443784564  0.5125535659199048  1.0000
  H   H192      1.0  0.8382432351121156  0.7643069062954259  0.418698087637736  1.0000
  C   C289      1.0  0.7769237755152132  0.9143463775288795  0.3549337007027618  1.0000
  C   C290      1.0  0.7745825680355864  0.9450309237803446  0.37647236827133634  1.0000
  C   C291      1.0  0.7511488155654017  0.9525523582962206  0.41469655666662564  1.0000
  C   C292      1.0  0.7296324279426506  0.9294867000682809  0.4308934865381506  1.0000
  C   C293      1.0  0.7322428427160358  0.8986120921684398  0.4100115180358397  1.0000
  C   C294      1.0  0.7559581071847894  0.8909838804846293  0.37209408266191446  1.0000
  H   H193      1.0  0.7909505892654659  0.9629158842642144  0.3637176211717524  1.0000
  H   H194      1.0  0.7499037890141176  0.976188908396918  0.4317560466515547  1.0000
  H   H195      1.0  0.7155465221888623  0.8808500616521457  0.42249754487087937  1.0000
  H   H196      1.0  0.7575682531438985  0.8672869315169173  0.35537455004454555  1.0000
  C   C295      1.0  0.7441260455688518  0.6095444364478374  0.7636239980792365  1.0000
  C   C296      1.0  0.7573838201445519  0.5901960201929691  0.7235190119372464  1.0000
  C   C297      1.0  0.7445081888370123  0.5916642007406194  0.6722743401969649  1.0000
  C   C298      1.0  0.7183598136226912  0.6123937394645357  0.6613442492125787  1.0000
  C   C299      1.0  0.7045479080537207  0.6307693040115305  0.7020042296653484  1.0000
  C   C300      1.0  0.7173470495205807  0.6293420955011897  0.7530826372124046  1.0000
  H   H197      1.0  0.7783158389686455  0.5750819144098986  0.7314211428971782  1.0000
  H   H198      1.0  0.7554448885049864  0.577446328882302  0.6410249201588784  1.0000
  H   H199      1.0  0.6840595269972716  0.6462075636249521  0.6938789747749025  1.0000
  H   H200      1.0  0.7065813022030126  0.6438436926792362  0.7842145663199541  1.0000
  C   C301      1.0  0.762791300731512  0.7289866579367368  0.06208847748907721  1.0000
  C   C302      1.0  0.7656527059778487  0.7327524599937134  0.11695410162695008  1.0000
  C   C303      1.0  0.7882406225788654  0.7533982128745141  0.13736206849179744  1.0000
  C   C304      1.0  0.8085508185122797  0.7696785117016339  0.10291073314100453  1.0000
  C   C305      1.0  0.805876332257847  0.7656018190345338  0.04819041373377751  1.0000
  C   C306      1.0  0.7829493640335106  0.7454302241167778  0.027709209880876662  1.0000
  H   H201      1.0  0.7504388696569516  0.7196873897219888  0.14359531111219895  1.0000
  H   H202      1.0  0.7900141174735615  0.7564512340910489  0.17969804896364702  1.0000
  H   H203      1.0  0.8212950914968462  0.7782833690996773  0.02167781441366934  1.0000
  H   H204      1.0  0.7808864381279943  0.7427115837874753  0.9852982933705047  1.0000
  C   C307      1.0  0.7938082732376815  0.7930434709760588  0.7909892718542557  1.0000
  C   C308      1.0  0.7625234761592303  0.7905187362743749  0.7726017099451635  1.0000
  C   C309      1.0  0.7467126666254339  0.8168739170437512  0.7488773939700629  1.0000
  C   C310      1.0  0.76160520059078  0.8462529845937271  0.7457373978524316  1.0000
  C   C311      1.0  0.793141435957014  0.8486690554982439  0.7629525713620616  1.0000
  C   C312      1.0  0.809503264205649  0.8218513550339636  0.7844141441346205  1.0000
  H   H205      1.0  0.7502417631875992  0.7684113769973543  0.7772259919306694  1.0000
  H   H206      1.0  0.7225257842817807  0.8147282094890271  0.7351224073427532  1.0000
  H   H207      1.0  0.8049679786769809  0.8711969563957725  0.7598380066879719  1.0000
  H   H208      1.0  0.8339100834841557  0.8238327796751905  0.7973082740313586  1.0000
  C   C313      1.0  0.4684362852566333  0.10045023802958775  0.7131074966285211  1.0000
  C   C314      1.0  0.48528213951445043  0.0723609809416188  0.6986074108589974  1.0000
  C   C315      1.0  0.5059316156768596  0.07225394074323166  0.654726949255096  1.0000
  C   C316      1.0  0.5107008159395828  0.10055800701740214  0.6265398307322755  1.0000
  C   C317      1.0  0.493986008484574  0.12873251933330035  0.6409861392294035  1.0000
  C   C318      1.0  0.47228344703331154  0.1285069009207258  0.6836098314324356  1.0000
  H   H209      1.0  0.48254056115371136  0.050677273205388174  0.7212112685209253  1.0000
  H   H210      1.0  0.5188924740727292  0.05046511040277445  0.6436650365042188  1.0000
  H   H211      1.0  0.4976640919110482  0.15069571258144993  0.619196588140428  1.0000
  H   H212      1.0  0.45905050392557684  0.1502190926861584  0.6942944552121134  1.0000
  C   C319      1.0  0.5810178972498519  0.976284641652903  0.8241887131622279  1.0000
  C   C320      1.0  0.5827850772312613  0.9893325535690937  0.8750018501988238  1.0000
  C   C321      1.0  0.612020249640737  0.9886039675014343  0.9020927209749852  1.0000
  C   C322      1.0  0.6396642840453791  0.9750771536587513  0.8784095469836551  1.0000
  C   C323      1.0  0.6379410805606817  0.9623515636558152  0.827279851177713  1.0000
  C   C324      1.0  0.6086651013341695  0.9629497985369984  0.8002537781459951  1.0000
  H   H213      1.0  0.5615752867705608  0.9997104184260193  0.8937356480164297  1.0000
  H   H214      1.0  0.613201601965359  0.9984767657057517  0.941610791829969  1.0000
  H   H215      1.0  0.6590462349423223  0.9517874068335481  0.8087749715976535  1.0000
  H   H216      1.0  0.6074053487541603  0.9530234805893207  0.7608002699136183  1.0000
  C   C325      1.0  0.3609854204611135  0.93622161783207  0.45675706859938137  1.0000
  C   C326      1.0  0.38943668449496527  0.9429546564940579  0.48252739005598977  1.0000
  C   C327      1.0  0.39120542185768903  0.9409646037066813  0.5379278414546412  1.0000
  C   C328      1.0  0.36426417530733013  0.9330699075369041  0.5677635344071882  1.0000
  C   C329      1.0  0.3354896315815052  0.9272336379393449  0.5422160573293494  1.0000
  C   C330      1.0  0.33396197656092474  0.9284733487359488  0.4866422886230596  1.0000
  H   H217      1.0  0.41038675871121283  0.9487717699127234  0.4598767842719544  1.0000
  H   H218      1.0  0.4135052164022057  0.9454026665685078  0.5576160248301417  1.0000
  H   H219      1.0  0.31459453948858496  0.9211390868924896  0.5652131872165937  1.0000
  H   H220      1.0  0.31186857512036315  0.9232654586807768  0.4668991595098167  1.0000
  C   C331      1.0  0.42023363874089015  0.03151085753462546  0.13063812234338804  1.0000
  C   C332      1.0  0.4172004036623885  0.022892906638859456  0.07743662655158821  1.0000
  C   C333      1.0  0.44088817784252976  0.030745352044096563  0.040536605728500374  1.0000
  C   C334      1.0  0.4672214887130353  0.04805959275845706  0.05639486834330091  1.0000
  C   C335      1.0  0.47010172512605913  0.05690110892047184  0.10958626166351383  1.0000
  C   C336      1.0  0.4468052856885012  0.048289400434210705  0.14684290659005397  1.0000
  H   H221      1.0  0.3968794116335305  0.00950830615269993  0.06494859819985394  1.0000
  H   H222      1.0  0.43884702206802817  0.022953681908962853  1.7993446599362525e-05  1.0000
  H   H223      1.0  0.4904189770415516  0.07029501810450078  0.1220062836146393  1.0000
  H   H224      1.0  0.44899498245037145  0.05532584759060688  0.1878633754884029  1.0000
  C   C337      1.0  0.515855498020939  0.04294741568020766  0.3984974775981256  1.0000
  C   C338      1.0  0.536809002824154  0.047875923000370246  0.44058105431627237  1.0000
  C   C339      1.0  0.5696472763852046  0.050839355765446514  0.4306823301306759  1.0000
  C   C340      1.0  0.5812338026693891  0.05004622249688628  0.3784716752858435  1.0000
  C   C341      1.0  0.5604548797873601  0.04429056931479791  0.33672115543476827  1.0000
  C   C342      1.0  0.5278883610734622  0.040490172498792276  0.34678793054974844  1.0000
  H   H225      1.0  0.5275984978229443  0.05014614250988991  0.4807029084520805  1.0000
  H   H226      1.0  0.5855502083969423  0.055717125138045276  0.4631324884854399  1.0000
  H   H227      1.0  0.56930994734257  0.043975130967886855  0.29626003841261433  1.0000
  H   H228      1.0  0.5118789417299259  0.03782446239718662  0.31402115889951493  1.0000
  C   C343      1.0  0.39397920720579765  0.7302869876047234  0.07325332376545646  1.0000
  C   C344      1.0  0.3617605947446339  0.7340756324198405  0.0882175681720685  1.0000
  C   C345      1.0  0.3536341925523743  0.7436788652598461  0.14010524817556005  1.0000
  C   C346      1.0  0.37780366126938275  0.7491645445143098  0.17674220083583528  1.0000
  C   C347      1.0  0.4098425442772477  0.7439817424289625  0.16223544777446938  1.0000
  C   C348      1.0  0.4178880858089378  0.7345064348757954  0.11065725396706783  1.0000
  H   H229      1.0  0.3431939871898891  0.7307621283594861  0.05933232438142588  1.0000
  H   H230      1.0  0.328845168630849  0.7477412571574813  0.15123366781287273  1.0000
  H   H231      1.0  0.4285573353780154  0.7477734258152442  0.19069891691874669  1.0000
  H   H232      1.0  0.44267954704960394  0.7303910544229626  0.0998841362137548  1.0000
  C   C349      1.0  0.4369539481441889  0.8956330464756  0.012293380730133752  1.0000
  C   C350      1.0  0.41286060456519585  0.9170791801741772  0.029947759121615514  1.0000
  C   C351      1.0  0.39957488146996034  0.939847489932982  0.9948195107630967  1.0000
  C   C352      1.0  0.41065953802905675  0.9412538974117334  0.9423779363009068  1.0000
  C   C353      1.0  0.4353166868419077  0.9203949468179229  0.9253759329595571  1.0000
  C   C354      1.0  0.44807680151062207  0.8971958608812749  0.9600034301037025  1.0000
  H   H233      1.0  0.40419767284940666  0.9159291241228976  0.07042954344848029  1.0000
  H   H234      1.0  0.38119268425245567  0.9566366037831016  0.008616190203726504  1.0000
  H   H235      1.0  0.44461970533271344  0.9222245130035603  0.8855309125731654  1.0000
  H   H236      1.0  0.4670188781338373  0.8809900381095993  0.9464856567080338  1.0000
  C   C355      1.0  0.5870659671215691  0.7462624143761875  0.9481886457779388  1.0000
  C   C356      1.0  0.5761792397680475  0.7510384011295946  0.8962314705669097  1.0000
  C   C357      1.0  0.5975345935982715  0.74722315771953  0.8533018719838902  1.0000
  C   C358      1.0  0.6297141177880936  0.7390282359722526  0.8625763152702584  1.0000
  C   C359      1.0  0.6404586461368973  0.7346184382963505  0.9145798140499747  1.0000
  C   C360      1.0  0.6191403039348005  0.7379423070985722  0.9572566450071174  1.0000
  H   H237      1.0  0.5513199841069153  0.7573400989684719  0.8890861365114846  1.0000
  H   H238      1.0  0.5890925778577877  0.7503779620167083  0.8131032184382253  1.0000
  H   H239      1.0  0.6652573444025789  0.7287377246394912  0.9222613523794096  1.0000
  H   H240      1.0  0.6276191810615772  0.7342885861144032  0.997369921290603  1.0000
  C   C361      1.0  0.6078866953581892  0.6860168600870068  0.42722264241041347  1.0000
  C   C362      1.0  0.6173289258130021  0.711245587893116  0.3949650929416896  1.0000
  C   C363      1.0  0.6282773017787638  0.7055907342033172  0.34324972375421137  1.0000
  C   C364      1.0  0.6296695646971017  0.6745061837082552  0.32307040919619934  1.0000
  C   C365      1.0  0.6210334011976307  0.6488492176960378  0.3555294132732446  1.0000
  C   C366      1.0  0.610284080224557  0.6546220693120869  0.4078241850213281  1.0000
  H   H241      1.0  0.6160399561246637  0.7352537457630152  0.4098747738499094  1.0000
  H   H242      1.0  0.635247004477543  0.725546800697411  0.31888996803057984  1.0000
  H   H243      1.0  0.6221586847854504  0.624726510397996  0.3402064908825791  1.0000
  H   H244      1.0  0.6031224074604413  0.6349487417387764  0.43277472442045434  1.0000
  C   C367      1.0  0.6614477750717647  0.820541557434023  0.3945638764140464  1.0000
  C   C368      1.0  0.6628771743830979  0.7877989677366701  0.4056990864631616  1.0000
  C   C369      1.0  0.6874768054018711  0.7682392311169279  0.3844393352803455  1.0000
  C   C370      1.0  0.7112896037357338  0.7816113673484693  0.3530859295106766  1.0000
  C   C371      1.0  0.7098574651353756  0.8143945335904312  0.341586062225078  1.0000
  C   C372      1.0  0.6846665087480138  0.8337975215920075  0.3617224147232975  1.0000
  H   H245      1.0  0.6451101804092215  0.7776147535090394  0.4311641181766195  1.0000
  H   H246      1.0  0.6882607877011597  0.7429399641768729  0.3933661937708546  1.0000
  H   H247      1.0  0.7279345208963808  0.8247948405174859  0.3168363434820231  1.0000
  H   H248      1.0  0.6833601005755564  0.8590880296772246  0.3523726569512204  1.0000
  C   C373      1.0  0.5477193649474679  0.8063379438296209  0.7069798803514814  1.0000
  C   C374      1.0  0.5176308483710146  0.8073600332412654  0.6830854016423592  1.0000
  C   C375      1.0  0.4898388956150591  0.8071546332843637  0.7146275440794663  1.0000
  C   C376      1.0  0.4921060886294717  0.8059446077338648  0.7700419241249602  1.0000
  C   C377      1.0  0.5221866989738064  0.8046630893660859  0.7938021217586652  1.0000
  C   C378      1.0  0.5499125088837988  0.8049562212104826  0.7623555992618816  1.0000
  H   H249      1.0  0.515739539571755  0.8084856768843759  0.6403367671646124  1.0000
  H   H250      1.0  0.46663931907840245  0.8075844883887926  0.6959927998717462  1.0000
  H   H251      1.0  0.5241624904340694  0.8035140242085375  0.8364468362505234  1.0000
  H   H252      1.0  0.5730071703309065  0.8038707824372523  0.7811650089598253  1.0000
  C   C379      1.0  0.48626956275501715  0.8425856620627682  0.4025563519799157  1.0000
  C   C380      1.0  0.516652490808138  0.8469549448527577  0.3805102170750781  1.0000
  C   C381      1.0  0.5205538724430369  0.8676210532961411  0.3370978325003333  1.0000
  C   C382      1.0  0.49429807183368446  0.8852325147394201  0.3173808461225846  1.0000
  C   C383      1.0  0.4639509346451775  0.8811039340180912  0.3395730323072307  1.0000
  C   C384      1.0  0.4598820761025698  0.8593979696734939  0.3813588934579782  1.0000
  H   H253      1.0  0.5373013313569166  0.8347647604831123  0.39707163406761736  1.0000
  H   H254      1.0  0.544058140308789  0.8706904636074685  0.32010926439528187  1.0000
  H   H255      1.0  0.44350097978460856  0.8947190674405872  0.324816503981481  1.0000
  H   H256      1.0  0.43643272895238727  0.8562610571082363  0.39800034595666456  1.0000
  N   N1        1.0  0.3638883791009924  0.11450073737631805  0.08223082418534045  1.0000
  C   C385      1.0  0.35191214003671245  0.14236679472644997  0.11324318900845265  1.0000
  C   C386      1.0  0.3548922614325239  0.11880926948009041  0.025956824973305093  1.0000
  C   C387      1.0  0.3497193924659396  0.08507650208942885  0.10330434357394758  1.0000
  C   C388      1.0  0.39906950321727797  0.11172802170746654  0.08651990039899649  1.0000
  H   H257      1.0  0.3571280789262721  0.13924436874591994  0.15627617586179077  1.0000
  H   H258      1.0  0.3255615553863597  0.145836736679533  0.10946522635178302  1.0000
  H   H259      1.0  0.3630291424191851  0.16485738471760358  0.09962193007932618  1.0000
  H   H260      1.0  0.32843674491223457  0.12126091445534559  0.021347224643351037  1.0000
  H   H261      1.0  0.36549705744325595  0.1406271911228203  0.008733953470003497  1.0000
  H   H262      1.0  0.3633172949368834  0.098048592024224  0.0015487939875089562  1.0000
  H   H263      1.0  0.35848494640435313  0.06347425292298436  0.08136793795726605  1.0000
  H   H264      1.0  0.32319402218126136  0.0862453110434036  0.1005465589993233  1.0000
  H   H265      1.0  0.35590283351536106  0.0811490057751012  0.1458077277401344  1.0000
  H   H266      1.0  0.4090585048502699  0.09172775541865419  0.06201759954570307  1.0000
  H   H267      1.0  0.40657707143486177  0.10720702685573635  0.12826282836661584  1.0000
  H   H268      1.0  0.41059235620746953  0.1339294381923961  0.07278041188020401  1.0000
  N   N2        1.0  0.29713897876202927  0.9604196035964953  0.9511982505405424  1.0000
  C   C389      1.0  0.312240553321845  0.9306497054822852  0.9725286869669132  1.0000
  C   C390      1.0  0.31333044782315217  0.988424502231361  0.9726171745563804  1.0000
  C   C391      1.0  0.26298384963298516  0.9621856066306299  0.9665644497595735  1.0000
  C   C392      1.0  0.3000447500879398  0.9603653074010388  0.8927921911701137  1.0000
  H   H269      1.0  0.2999989479364227  0.9091433607730891  0.9581035442810188  1.0000
  H   H270      1.0  0.3115486484207158  0.9302126845352693  0.016695836558532795  1.0000
  H   H271      1.0  0.33771904141832393  0.9281504828832146  0.9599111167105764  1.0000
  H   H272      1.0  0.3122658029918998  0.9888008486578568  0.016782044884626535  1.0000
  H   H273      1.0  0.33897696623342205  0.9882581976664393  0.9606880142217661  1.0000
  H   H274      1.0  0.302147064773004  0.011249898791986235  0.9577348687780692  1.0000
  H   H275      1.0  0.2599946390495666  0.9621333665800874  0.010495172821214593  1.0000
  H   H276      1.0  0.2499703206447347  0.9415809928347635  0.95062770427542  1.0000
  H   H277      1.0  0.2509546784160536  0.9844386673132389  0.9511462444271784  1.0000
  H   H278      1.0  0.2888950097954309  0.9823423842762611  0.8751257301439084  1.0000
  H   H279      1.0  0.28829532493951354  0.9394219515615132  0.8752158645288596  1.0000
  H   H280      1.0  0.32557921904468995  0.9594949274669927  0.8799213125659266  1.0000
  N   N3        1.0  0.7724604936821751  0.8535382882918642  0.5435813214332313  1.0000
  C   C393      1.0  0.7999344460773277  0.8304191828750654  0.541038361399825  1.0000
  C   C394      1.0  0.745580582310638  0.8412880450621677  0.512698352274261  1.0000
  C   C395      1.0  0.7818688142364764  0.8846277544452309  0.5211933893430893  1.0000
  C   C396      1.0  0.7623903136933651  0.8579084646897696  0.5994789562814898  1.0000
  H   H281      1.0  0.8206661902661518  0.8388172992601513  0.5640133452767482  1.0000
  H   H282      1.0  0.808173957383394  0.8264367561922857  0.4993999621514302  1.0000
  H   H283      1.0  0.7937488383845717  0.8067494914042144  0.5580352099516787  1.0000
  H   H284      1.0  0.7244810757907888  0.8582885735528155  0.5136896528474708  1.0000
  H   H285      1.0  0.7523236687559737  0.8376992512964945  0.4702379129333237  1.0000
  H   H286      1.0  0.7376903435381273  0.8179183523951965  0.5285238080023819  1.0000
  H   H287      1.0  0.761662714689687  0.9026591487676765  0.5229527462162024  1.0000
  H   H288      1.0  0.7892942428730879  0.8823695663373917  0.4788048663459454  1.0000
  H   H289      1.0  0.8021492653926274  0.8945801706603149  0.5433661773745829  1.0000
  H   H290      1.0  0.7417029478587798  0.875255112385346  0.6030408590982345  1.0000
  H   H291      1.0  0.7820024968203526  0.8672240323267035  0.6241005680797007  1.0000
  H   H292      1.0  0.7551529691420177  0.8350039389154781  0.6179948011047455  1.0000
  N   N4        1.0  0.12800563580808533  0.5369547990911442  0.7040213869619508  1.0000
  C   C397      1.0  0.1485719516028019  0.520597910790929  0.66400033708889  1.0000
  C   C398      1.0  0.1259359075695771  0.5715851327897836  0.6918781029535829  1.0000
  C   C399      1.0  0.14182971305424785  0.5319072367392869  0.7573547970474971  1.0000
  C   C400      1.0  0.09569143034067461  0.5237367644128192  0.7026380336261485  1.0000
  H   H293      1.0  0.15058289993211016  0.49434810206844726  0.6713489133419817  1.0000
  H   H294      1.0  0.17323701405918263  0.5298163509141853  0.663775897437094  1.0000
  H   H295      1.0  0.1389031631462816  0.5241781800954431  0.62328689888822  1.0000
  H   H296      1.0  0.11123673550105323  0.5847970052094977  0.7220276944090585  1.0000
  H   H297      1.0  0.1500419353239334  0.5821469446220535  0.691785350060476  1.0000
  H   H298      1.0  0.11510624270332687  0.5762703601554864  0.6521966454025876  1.0000
  H   H299      1.0  0.1270196976322088  0.544238350688148  0.7884482773341647  1.0000
  H   H300      1.0  0.16632521997883573  0.5414311979272697  0.759777307436127  1.0000
  H   H301      1.0  0.14331919553526426  0.5060536116941206  0.7681614927833342  1.0000
  H   H302      1.0  0.07935571987405532  0.5357489112427373  0.7319270191308238  1.0000
  H   H303      1.0  0.0963020176500242  0.4977432552357598  0.7125753162888304  1.0000
  H   H304      1.0  0.08480351124473073  0.5266468557088656  0.6626391961566441  1.0000
  N   N5        1.0  0.692442322208242  0.1484368588639068  0.30971978644739423  1.0000
  C   C401      1.0  0.6775130298406526  0.1592965597146527  0.360149644803662  1.0000
  C   C402      1.0  0.7257649630969647  0.1590418455675796  0.30694617032368704  1.0000
  C   C403      1.0  0.6742715363810708  0.16232771634226403  0.2645654094284943  1.0000
  C   C404      1.0  0.6923117854252046  0.11311262197549699  0.307147384466409  1.0000
  H   H305      1.0  0.6524827205009378  0.1513301651045939  0.36401691537544967  1.0000
  H   H306      1.0  0.6767811431738397  0.18589425613593724  0.3632614183402247  1.0000
  H   H307      1.0  0.6908587315788483  0.14965130614013708  0.39511269816782313  1.0000
  H   H308      1.0  0.7377462331523507  0.15104202151990406  0.26947035772890976  1.0000
  H   H309      1.0  0.7267493996377821  0.18563492230871392  0.30803110160915315  1.0000
  H   H310      1.0  0.7402143106582544  0.14915922954776084  0.3405250942902014  1.0000
  H   H311      1.0  0.6734690238589609  0.18898107417771162  0.2658930911919336  1.0000
  H   H312      1.0  0.6491875451590687  0.15433871905250415  0.2645410036927713  1.0000
  H   H313      1.0  0.6854375046722442  0.1553808330372696  0.22586063631974743  1.0000
  H   H314      1.0  0.7035252668242514  0.10406664591105796  0.26966652550047465  1.0000
  H   H315      1.0  0.6675649832601176  0.10412422400858089  0.3091499680254135  1.0000
  H   H316      1.0  0.7058241360252951  0.1018969891840733  0.34070765572947326  1.0000
  N   N6        1.0  0.5803464759800558  0.3719512709273422  0.042651873520908046  1.0000
  C   C405      1.0  0.5775812504221663  0.33833089376433906  0.025849890627450023  1.0000
  C   C406      1.0  0.6045329024871611  0.38764276243990087  0.00937829454722916  1.0000
  C   C407      1.0  0.5901298104043495  0.3728378975600466  0.09882010873843068  1.0000
  C   C408      1.0  0.5491132726997228  0.3890919343555102  0.036656068889839626  1.0000
  H   H317      1.0  0.6005435740676008  0.32446277559864445  0.03093636933419419  1.0000
  H   H318      1.0  0.5706240055370697  0.3368028955816037  0.9834056208833093  1.0000
  H   H319      1.0  0.5593258699786328  0.3258340077907492  0.04988135998869662  1.0000
  H   H320      1.0  0.60734078534407  0.4129944151902231  0.021454870864602068  1.0000
  H   H321      1.0  0.6283033680591545  0.37510477649064194  0.012194882470329294  1.0000
  H   H322      1.0  0.5974811037541337  0.3881315549199497  0.9668060953063132  1.0000
  H   H323      1.0  0.5723242490942916  0.3612506151876088  0.12476161404540703  1.0000
  H   H324      1.0  0.5919988702100754  0.39791555293401076  0.11298594790906001  1.0000
  H   H325      1.0  0.613524836522082  0.36003650144674365  0.10511372057563807  1.0000
  H   H326      1.0  0.5502102477032127  0.4143741289310975  0.050204589092322116  1.0000
  H   H327      1.0  0.530148957298225  0.3778036928928759  0.060666942290310964  1.0000
  H   H328      1.0  0.5412985085934204  0.3898015387835552  0.9945214165858268  1.0000
  N   N7        1.0  0.8340336032366666  0.6805434460835343  0.7202042104141649  1.0000
  C   C409      1.0  0.8405867129465509  0.6816013667322156  0.7777189852996529  1.0000
  C   C410      1.0  0.8642817582294443  0.6741891802463562  0.6909474161197854  1.0000
  C   C411      1.0  0.8197071459202373  0.7116165113077174  0.7027476274649923  1.0000
  C   C412      1.0  0.811638270626702  0.6547658554721253  0.7094262769860401  1.0000
  H   H329      1.0  0.8517129185507754  0.6586649287907473  0.7922138837083441  1.0000
  H   H330      1.0  0.8182934999161104  0.6862855778818008  0.8009900007948341  1.0000
  H   H331      1.0  0.8571563274165162  0.7009885633028599  0.7874080322970525  1.0000
  H   H332      1.0  0.8603579427904614  0.6735152894055509  0.6473348435751518  1.0000
  H   H333      1.0  0.8816863912392899  0.6931212192683067  0.6984973923312974  1.0000
  H   H334      1.0  0.8759331089214426  0.6510286234838589  0.7033004562948362  1.0000
  H   H335      1.0  0.814978704732382  0.7119826946149157  0.6593419029326486  1.0000
  H   H336      1.0  0.8356987490602067  0.7316949562398722  0.7110846277143362  1.0000
  H   H337      1.0  0.7968308039000372  0.7173106160254721  0.7237244076935502  1.0000
  H   H338      1.0  0.8215138995165959  0.6310154082775871  0.7226991241236634  1.0000
  H   H339      1.0  0.8062077150598346  0.6530991451359968  0.6663764819546892  1.0000
  H   H340      1.0  0.7885193681597126  0.658843331743665  0.7307421928892257  1.0000
  N   N8        1.0  0.5437281078104954  0.36144825228918825  0.5651434098608059  1.0000
  C   C413      1.0  0.5285661878490197  0.35983263946715077  0.512403984585868  1.0000
  C   C414      1.0  0.5642407641032509  0.3324848437818361  0.5741783518730708  1.0000
  C   C415      1.0  0.5186375235675634  0.36337278248492544  0.6065872282020599  1.0000
  C   C416      1.0  0.563272826747301  0.39022755062787223  0.5675984751947538  1.0000
  H   H341      1.0  0.5130092466469739  0.338847121445315  0.5094254837489668  1.0000
  H   H342      1.0  0.546699063894128  0.3576564276037528  0.479933287466745  1.0000
  H   H343      1.0  0.513306189945239  0.38163781868415264  0.5040387181464137  1.0000
  H   H344      1.0  0.58312343114747  0.3297825063584969  0.5430671706871414  1.0000
  H   H345      1.0  0.5760682295435469  0.3331432603371221  0.6136005304422696  1.0000
  H   H346      1.0  0.5500449868036303  0.31038334638808396  0.5736833723720953  1.0000
  H   H347      1.0  0.5015836119829957  0.38363951914146055  0.5988907480413247  1.0000
  H   H348      1.0  0.5288986958719397  0.36717339264913024  0.6466513353681201  1.0000
  H   H349      1.0  0.5046431258993342  0.34120697545486506  0.6081820816437178  1.0000
  H   H350      1.0  0.5749926300070908  0.3923240426540618  0.6069191491313646  1.0000
  H   H351      1.0  0.5483140755152699  0.4124603025603585  0.5615076527149782  1.0000
  H   H352      1.0  0.582355562574489  0.3897153627254918  0.5366232037290761  1.0000
  N   N9        1.0  0.8919971264866305  0.9863526220684795  0.7988648248839227  1.0000
  C   C417      1.0  0.8780439601318109  0.9764828621505395  0.7479952969230681  1.0000
  C   C418      1.0  0.9045573313893547  0.018865944850084304  0.7930250406924372  1.0000
  C   C419      1.0  0.9182427354388234  0.9635615173943346  0.8136092289694712  1.0000
  C   C420      1.0  0.8670968189192882  0.9864236274163775  0.8407856674788752  1.0000
  H   H353      1.0  0.8692553854951334  0.9516578512822608  0.7503107900816631  1.0000
  H   H354      1.0  0.896003514763224  0.9769764873319036  0.715179497430833  1.0000
  H   H355      1.0  0.8574989898381592  0.9925887388680182  0.7363728047506913  1.0000
  H   H356      1.0  0.9231054674880531  0.019855151915955327  0.761180055093572  1.0000
  H   H357      1.0  0.8852797254238427  0.036690540784307  0.7823220428359833  1.0000
  H   H358      1.0  0.9158016369752645  0.027025992942716126  0.8302657493504912  1.0000
  H   H359      1.0  0.9096282471646522  0.9387086502278726  0.8176617918881454  1.0000
  H   H360      1.0  0.9292244129843595  0.9700869029772459  0.8519910866344362  1.0000
  H   H361      1.0  0.9375120548679559  0.9629579908234694  0.7830220197339461  1.0000
  H   H362      1.0  0.8766150829526819  0.9942915132860642  0.8795687464098374  1.0000
  H   H363      1.0  0.8577259795199175  0.9620581557942695  0.8470099117740424  1.0000
  H   H364      1.0  0.8464403473961823  0.0026978641772159584  0.8303855089980603  1.0000
  N   N10       1.0  0.8912900768251348  0.4269852913947741  0.5691092984322029  1.0000
  C   C421      1.0  0.8922052379008254  0.4529996185528822  0.6085213840112409  1.0000
  C   C422      1.0  0.9221752612656214  0.4088232040072562  0.56937120125606  1.0000
  C   C423      1.0  0.8855116259432694  0.44088536059848443  0.5158152555356189  1.0000
  C   C424      1.0  0.8652661600093637  0.4052667507468169  0.5828283023540655  1.0000
  H   H365      1.0  0.8693815488643735  0.46736600455766664  0.6093506165179146  1.0000
  H   H366      1.0  0.911709948914567  0.46972843872815573  0.5994926996035388  1.0000
  H   H367      1.0  0.8964577719493794  0.44345820356252685  0.6492876624422753  1.0000
  H   H368      1.0  0.9222491729998761  0.3886992220731511  0.540637347779654  1.0000
  H   H369      1.0  0.9423339295677761  0.42450241531325794  0.5591607393268422  1.0000
  H   H370      1.0  0.9271223589858759  0.3982863589410025  0.6093079205923517  1.0000
  H   H371      1.0  0.8845704664574408  0.42202293402925123  0.484904868287068  1.0000
  H   H372      1.0  0.9046383893441655  0.45744715609792247  0.5040098450711253  1.0000
  H   H373      1.0  0.8623510454301733  0.45482702856526025  0.5146374097425739  1.0000
  H   H374      1.0  0.8679847281618105  0.3954224334239409  0.6237778381383864  1.0000
  H   H375      1.0  0.8649366298470786  0.3844629329438844  0.5554738861818898  1.0000
  H   H376      1.0  0.8414542931778426  0.4177903496729795  0.5804624377417603  1.0000
  N   N11       1.0  0.0856635166981432  0.018015165364308583  0.03201545667479388  1.0000
  C   C425      1.0  0.07632314758714376  0.984400198283895  0.026304631142747278  1.0000
  C   C426      1.0  0.11387585915952192  0.01939392942703866  0.06682162749289637  1.0000
  C   C427      1.0  0.05879773592368975  0.036881989561659445  0.05570218514491223  1.0000
  C   C428      1.0  0.09356526858655045  0.031440888496597985  0.9793413156956196  1.0000
  H   H377      1.0  0.07004306402610028  0.9735894140074833  0.06540516117685377  1.0000
  H   H378      1.0  0.09597747002404233  0.9693493531821511  0.008530076715945743  1.0000
  H   H379      1.0  0.05494410903718694  0.9825299864269509  0.0005583001520150788  1.0000
  H   H380      1.0  0.12144741480007548  0.04447624222151125  0.07208643648373055  1.0000
  H   H381      1.0  0.1088305120518751  0.009489803918797834  0.10702525539498135  1.0000
  H   H382      1.0  0.1347368597713421  0.005661099422920923  0.04987984624977139  1.0000
  H   H383      1.0  0.05189892343807179  0.026944787668222725  0.09497371156247135  1.0000
  H   H384      1.0  0.03723308247689361  0.03683577455003828  0.030137537888971444  1.0000
  H   H385      1.0  0.0649900940520809  0.06231690761165498  0.06162393423714795  1.0000
  H   H386      1.0  0.10106370174877477  0.05665905668266524  0.9826180137880782  1.0000
  H   H387      1.0  0.07262851416823723  0.031323220235693894  0.9523334720286024  1.0000
  H   H388      1.0  0.11368663587927652  0.01766335616169301  0.9601779648237327  1.0000
  N   N12       1.0  0.7343307389748193  0.6538915686248705  0.35247459975490475  1.0000
  C   C429      1.0  0.7675875978021529  0.6474014226190862  0.36983601158042545  1.0000
  C   C430      1.0  0.7168924042074816  0.6237767687052034  0.35230835455172127  1.0000
  C   C431      1.0  0.7344915474649035  0.6675710660223402  0.2983082232887047  1.0000
  C   C432      1.0  0.7182462105258559  0.6767271155680511  0.3893071756671445  1.0000
  H   H389      1.0  0.7804860205684299  0.6305200749641093  0.34242282753178305  1.0000
  H   H390      1.0  0.768363488376183  0.6362145609087833  0.410041801926339  1.0000
  H   H391      1.0  0.7812754940619276  0.6697617717485534  0.3712138870236306  1.0000
  H   H392      1.0  0.6915377658447919  0.6280455162325874  0.3403420364234893  1.0000
  H   H393      1.0  0.7281566289119645  0.606094030223597  0.3243954480672061  1.0000
  H   H394      1.0  0.7168302250009392  0.6124750839847365  0.39228275157500564  1.0000
  H   H395      1.0  0.7097287966906162  0.6725398525363523  0.28410058297377516  1.0000
  H   H396      1.0  0.746356854214219  0.6507969729494684  0.26955172873474126  1.0000
  H   H397      1.0  0.7473585041270301  0.6904360234689474  0.29688105478807764  1.0000
  H   H398      1.0  0.7310063852398274  0.6996375340474958  0.3909776460860622  1.0000
  H   H399      1.0  0.7171659111737622  0.6668458404099431  0.4303799410622936  1.0000
  H   H400      1.0  0.693226739101824  0.6825078190488364  0.3768249308817191  1.0000
  N   N13       1.0  0.3588045821112606  0.7514252207806212  0.8702749871721346  1.0000
  C   C433      1.0  0.3485355812760316  0.7578121355457714  0.925554556092853  1.0000
  C   C434      1.0  0.3357463206840468  0.7303352929666966  0.8451093560379662  1.0000
  C   C435      1.0  0.3908512491399073  0.7354883189959797  0.8697679690849103  1.0000
  C   C436      1.0  0.3599664022390559  0.7819871626323761  0.8406677375464539  1.0000
  H   H401      1.0  0.3658177926844209  0.7728602158284347  0.9465384308370968  1.0000
  H   H402      1.0  0.3467230035647296  0.7351877948189506  0.9487386204747638  1.0000
  H   H403      1.0  0.3247417770962314  0.7704707694802739  0.9271684938307618  1.0000
  H   H404      1.0  0.34172232506647227  0.7260877222625064  0.8025374055111356  1.0000
  H   H405      1.0  0.3352156996108938  0.7065896400596305  0.8652058235916216  1.0000
  H   H406      1.0  0.31105913204091284  0.7409393055622361  0.8468541560421596  1.0000
  H   H407      1.0  0.3991702393934024  0.7302406328744665  0.8285889988848251  1.0000
  H   H408      1.0  0.39099650927521284  0.7125440645662111  0.8924461720371738  1.0000
  H   H409      1.0  0.40891482108533744  0.7507218898457051  0.8882625530995211  1.0000
  H   H410      1.0  0.36663348445087557  0.7780312186245743  0.7983040555065011  1.0000
  H   H411      1.0  0.3779111018753055  0.7980373260598692  0.8577854687864913  1.0000
  H   H412      1.0  0.3363765437643525  0.7950572184288593  0.8415246187836314  1.0000
  N   N14       1.0  0.04235626520642821  0.3729977734608458  0.6016326216050132  1.0000
  C   C437      1.0  0.013267119814254658  0.3700364704096787  0.6346921630703649  1.0000
  C   C438      1.0  0.0708806226504215  0.3644320475532439  0.6336463502030943  1.0000
  C   C439      1.0  0.044441753109976334  0.4063087489088556  0.5821124064494805  1.0000
  C   C440      1.0  0.04090978638991727  0.351040430352141  0.5560352393260164  1.0000
  H   H413      1.0  0.9912694523415051  0.3766496642801883  0.6121158758458682  1.0000
  H   H414      1.0  0.013729268506631476  0.38607405240606574  0.6696555408583098  1.0000
  H   H415      1.0  0.010939424119870145  0.34520272267727425  0.650157194125763  1.0000
  H   H416      1.0  0.09326717758077074  0.3659560535297715  0.6097249108123552  1.0000
  H   H417      1.0  0.0729262502232304  0.38047244938627633  0.6684466237571175  1.0000
  H   H418      1.0  0.06981790823502765  0.339584428981688  0.6496585182673532  1.0000
  H   H419      1.0  0.04553589670867275  0.423564139685499  0.6155149890022372  1.0000
  H   H420      1.0  0.02320660744120695  0.41364374602793036  0.5580554751417555  1.0000
  H   H421      1.0  0.06605295636468655  0.409378212405317  0.5567463140782914  1.0000
  H   H422      1.0  0.06260490659255091  0.35250905932322496  0.5305475822544626  1.0000
  H   H423      1.0  0.01986560873771337  0.35677338752510723  0.5305895449409019  1.0000
  H   H424      1.0  0.03950641680089162  0.3257057353611204  0.5694277397298961  1.0000
  N   N15       1.0  0.5479804910029049  0.15005465663542394  0.3907894921749946  1.0000
  C   C441      1.0  0.5695662229346664  0.15940859570777555  0.34710310313360887  1.0000
  C   C442      1.0  0.5304471690192073  0.1787331023896077  0.4111266268513684  1.0000
  C   C443      1.0  0.5670507879683306  0.13499904042155308  0.4339138932796309  1.0000
  C   C444      1.0  0.5249127920125508  0.1270144759843279  0.37094341415273213  1.0000
  H   H425      1.0  0.5832107907823801  0.13823642600641217  0.33100237044043324  1.0000
  H   H426      1.0  0.5872659751523918  0.1767826438670248  0.36093889309521904  1.0000
  H   H427      1.0  0.5560435753400109  0.17089697978065632  0.31382033008193283  1.0000
  H   H428      1.0  0.5156397826893244  0.19055083540500717  0.3797065833302221  1.0000
  H   H429      1.0  0.5143009903886426  0.1725172302450353  0.4446854867254728  1.0000
  H   H430      1.0  0.5472002303510678  0.19680793386708983  0.4257123764746887  1.0000
  H   H431      1.0  0.5515734678331357  0.12603727236117468  0.46655744035005525  1.0000
  H   H432      1.0  0.5837223995659184  0.15206024752864344  0.45150009538859964  1.0000
  H   H433      1.0  0.5819474586169964  0.11439009474886963  0.4192256445314776  1.0000
  H   H434      1.0  0.5092815490617236  0.11806955574412403  0.4034337025512804  1.0000
  H   H435      1.0  0.5374716017311452  0.10583856324980179  0.35322816696784115  1.0000
  H   H436      1.0  0.5091902853875343  0.13781549501350798  0.339785298900823  1.0000
  N   N16       1.0  0.9442281992537075  0.11803194623649362  0.06348899560318878  1.0000
  C   C445      1.0  0.9736762559203584  0.11935560000080243  0.09537055918417164  1.0000
  C   C446      1.0  0.94850725789767  0.13596586667545482  0.013367660038062557  1.0000
  C   C447      1.0  0.9170373224160129  0.13248404023537486  0.09371299738163989  1.0000
  C   C448      1.0  0.9377820057584891  0.08427717016465475  0.05150761821986041  1.0000
  H   H437      1.0  0.9945901056551643  0.1080217673732957  0.07423358906689018  1.0000
  H   H438      1.0  0.9711219568310387  0.10646544554028047  0.13385665166151212  1.0000
  H   H439      1.0  0.9797489246826602  0.14443898990423304  0.10452201201671583  1.0000
  H   H440      1.0  0.9268307730688674  0.1352509147994484  0.988120059496166  1.0000
  H   H441      1.0  0.9533136221267333  0.16158216525507996  0.02093291709216083  1.0000
  H   H442      1.0  0.9689729156555756  0.1258091387224031  0.9897826773020649  1.0000
  H   H443      1.0  0.8944344089154446  0.1322566361684106  0.0706585090975055  1.0000
  H   H444      1.0  0.9212199694217532  0.1579203180661091  0.10381292164863172  1.0000
  H   H445      1.0  0.9128696379681446  0.11936843471959378  0.13154276211393376  1.0000
  H   H446      1.0  0.9349961719837442  0.06990794012860047  0.08849155997321871  1.0000
  H   H447      1.0  0.9576430399611016  0.07283504583169152  0.027935345765080388  1.0000
  H   H448      1.0  0.9153637215624484  0.08211439345149629  0.028465597949773654  1.0000
  N   N17       1.0  0.3956679787433638  0.38700982661572825  0.12048887538883812  1.0000
  C   C449      1.0  0.42321202187350637  0.3725875089089011  0.09115987925147036  1.0000
  C   C450      1.0  0.40538472339355824  0.3938575712841201  0.17547086582823584  1.0000
  C   C451      1.0  0.36916579607860806  0.364464547555454  0.12122067095594567  1.0000
  C   C452      1.0  0.38495354526468295  0.41709914829773076  0.09404081836118305  1.0000
  H   H449      1.0  0.4168402405424095  0.3672689192042091  0.04939305488010013  1.0000
  H   H450      1.0  0.43164208302199725  0.3496648648655429  0.10989224692362712  1.0000
  H   H451      1.0  0.44380083023601424  0.3888196032451745  0.09034440551983013  1.0000
  H   H452      1.0  0.38547464786691515  0.4053759050643419  0.1986013942869018  1.0000
  H   H453      1.0  0.41294890730301365  0.37158160545556723  0.19697525021612836  1.0000
  H   H454      1.0  0.4257966314832854  0.4102837227457503  0.17639266342428286  1.0000
  H   H455      1.0  0.3478168926494859  0.3747252781407187  0.14239376206430374  1.0000
  H   H456      1.0  0.3762720361643033  0.3416054545591794  0.14141992417457572  1.0000
  H   H457      1.0  0.3615234960274979  0.3585138831069131  0.08029268365059447  1.0000
  H   H458      1.0  0.36380557191675894  0.4283540979290015  0.11461775217824755  1.0000
  H   H459      1.0  0.3777224176055233  0.4128469683833675  0.05226642886213874  1.0000
  H   H460      1.0  0.40416781175157823  0.4348805665145066  0.09324320478923895  1.0000
  N   N18       1.0  0.29420839794273346  0.12020577606018147  0.7209003961316648  1.0000
  C   C453      1.0  0.2762388429786801  0.1214220298277257  0.7716343007832517  1.0000
  C   C454      1.0  0.32652271196728005  0.10598474767367327  0.7301306505981336  1.0000
  C   C455      1.0  0.29692712984437175  0.15294863142884849  0.6992431321280761  1.0000
  C   C456      1.0  0.2771385322088408  0.10041440264184275  0.682533604598327  1.0000
  H   H461      1.0  0.2517415792364507  0.1320686767294952  0.7663366832854354  1.0000
  H   H462      1.0  0.2885514104763433  0.1358440310410864  0.8018515867509349  1.0000
  H   H463      1.0  0.27362781680150117  0.09707494018153562  0.7889205636191197  1.0000
  H   H464      1.0  0.3252928933178791  0.0810358282718695  0.7457056793945938  1.0000
  H   H465      1.0  0.34103869419071664  0.10527727279988051  0.6929079929525813  1.0000
  H   H466      1.0  0.33986080123290047  0.12002186164037018  0.7595847207854662  1.0000
  H   H467      1.0  0.3108878517609824  0.15286735735867202  0.6614468276416894  1.0000
  H   H468      1.0  0.3092239694366137  0.16875893091044075  0.72744970733125  1.0000
  H   H469      1.0  0.2729824813023008  0.1641060549779819  0.6905836408415701  1.0000
  H   H470      1.0  0.29000738291750816  0.09897600379445935  0.643783107619573  1.0000
  H   H471      1.0  0.2526956949290126  0.11054787760489915  0.6743746542387149  1.0000
  H   H472      1.0  0.2745379023745404  0.07552618251418974  0.6976365917747975  1.0000
  N   N19       1.0  0.4026630285898337  0.32795664336540653  0.704971583439857  1.0000
  C   C457      1.0  0.40658975038391576  0.33940144738867106  0.6497866118208179  1.0000
  C   C458      1.0  0.4164984464547492  0.29508433640453907  0.7099226446027904  1.0000
  C   C459      1.0  0.3682490404134081  0.3280245153367073  0.7186392292136643  1.0000
  C   C460      1.0  0.419237950760814  0.34933930056542034  0.7415291122180516  1.0000
  H   H473      1.0  0.39518272140611377  0.36361178515314696  0.6441442370691853  1.0000
  H   H474      1.0  0.39506156115459745  0.32338457811932037  0.6210102538492658  1.0000
  H   H475      1.0  0.4322445117451224  0.34085991301661306  0.6385440134610546  1.0000
  H   H476      1.0  0.41293737325067603  0.2852952068531978  0.7506698723370283  1.0000
  H   H477      1.0  0.4050551782778249  0.2784497343654178  0.6820463810517804  1.0000
  H   H478      1.0  0.44263779738928244  0.2942491768994576  0.7011893857991867  1.0000
  H   H479      1.0  0.3642722725995274  0.3194094287949906  0.7599935666915688  1.0000
  H   H480      1.0  0.35499428342562406  0.3121532179996316  0.6918879911999929  1.0000
  H   H481      1.0  0.35703100864313436  0.3524587095469073  0.7150787431593282  1.0000
  H   H482      1.0  0.4169494541722192  0.34126997542323106  0.7834966964387103  1.0000
  H   H483      1.0  0.40932380233017657  0.37435834763185655  0.7392488383769473  1.0000
  H   H484      1.0  0.4452456358467122  0.35027720691342384  0.7321196264719014  1.0000
  N   N20       1.0  0.4594098114739026  0.17328049343660715  0.8764323664868638  1.0000
  C   C461      1.0  0.48190508501549756  0.17150377484034604  0.9214213387058113  1.0000
  C   C462      1.0  0.4433683103168584  0.20531033437556587  0.8747769374752279  1.0000
  C   C463      1.0  0.4352355435510055  0.14859070985832165  0.8833808828884119  1.0000
  C   C464      1.0  0.4770888733643348  0.16764038616812174  0.8261691534281033  1.0000
  H   H485      1.0  0.46927716276566256  0.17589217981086067  0.9599191665925542  1.0000
  H   H486      1.0  0.5006771079005  0.18962147898457024  0.9175120242997653  1.0000
  H   H487      1.0  0.4940935475016177  0.14746339702172914  0.9242248610777669  1.0000
  H   H488      1.0  0.4263120737981813  0.20750657444454368  0.8411575393268151  1.0000
  H   H489      1.0  0.42957202156707586  0.21030049027434347  0.9118992871021884  1.0000
  H   H490      1.0  0.4609528814885024  0.22452307015121512  0.8700683705426279  1.0000
  H   H491      1.0  0.4179223817318847  0.14901737114796185  0.850000044960563  1.0000
  H   H492      1.0  0.4215338185438645  0.1520236556747639  0.9210501500978703  1.0000
  H   H493      1.0  0.44657393391319244  0.12413853909205765  0.8844519634907111  1.0000
  H   H494      1.0  0.4956187451027169  0.18573918151150082  0.819461193098799  1.0000
  H   H495      1.0  0.4606849946596971  0.16866397770119043  0.7915035472053511  1.0000
  H   H496      1.0  0.4892171208872724  0.14352543537416648  0.8257391744449608  1.0000
  N   N21       1.0  0.6726426279005692  0.755621332366466  0.192191469272016  1.0000
  C   C465      1.0  0.6936258906035043  0.7318337670259127  0.21961291328103066  1.0000
  C   C466      1.0  0.6404689029260499  0.7425861545091158  0.1859871926109933  1.0000
  C   C467      1.0  0.686223171136128  0.7627338591843444  0.1392588580562473  1.0000
  C   C468      1.0  0.6703358398074796  0.7852235251762834  0.22402863763830397  1.0000
  H   H497      1.0  0.6846057777136052  0.7267343096386873  0.2603665910314027  1.0000
  H   H498      1.0  0.7183368182338893  0.7405432651620908  0.22364608871155045  1.0000
  H   H499      1.0  0.6950551218753375  0.7087360805265492  0.19778063925030062  1.0000
  H   H500      1.0  0.6240431330037172  0.7596699374587108  0.16474226972623296  1.0000
  H   H501      1.0  0.641492944959434  0.7197857678508192  0.1632569921838907  1.0000
  H   H502      1.0  0.6293602268659207  0.7371648340802466  0.22513929369909552  1.0000
  H   H503      1.0  0.6706919232830422  0.7800904877020328  0.11684203863140455  1.0000
  H   H504      1.0  0.6889890070139825  0.7406807824397565  0.11471349900861992  1.0000
  H   H505      1.0  0.710289632911076  0.7731250289566584  0.14238472560052964  1.0000
  H   H506      1.0  0.6548437440780039  0.8038980184796419  0.2045885412077487  1.0000
  H   H507      1.0  0.6943147295200075  0.7953729815692704  0.2300913714876743  1.0000
  H   H508      1.0  0.660093690485064  0.7806081590074201  0.26421846392545584  1.0000
  N   N22       1.0  0.7869041279621685  0.11532890939337193  0.5752680810598966  1.0000
  C   C469      1.0  0.7741907129002494  0.137260664745783  0.5337435526759595  1.0000
  C   C470      1.0  0.8218189857631122  0.11066147722381436  0.5681568214270448  1.0000
  C   C471      1.0  0.7714173123781949  0.0842495633947129  0.5709371923632037  1.0000
  C   C472      1.0  0.7800830188273427  0.12910349764029888  0.6281527120827819  1.0000
  H   H509      1.0  0.7849778754048018  0.161199064633159  0.5361924500310056  1.0000
  H   H510      1.0  0.7478082992269699  0.1409403814086786  0.5377612089669708  1.0000
  H   H511      1.0  0.7790782276966456  0.12762407627707092  0.4932934626033412  1.0000
  H   H512      1.0  0.8277654882649409  0.1002777917309774  0.5285598008247537  1.0000
  H   H513      1.0  0.8341585322198133  0.1337860982006128  0.5712307514290785  1.0000
  H   H514      1.0  0.8321135807828371  0.0941676902851678  0.5988852069819123  1.0000
  H   H515      1.0  0.7792930732365425  0.06735457120001276  0.6029265955720762  1.0000
  H   H516      1.0  0.7769581369000162  0.07271544600592471  0.5321144123486559  1.0000
  H   H517      1.0  0.7449386586877205  0.08727017615177977  0.5740786035663855  1.0000
  H   H518      1.0  0.7885382767860062  0.11278126777075337  0.660500931450224  1.0000
  H   H519      1.0  0.7539435152139763  0.1336865405476653  0.6342501004405766  1.0000
  H   H520      1.0  0.7920750618063471  0.15224581053221972  0.6332451708457386  1.0000
  N   N23       1.0  0.5974955439812196  0.9423503427503229  0.4115507387148473  1.0000
  C   C473      1.0  0.5700865439324636  0.9611313561898913  0.4339022443921043  1.0000
  C   C474      1.0  0.5855829580441797  0.9164800749195925  0.3779727647611  1.0000
  C   C475      1.0  0.6168116177725582  0.9281241405915042  0.45510741015194417  1.0000
  C   C476      1.0  0.617556971385595  0.9635632791808555  0.3792307929091423  1.0000
  H   H521      1.0  0.5782167260359605  0.9807044938055927  0.4598468559438048  1.0000
  H   H522      1.0  0.5542640087224315  0.9457732330780169  0.4580589601483684  1.0000
  H   H523      1.0  0.5551900589618608  0.972460756963439  0.40201296764384165  1.0000
  H   H524      1.0  0.6056796028066602  0.902017918023069  0.3600500431201714  1.0000
  H   H525      1.0  0.5710743064294788  0.8995501891132677  0.4015794624073067  1.0000
  H   H526      1.0  0.5702767791435669  0.9260939721240395  0.34521314211248233  1.0000
  H   H527      1.0  0.6378781924249501  0.9140284869757291  0.43947282973660107  1.0000
  H   H528      1.0  0.6027375622809373  0.9113941354469818  0.47975161692990753  1.0000
  H   H529      1.0  0.6262025961778711  0.9467686686496568  0.48161658207543706  1.0000
  H   H530      1.0  0.6388509140334954  0.9502802952958962  0.36269218695010974  1.0000
  H   H531      1.0  0.6265528366113324  0.9835841384517868  0.40324858231622956  1.0000
  H   H532      1.0  0.6039174206866766  0.9744570618178788  0.34554941662060745  1.0000
  N   N24       1.0  0.9931228829033053  0.31750722473646775  0.07991826059123719  1.0000
  C   C477      1.0  0.9945821768955235  0.3258392769049228  0.1368194234382445  1.0000
  C   C478      1.0  0.025187860867879497  0.3067381600899616  0.060907598231305426  1.0000
  C   C479      1.0  0.9823120339040184  0.34601623149362526  0.049277013747833776  1.0000
  C   C480      1.0  0.9703380679436825  0.29167283227325214  0.07244785020484223  1.0000
  H   H533      1.0  0.01111207336781761  0.34573458153718756  0.14362656635748872  1.0000
  H   H534      1.0  0.003055717544462766  0.30511283872697187  0.16148479169046315  1.0000
  H   H535      1.0  0.9707154258976591  0.3340057886215126  0.15232944991757136  1.0000
  H   H536      1.0  0.04310931992422118  0.32542792440037843  0.06692710096590115  1.0000
  H   H537      1.0  0.033860327869781104  0.28472442364632733  0.08197643030694879  1.0000
  H   H538      1.0  0.024990752223156276  0.30102610404527547  0.01779686783654255  1.0000
  H   H539      1.0  0.9993463300294467  0.36567772980135194  0.053307558076912454  1.0000
  H   H540      1.0  0.958475539847489  0.3553195236136928  0.06321214004614872  1.0000
  H   H541      1.0  0.9802932970946574  0.34074821313547105  0.006273798924292473  1.0000
  H   H542      1.0  0.9458251733580929  0.29925800655866963  0.08556005057741656  1.0000
  H   H543      1.0  0.9775865658870102  0.2697771057283596  0.09524185563348264  1.0000
  H   H544      1.0  0.9689193303110926  0.28468237937208946  0.029945343715824135  1.0000
  N   N25       1.0  0.8444787206042813  0.8964604791363882  0.12515952388326096  1.0000
  C   C481      1.0  0.815323210581763  0.8864537750665954  0.15322607635469812  1.0000
  C   C482      1.0  0.8730128499271177  0.8815199527518749  0.15061932377402365  1.0000
  C   C483      1.0  0.8463655705623238  0.9316503254939001  0.12766233927092183  1.0000
  C   C484      1.0  0.8432303172079688  0.8861512156600319  0.06922804840518745  1.0000
  H   H545      1.0  0.8128373697815081  0.8600796179981617  0.1513756292402856  1.0000
  H   H546      1.0  0.7934133022351104  0.8977947586370717  0.13556618634263973  1.0000
  H   H547      1.0  0.8157059254269732  0.8932032787584404  0.19586478585845793  1.0000
  H   H548      1.0  0.8749227897036455  0.8890185213731482  0.19279798701455628  1.0000
  H   H549      1.0  0.8722955258133379  0.8549270475361835  0.14978048296925928  1.0000
  H   H550      1.0  0.8954203662100941  0.888368551648817  0.13005230014490482  1.0000
  H   H551      1.0  0.8260681410200719  0.9438762918910065  0.10657212303006747  1.0000
  H   H552      1.0  0.8688131708593956  0.9398950314137084  0.10913206148527024  1.0000
  H   H553      1.0  0.8459662082225963  0.9402306914817066  0.16941505540336707  1.0000
  H   H554      1.0  0.8652753587731211  0.8924547426512223  0.047244350861744895  1.0000
  H   H555      1.0  0.8225607262503676  0.8977078127105985  0.04808785531418405  1.0000
  H   H556      1.0  0.8408484916312419  0.8597615449505578  0.06632382039879207  1.0000
  N   N26       1.0  0.12073766576289045  0.6925121822490979  0.9114472490016521  1.0000
  C   C485      1.0  0.1328125473560316  0.6660315211433624  0.8774455237555291  1.0000
  C   C486      1.0  0.08996375048097714  0.7052847859353246  0.8904121624711131  1.0000
  C   C487      1.0  0.1440619205192521  0.7183075792088327  0.9120594539766429  1.0000
  C   C488      1.0  0.11611895903223537  0.6804351368479735  0.966051033597597  1.0000
  H   H557      1.0  0.15638999003288123  0.6562569189217474  0.8913486081827423  1.0000
  H   H558      1.0  0.13589721096603255  0.67396934852259  0.8356002383678629  1.0000
  H   H559      1.0  0.11612853175465507  0.6458293250960345  0.8773500658634179  1.0000
  H   H560      1.0  0.09251681287965541  0.7137771718695354  0.848659243192204  1.0000
  H   H561      1.0  0.0713425022939973  0.6868524031030522  0.8913753732339263  1.0000
  H   H562      1.0  0.08078949993581208  0.7260885350209021  0.913936502000256  1.0000
  H   H563      1.0  0.13609046570347463  0.7380475680978305  0.9391524035732379  1.0000
  H   H564      1.0  0.14720012654223819  0.7289620691706254  0.8718905367987557  1.0000
  H   H565      1.0  0.16791366389498966  0.7093036358055355  0.9259229881301574  1.0000
  H   H566      1.0  0.10715022244198757  0.6998237441974577  0.9927778504532827  1.0000
  H   H567      1.0  0.13892154438718954  0.6706904373189174  0.9831039292680203  1.0000
  H   H568      1.0  0.09854274525181105  0.6610296548442148  0.9674142205394322  1.0000
  N   N27       1.0  0.17147571131347983  0.8499451694645627  0.7213141085860557  1.0000
  C   C489      1.0  0.15016243704890483  0.864313468772997  0.6804893050287029  1.0000
  C   C490      1.0  0.1978425556998352  0.8716724465845416  0.7316757001127074  1.0000
  C   C491      1.0  0.18480742840656933  0.8188649322605568  0.7023184837102163  1.0000
  C   C492      1.0  0.1530764593604749  0.8449561152179578  0.7707713865082546  1.0000
  H   H569      1.0  0.16352662187394854  0.8694455637025393  0.6431407395510583  1.0000
  H   H570      1.0  0.13909674970567285  0.8874532674061194  0.6941654048166638  1.0000
  H   H571      1.0  0.1304095764653752  0.8482229900904956  0.6706080291743866  1.0000
  H   H572      1.0  0.2141928207457958  0.8619488543802338  0.7629155283201678  1.0000
  H   H573      1.0  0.21245981264429697  0.8755452094614229  0.6952650788995935  1.0000
  H   H574      1.0  0.18860790786577616  0.8956143170073124  0.7448734643391485  1.0000
  H   H575      1.0  0.20125948691140574  0.8075134888295787  0.732016278092904  1.0000
  H   H576      1.0  0.19863647073802726  0.8216809114193733  0.6647647065380046  1.0000
  H   H577      1.0  0.16552312715870723  0.8017528800790141  0.6947504659548437  1.0000
  H   H578      1.0  0.1682738282485918  0.8334587704378018  0.8020512125705883  1.0000
  H   H579      1.0  0.13261845286396692  0.8291077527711477  0.7640410921816244  1.0000
  H   H580      1.0  0.1431428616401046  0.8680134217481913  0.7867242805593907  1.0000
  N   N28       1.0  0.9393033350760347  0.25640654128762475  0.3721601667265819  1.0000
  C   C493      1.0  0.9087104661224299  0.24184975135661363  0.3588155794760869  1.0000
  C   C494      1.0  0.962341362855076  0.23108485547224858  0.38961227029147616  1.0000
  C   C495      1.0  0.9339379130943871  0.2798056597083297  0.4153571153675036  1.0000
  C   C496      1.0  0.952318813651706  0.2728385344156034  0.3250191185407063  1.0000
  H   H581      1.0  0.9112656398827839  0.22590684542578013  0.3236951883401652  1.0000
  H   H582      1.0  0.8900612046640773  0.26049254266658484  0.3495243735530276  1.0000
  H   H583      1.0  0.8994269226609424  0.22752262965846692  0.39256754224484874  1.0000
  H   H584      1.0  0.9853933133948879  0.24138348304104368  0.4010051364585207  1.0000
  H   H585      1.0  0.9533814103764308  0.21793239567172495  0.42497457294098756  1.0000
  H   H586      1.0  0.9675228663425037  0.21336276298624457  0.35764774229724455  1.0000
  H   H587      1.0  0.9566259748173347  0.2909568382181391  0.426924245251918  1.0000
  H   H588      1.0  0.9239831507634404  0.26826258824119187  0.4515181179707672  1.0000
  H   H589      1.0  0.9168049504617786  0.2994185044769264  0.40315933311406843  1.0000
  H   H590      1.0  0.9754689671780428  0.2839788045680129  0.33393371313736253  1.0000
  H   H591      1.0  0.9356725286423268  0.29216824058981056  0.31060545877062584  1.0000
  H   H592      1.0  0.9568446891198987  0.2559707911817755  0.2915456097339081  1.0000
  N   N29       1.0  0.8746045935508329  0.812123551361259  0.9307420826383612  1.0000
  C   C497      1.0  0.8893206725897272  0.8435616729129923  0.9239818540371583  1.0000
  C   C498      1.0  0.8394032267311802  0.8165553625435795  0.9302717473356249  1.0000
  C   C499      1.0  0.8850050970960391  0.7975718726510279  0.9816718380787418  1.0000
  C   C500      1.0  0.8847553485454028  0.7908098797006569  0.8867258826476387  1.0000
  H   H593      1.0  0.9159192173932149  0.8411914181780914  0.9235801551896067  1.0000
  H   H594      1.0  0.8819798043177768  0.8603459116728058  0.9562055903146912  1.0000
  H   H595      1.0  0.8821241707423035  0.8550855760477255  0.8857041933667212  1.0000
  H   H596      1.0  0.8273730500584905  0.7931997186719477  0.9313237008609427  1.0000
  H   H597      1.0  0.8305832653709582  0.831165154063804  0.9644181974354272  1.0000
  H   H598      1.0  0.8311577835362328  0.8291262585645758  0.8935576786956553  1.0000
  H   H599      1.0  0.8769632289866215  0.8123332477977089  0.01615257898854705  1.0000
  H   H600      1.0  0.9115781103238448  0.7948652958019098  0.9836847359693244  1.0000
  H   H601      1.0  0.875296908258385  0.7733092466723456  0.9871695601719817  1.0000
  H   H602      1.0  0.8773897265794145  0.801030497036275  0.8476705496764251  1.0000
  H   H603      1.0  0.8738805033199266  0.7669429530667853  0.8901776572721958  1.0000
  H   H604      1.0  0.9112136554823995  0.7870664994947661  0.8854811948381635  1.0000
  N   N30       1.0  0.41755984309370114  0.06443530626718408  0.5427871443999374  1.0000
  C   C501      1.0  0.43158997657476145  0.09539661883797357  0.5288666938107964  1.0000
  C   C502      1.0  0.44349225616376725  0.040613886358082496  0.5542877348556644  1.0000
  C   C503      1.0  0.39831595362028227  0.053334838096849246  0.49784208014438436  1.0000
  C   C504      1.0  0.3969241913489411  0.06842487437476574  0.5902919618463864  1.0000
  H   H605      1.0  0.44756372697008  0.09310786701214724  0.49344151096501154  1.0000
  H   H606      1.0  0.44600184117906094  0.10465493394549008  0.5621281450439028  1.0000
  H   H607      1.0  0.41267936303984326  0.11395065571366736  0.5198634086883318  1.0000
  H   H608      1.0  0.4599800363835516  0.03750096157164795  0.5197415393993985  1.0000
  H   H609      1.0  0.4581174793714773  0.0481660931365413  0.5884277238379019  1.0000
  H   H610      1.0  0.4338526484772436  0.01676895742656459  0.5639140812654101  1.0000
  H   H611      1.0  0.3873335621794811  0.030016229217653123  0.5068434361381534  1.0000
  H   H612      1.0  0.4131873021804552  0.050064901073554546  0.4613523446725676  1.0000
  H   H613      1.0  0.37868010456838075  0.07091529493259974  0.48771356638353686  1.0000
  H   H614      1.0  0.3868951708530101  0.045296407560299734  0.6031887384002703  1.0000
  H   H615      1.0  0.37649416445460415  0.0854227447931808  0.5824284221383235  1.0000
  H   H616      1.0  0.4103965031275666  0.07823892008992406  0.6242750102433808  1.0000
  N   N31       1.0  0.6059481713842894  0.06558901810101614  0.7253928680300273  1.0000
  C   C505      1.0  0.6258594960683426  0.03576642240411587  0.7227929284602943  1.0000
  C   C506      1.0  0.5794230120079015  0.06129010225179865  0.7635649566421787  1.0000
  C   C507      1.0  0.592681844930749  0.07305874191113615  0.6724235118538195  1.0000
  C   C508      1.0  0.6257332520273682  0.09225230191631639  0.7426178845642951  1.0000
  H   H617      1.0  0.6365166274307724  0.02958936418951752  0.7620422710553709  1.0000
  H   H618      1.0  0.6458611793760181  0.03801350441973228  0.6938078027583  1.0000
  H   H619      1.0  0.611544469488399  0.015148582346414585  0.710378513215455  1.0000
  H   H620      1.0  0.5638877941442858  0.08333377003952447  0.7666575467620957  1.0000
  H   H621      1.0  0.5639138321993029  0.04150445912363887  0.7512678604395666  1.0000
  H   H622      1.0  0.5884762171485902  0.05519013498255032  0.8039358858925363  1.0000
  H   H623      1.0  0.6118699962853947  0.07718944926958105  0.6426375268569112  1.0000
  H   H624      1.0  0.5771095660993032  0.09511301012300355  0.6732752770131607  1.0000
  H   H625      1.0  0.5781243610963758  0.053323190435285106  0.6573531703060316  1.0000
  H   H626      1.0  0.6115894028784044  0.11524262650016759  0.7445345076413091  1.0000
  H   H627      1.0  0.6458322346442623  0.0962255542077135  0.7143340178364137  1.0000
  H   H628      1.0  0.6363249950733688  0.08757323237871817  0.7823376006202976  1.0000
  N   N32       1.0  0.7297224363739393  0.5981948741055784  0.01748401867087268  1.0000
  C   C509      1.0  0.7496764802514281  0.5964017302662873  0.968867407805683  1.0000
  C   C510      1.0  0.7001548451934677  0.6173473139931431  0.006516996367203154  1.0000
  C   C511      1.0  0.7477886287558088  0.6135097658511067  0.060123236736988966  1.0000
  C   C512      1.0  0.7213135501910882  0.5655947629332634  0.034399016616315725  1.0000
  H   H629      1.0  0.7723603422766626  0.5824036751042775  0.9757201352542065  1.0000
  H   H630      1.0  0.756125025229986  0.6206624226009189  0.9547900705913612  1.0000
  H   H631      1.0  0.7369921480076596  0.5848713647571934  0.9356980782933522  1.0000
  H   H632      1.0  0.6830847439016764  0.6167329267332327  0.040344149427649294  1.0000
  H   H633      1.0  0.7053432731988246  0.6429202345001779  0.9994142288529448  1.0000
  H   H634      1.0  0.6873510451116256  0.6082431028918308  0.971389695890497  1.0000
  H   H635      1.0  0.7693744012618926  0.5988248208687151  0.07144974813032978  1.0000
  H   H636      1.0  0.7329921709751214  0.6167512825824459  0.09661386075560892  1.0000
  H   H637      1.0  0.7557878199868712  0.6376111279603245  0.04792967985342337  1.0000
  H   H638      1.0  0.7067821348066001  0.5661809709053806  0.07156918301126557  1.0000
  H   H639      1.0  0.7430524593278333  0.5503421089594133  0.04263885714040105  1.0000
  H   H640      1.0  0.7070534031086209  0.5535697297618251  0.003669561255253306  1.0000
  N   N33       1.0  0.0324359388930926  0.6640704868506334  0.6694663260617705  1.0000
  C   C513      1.0  0.052595603205954466  0.6717018059775948  0.622984570276295  1.0000
  C   C514      1.0  0.025218728696226878  0.6936124797137707  0.6998015896438975  1.0000
  C   C515      1.0  0.04960069836799752  0.6405433930277026  0.7037637368321645  1.0000
  C   C516      1.0  0.0022751982225648337  0.6504300321155234  0.6512741302350739  1.0000
  H   H641      1.0  0.040438982798681966  0.6898065682932935  0.5967678760835472  1.0000
  H   H642      1.0  0.05812463659697564  0.6499930106092099  0.5986811027465117  1.0000
  H   H643      1.0  0.07573052975536432  0.6816927828257066  0.6352682672912797  1.0000
  H   H644      1.0  0.009924098626916233  0.6888394310474618  0.7351011745308782  1.0000
  H   H645      1.0  0.04739299978395217  0.7047519886297692  0.7139471067083104  1.0000
  H   H646      1.0  0.012228942987587033  0.7117964701456976  0.6749667262110276  1.0000
  H   H647      1.0  0.07255648331320064  0.6499902388277912  0.718002475542773  1.0000
  H   H648      1.0  0.055200035091579336  0.6179213060250162  0.6819546150729594  1.0000
  H   H649      1.0  0.03495661032200115  0.6344007899768372  0.7392503758304568  1.0000
  H   H650      1.0  0.9864866587488597  0.6443149052674269  0.6853603677249975  1.0000
  H   H651      1.0  0.006856220968727955  0.6281207487900907  0.6280171229013874  1.0000
  H   H652      1.0  0.9885708326461393  0.6676133176922305  0.6255357434912625  1.0000
  N   N34       1.0  0.5681415647047446  0.5035261319864993  0.4367878284304404  1.0000
  C   C517      1.0  0.5906184369156192  0.5300803311535345  0.4375593339499622  1.0000
  C   C518      1.0  0.5516048892289647  0.5014566942169876  0.488676953813518  1.0000
  C   C519      1.0  0.5860822640727592  0.47315655597243433  0.4263830428924456  1.0000
  C   C520      1.0  0.5443300724913908  0.5093114304856372  0.3944278228352899  1.0000
  H   H653      1.0  0.6030657162678367  0.5325945593066426  0.39859249247909434  1.0000
  H   H654      1.0  0.6094116740344584  0.5260204657781128  0.4681473115340051  1.0000
  H   H655      1.0  0.578062703202277  0.5533525774220613  0.44629920060889844  1.0000
  H   H656      1.0  0.5373839500608014  0.523784594163094  0.4975150949196726  1.0000
  H   H657      1.0  0.5346824669107608  0.481441884438863  0.48948662062396325  1.0000
  H   H658      1.0  0.5689000775987115  0.497495009600917  0.5216875673705006  1.0000
  H   H659      1.0  0.6005944147956911  0.47477715499393663  0.3893557158031345  1.0000
  H   H660      1.0  0.5697392743413  0.4528862308610002  0.422004863295174  1.0000
  H   H661      1.0  0.6029552030570356  0.4670784780192501  0.45908331022504684  1.0000
  H   H662      1.0  0.526665687983178  0.48995238116767925  0.39326228933013435  1.0000
  H   H663      1.0  0.5559883211760221  0.5103817292970703  0.35458089067576953  1.0000
  H   H664      1.0  0.530683745087635  0.5323126914775935  0.40043782625345953  1.0000
  N   N35       1.0  0.7552322245251893  0.08414728196485788  0.9175687955664615  1.0000
  C   C521      1.0  0.7826928245507944  0.06236243043430201  0.930177631667039  1.0000
  C   C522      1.0  0.7416797154017006  0.09764213639788655  0.967282711741654  1.0000
  C   C523      1.0  0.7305013608310024  0.06624306984518125  0.8897975918822355  1.0000
  C   C524      1.0  0.7661367702742047  0.11036874766907889  0.88298419268802  1.0000
  H   H665      1.0  0.7933677428873079  0.051647418249100685  0.8934655709325039  1.0000
  H   H666      1.0  0.7754003241064567  0.0423992433147915  0.956560369629114  1.0000
  H   H667      1.0  0.8018180470352239  0.07521421837761255  0.9509337650112617  1.0000
  H   H668      1.0  0.7598023323026939  0.11109930282950686  0.9894414877072079  1.0000
  H   H669      1.0  0.7213417028441321  0.1148028512509136  0.9592004943554152  1.0000
  H   H670      1.0  0.732868497012664  0.0786104605495781  0.994187686330579  1.0000
  H   H671      1.0  0.7094879270735523  0.08204818185969898  0.8796542837047778  1.0000
  H   H672      1.0  0.7217148018126931  0.046153946627853104  0.9145965858090223  1.0000
  H   H673      1.0  0.7399246788037436  0.05577083362689961  0.8520359072711307  1.0000
  H   H674      1.0  0.7767425495771374  0.10101562796250807  0.8452965981855939  1.0000
  H   H675      1.0  0.7845467927488599  0.12465106274485693  0.9029129544887059  1.0000
  H   H676      1.0  0.7460615917303733  0.12740195342273397  0.8726929602115457  1.0000
  N   N36       1.0  0.22541208504766042  0.4481291602976938  0.37920845609641296  1.0000
  C   C525      1.0  0.2498205130407325  0.43006798389233464  0.3477915235684143  1.0000
  C   C526      1.0  0.22888572632830173  0.43973797218468236  0.43597187599649545  1.0000
  C   C527      1.0  0.19314859616914282  0.4400098265868235  0.3611170375514793  1.0000
  C   C528      1.0  0.22984630278197815  0.4827993608286264  0.37194431092244  1.0000
  H   H677      1.0  0.2744310770312517  0.43557644799901046  0.36065934362692587  1.0000
  H   H678      1.0  0.24812141565567436  0.43617398634499466  0.3047927684034753  1.0000
  H   H679      1.0  0.2472235134083689  0.403794921944764  0.35196227194723795  1.0000
  H   H680      1.0  0.21047101677431024  0.452581995100063  0.4607147300245195  1.0000
  H   H681      1.0  0.22629241969151548  0.41366656359302567  0.44297356545183636  1.0000
  H   H682      1.0  0.25274153513837616  0.4462505299747154  0.4511655967333365  1.0000
  H   H683      1.0  0.17415706385299323  0.4530088996596094  0.3844095237202092  1.0000
  H   H684      1.0  0.18900676886910173  0.41397601036159004  0.3656186707963455  1.0000
  H   H685      1.0  0.18961808337784292  0.44650889462590354  0.3185709461370048  1.0000
  H   H686      1.0  0.21181561896788814  0.49720987896647645  0.3949454542905337  1.0000
  H   H687      1.0  0.2274935217590195  0.490042431395157  0.32952918555292227  1.0000
  H   H688      1.0  0.2539618111827078  0.4897617865173096  0.3852428859661  1.0000
  N   N37       1.0  0.36972478212439336  0.8303321464804878  0.4720677978440557  1.0000
  C   C529      1.0  0.33744518742124097  0.844413098004654  0.4620490519057471  1.0000
  C   C530      1.0  0.3682598756627249  0.8072691863946352  0.5165944371424458  1.0000
  C   C531      1.0  0.39160814681017697  0.8560265170297802  0.48576561077843894  1.0000
  C   C532      1.0  0.3815991126031272  0.8135814086962143  0.42393503586335046  1.0000
  H   H689      1.0  0.3377532650533022  0.8621365632284661  0.4288722358220873  1.0000
  H   H690      1.0  0.32766298683269596  0.8570413104233005  0.49769114070628007  1.0000
  H   H691      1.0  0.32031391783213803  0.8256840901100527  0.45138767176997563  1.0000
  H   H692      1.0  0.3519390546159833  0.7875182432132007  0.5075717594265254  1.0000
  H   H693      1.0  0.3922833093142911  0.7962240040821084  0.5250417683855217  1.0000
  H   H694      1.0  0.3592515608373845  0.8190336123918545  0.5535351765661541  1.0000
  H   H695      1.0  0.41637775533342775  0.8463668828523134  0.4927788087448567  1.0000
  H   H696      1.0  0.3835534655209762  0.8688853315474061  0.5222885734891091  1.0000
  H   H697      1.0  0.3928729968525895  0.8741524539703103  0.4533827361581861  1.0000
  H   H698      1.0  0.40627331907607656  0.8032938116146432  0.42970654533110003  1.0000
  H   H699      1.0  0.38230163515769955  0.8300894438563925  0.389207142020031  1.0000
  H   H700      1.0  0.36594988533998646  0.7935350289015982  0.41332253722562773  1.0000
  N   N38       1.0  0.7204482397300878  0.48683297167652867  0.3131953180321392  1.0000
  C   C533      1.0  0.7122356714055215  0.4584104502046078  0.34495887516902224  1.0000
  C   C534      1.0  0.7039113571992777  0.4861802339606284  0.26165858017836263  1.0000
  C   C535      1.0  0.7553729917985658  0.48693759505031875  0.30401811023189707  1.0000
  C   C536      1.0  0.7102153546881778  0.5160678796707143  0.3421256886303621  1.0000
  H   H701      1.0  0.7244479546734863  0.4582048383377494  0.3841149328295843  1.0000
  H   H702      1.0  0.7193452719139121  0.4358823972784287  0.32408839732890105  1.0000
  H   H703      1.0  0.6860415440454559  0.4580374981323766  0.35318052732312855  1.0000
  H   H704      1.0  0.7079970596542391  0.5084252952413344  0.23855802466148535  1.0000
  H   H705      1.0  0.712474611743879  0.46554994583074677  0.23710133213686824  1.0000
  H   H706      1.0  0.6776322601051541  0.48432345321275  0.266929219895625  1.0000
  H   H707      1.0  0.7621804524700934  0.508359441420001  0.28058398073235513  1.0000
  H   H708      1.0  0.7641285516631235  0.4654791507583337  0.2816013130031545  1.0000
  H   H709      1.0  0.7686898089354638  0.4875695751906489  0.34208393145424054  1.0000
  H   H710      1.0  0.7177493605652135  0.5379616446462805  0.32075797639488934  1.0000
  H   H711      1.0  0.7212755626934881  0.516679491788471  0.38193174525292295  1.0000
  H   H712      1.0  0.6837610410225612  0.5176370086549296  0.34760330112345716  1.0000
  N   N39       1.0  0.41748723642789376  0.8462095772168999  0.2033298403173139  1.0000
  C   C537      1.0  0.4364938461458224  0.8744518896833192  0.19093103207721024  1.0000
  C   C538      1.0  0.4376071815071786  0.8224785951107112  0.23269553161029113  1.0000
  C   C539      1.0  0.4064710728596565  0.8319592742116685  0.1533810879270876  1.0000
  C   C540      1.0  0.38949865653097987  0.8560699437096959  0.23622540249971088  1.0000
  H   H713      1.0  0.44416139860353776  0.8864175989905295  0.2276264926916408  1.0000
  H   H714      1.0  0.4225771309653752  0.8923694570498103  0.16693828933293478  1.0000
  H   H715      1.0  0.458540337253715  0.8676475116529437  0.16819081926699442  1.0000
  H   H716      1.0  0.4240865884806563  0.8009062073918691  0.2432208168535944  1.0000
  H   H717      1.0  0.4587548780692745  0.8143196033818911  0.20875210180289763  1.0000
  H   H718      1.0  0.4466116246047924  0.8325056246090695  0.2703047948632854  1.0000
  H   H719      1.0  0.3935631565897895  0.8499469690971966  0.12803932950771554  1.0000
  H   H720      1.0  0.38990599977183127  0.8122692428833326  0.16114313625966178  1.0000
  H   H721      1.0  0.4268400439914481  0.8218270555484052  0.12953325678409966  1.0000
  H   H722      1.0  0.3746860164811675  0.8352268080830865  0.24647853742440126  1.0000
  H   H723      1.0  0.37380318374589844  0.8739141413306185  0.2150989162107734  1.0000
  H   H724      1.0  0.3969228158480675  0.8670333719318357  0.27416601635538385  1.0000
  N   N40       1.0  0.4389461069096995  0.9038727725791361  0.7486311449928628  1.0000
  C   C541      1.0  0.424322454459312  0.8754013509355917  0.725762852378394  1.0000
  C   C542      1.0  0.4651178791518572  0.8935599482414064  0.7846230576744364  1.0000
  C   C543      1.0  0.41434680679649455  0.9226880429890392  0.7784490447032569  1.0000
  C   C544      1.0  0.45195063923631373  0.9238141108630589  0.7054852636225695  1.0000
  H   H725      1.0  0.4040193450471851  0.8822673235854901  0.6992685743913787  1.0000
  H   H726      1.0  0.4150512188358771  0.8593966602101148  0.757384454699624  1.0000
  H   H727      1.0  0.44198928124326303  0.8610546349648406  0.7019411834015825  1.0000
  H   H728      1.0  0.47717213468343855  0.9144339797270262  0.8018642279772602  1.0000
  H   H729      1.0  0.4561050615755072  0.8787314884999965  0.818042104616432  1.0000
  H   H730      1.0  0.4836805956011021  0.8786831855018113  0.7634657691935128  1.0000
  H   H731      1.0  0.42445609232838405  0.9442456013321721  0.7967293767794533  1.0000
  H   H732      1.0  0.4036950517281808  0.9083902685279767  0.8110792130867791  1.0000
  H   H733      1.0  0.39448200424148633  0.9311341228800979  0.7521280161156993  1.0000
  H   H734      1.0  0.432789681938872  0.9320610585308933  0.677636363851151  1.0000
  H   H735      1.0  0.4704526446874588  0.9103018558146001  0.6819508712980896  1.0000
  H   H736      1.0  0.46324368718056913  0.9454815648873758  0.7214498804757211  1.0000
  N   N41       1.0  0.20001301332915708  0.3726576528247731  0.9507195894654331  1.0000
  C   C545      1.0  0.216313866005546  0.34100870012808093  0.9574342964409805  1.0000
  C   C546      1.0  0.16688313710109362  0.37140252151536657  0.9712038487012228  1.0000
  C   C547      1.0  0.19945543751576295  0.38146963798302763  0.8938484888950153  1.0000
  C   C548      1.0  0.21739398791629583  0.39692148606646427  0.980406358775324  1.0000
  H   H737      1.0  0.24150443112974085  0.3412269488111212  0.9429194132917459  1.0000
  H   H738      1.0  0.20407758606903517  0.3220529479073454  0.9352716994894062  1.0000
  H   H739      1.0  0.21705433230803645  0.33358099951910525  0.9999243397773062  1.0000
  H   H740      1.0  0.16643922794359214  0.36613777624354443  0.014568011314350482  1.0000
  H   H741      1.0  0.15369087914234236  0.39471976050662033  0.9654456940407721  1.0000
  H   H742      1.0  0.15320928633068534  0.35275806087241585  0.9507718933631512  1.0000
  H   H743      1.0  0.18737333386194707  0.4053403202262628  0.8876028012814681  1.0000
  H   H744      1.0  0.18642487784255646  0.36374055967212576  0.8701507869495564  1.0000
  H   H745      1.0  0.2241217441360169  0.3827241334086971  0.8772407077310341  1.0000
  H   H746      1.0  0.24259232177420736  0.3985576697993545  0.9663728454870348  1.0000
  H   H747      1.0  0.21797426639710166  0.39135504152098455  0.023635686011444612  1.0000
  H   H748      1.0  0.20571558077584504  0.42103517529210505  0.9758995835229846  1.0000
  N   N42       1.0  0.5026179015908253  0.9518774876739426  0.106712574653665  1.0000
  C   C549      1.0  0.5197373530707928  0.9776598049267281  0.13313916801755332  1.0000
  C   C550      1.0  0.5004983149910974  0.9586898658453344  0.04918741421405576  1.0000
  C   C551      1.0  0.4700996358838924  0.9501325575780929  0.12950475972039824  1.0000
  C   C552      1.0  0.5200835676605607  0.9209863559855689  0.11513438057368763  1.0000
  H   H749      1.0  0.5070910102336593  0.0012501136655760359  0.12756514105295752  1.0000
  H   H750      1.0  0.544340341837885  0.979850537861969  0.11679246961517815  1.0000
  H   H751      1.0  0.5216606716441305  0.9732141336390763  0.1766669409412327  1.0000
  H   H752      1.0  0.5245887514990591  0.9601608795189165  0.03054005029247686  1.0000
  H   H753      1.0  0.4874536456431452  0.9398275275527649  0.028106635758906814  1.0000
  H   H754      1.0  0.48759113303228024  0.9818697703126349  0.04133165516916159  1.0000
  H   H755      1.0  0.45670212884039657  0.9306702943625426  0.11099045398821554  1.0000
  H   H756      1.0  0.456050629857673  0.9728449812938653  0.1232123660952378  1.0000
  H   H757      1.0  0.4708032691892267  0.945447414510577  0.17297776295345121  1.0000
  H   H758      1.0  0.5078034634320104  0.9010357321864728  0.09553693239727394  1.0000
  H   H759      1.0  0.5218865587334974  0.9149469059371739  0.15812167022532508  1.0000
  H   H760      1.0  0.5447844590145855  0.9214617594927221  0.09863517349288624  1.0000
  N   N43       1.0  0.6851451468586602  0.29761917364870444  0.6595640771405538  1.0000
  C   C553      1.0  0.6888269091311332  0.3171364885290351  0.707747087660438  1.0000
  C   C554      1.0  0.7122056966824698  0.30272842486946233  0.6227904424975617  1.0000
  C   C555      1.0  0.6549172970273399  0.3070390977033551  0.6329237940614739  1.0000
  C   C556      1.0  0.6846885412253182  0.26347103515098935  0.6746754826050315  1.0000
  H   H761      1.0  0.6694421167385861  0.3130062674054009  0.737164630767064  1.0000
  H   H762      1.0  0.6882640090442679  0.34318185766102327  0.6983200751095184  1.0000
  H   H763      1.0  0.7119770860125612  0.31148407835466824  0.7278017199476575  1.0000
  H   H764      1.0  0.7135622013793432  0.3283371909827508  0.6109064881404239  1.0000
  H   H765      1.0  0.7354132979931872  0.2959035417364061  0.6414913330620757  1.0000
  H   H766      1.0  0.7103477476277676  0.2881307229139774  0.586204835916356  1.0000
  H   H767      1.0  0.6340766393666105  0.3039298488979063  0.6597568617664689  1.0000
  H   H768      1.0  0.6511456590867429  0.2922741095799292  0.5970089338704299  1.0000
  H   H769      1.0  0.6547652327908727  0.3326431460062119  0.6206469393312561  1.0000
  H   H770      1.0  0.7069973815909257  0.25582754518523715  0.6956275582303305  1.0000
  H   H771      1.0  0.6824477362493058  0.24800161001092347  0.63929140967266  1.0000
  H   H772      1.0  0.6643245704978344  0.25832614463161824  0.7016338256976242  1.0000
  N   N44       1.0  0.2627411122419343  0.6053782758566353  0.17078884100071823  1.0000
  C   C557      1.0  0.2825815248922072  0.5872979550484183  0.2097536145432282  1.0000
  C   C558      1.0  0.247157657349358  0.6334795494404485  0.19671531227012465  1.0000
  C   C559      1.0  0.23807889924540918  0.5844107093601796  0.15013301768445209  1.0000
  C   C560      1.0  0.2830589749988601  0.6160658037898317  0.12628246714536182  1.0000
  H   H773      1.0  0.3015683247400955  0.6022585368471737  0.22634033886253152  1.0000
  H   H774      1.0  0.2944150350716127  0.5657295669571679  0.19144485029049227  1.0000
  H   H775      1.0  0.26783786168221846  0.5785244233117913  0.24348357148148472  1.0000
  H   H776      1.0  0.23144400883779007  0.6262950641803383  0.23027398145530986  1.0000
  H   H777      1.0  0.2650236001676958  0.6499214516453262  0.2129372774911355  1.0000
  H   H778      1.0  0.23195569034419397  0.6476580239126621  0.16844710841265328  1.0000
  H   H779      1.0  0.22263429198139184  0.5969954200008434  0.12028516629688454  1.0000
  H   H780      1.0  0.22245824567701478  0.575337859628723  0.1824779939333281  1.0000
  H   H781      1.0  0.249361082057884  0.5632597553675727  0.13013567567909673  1.0000
  H   H782      1.0  0.2686501504673724  0.6292758725094565  0.09572257386425351  1.0000
  H   H783      1.0  0.2949901211746398  0.5953347324399294  0.10566884367122799  1.0000
  H   H784      1.0  0.3019737967923608  0.6320909346753346  0.140104626976688  1.0000
  N   N45       1.0  0.9443049587409769  0.2665493320593586  0.7727435160456397  1.0000
  C   C561      1.0  0.9778010513256855  0.2688925794605559  0.7545472543695156  1.0000
  C   C562      1.0  0.9331474358095645  0.23397871472924114  0.7625396270451399  1.0000
  C   C563      1.0  0.9239808321387637  0.2901884343091812  0.7436830539111005  1.0000
  C   C564      1.0  0.9421798533412885  0.2732145127591683  0.8302216691464415  1.0000
  H   H785      1.0  0.9940199039254604  0.25199763156718125  0.7766970728927183  1.0000
  H   H786      1.0  0.9866653645539204  0.29340700075285686  0.7605851478951826  1.0000
  H   H787      1.0  0.9803190719429525  0.2633599641216704  0.7115178648256443  1.0000
  H   H788      1.0  0.9479183747322848  0.21555206716764053  0.7840781216061157  1.0000
  H   H789      1.0  0.9078870479186067  0.23147795625985945  0.7758442221432511  1.0000
  H   H790      1.0  0.934226204405766  0.2281647841594001  0.7194827286757803  1.0000
  H   H791      1.0  0.8987156074610364  0.28948640508261025  0.7574827751882639  1.0000
  H   H792      1.0  0.924388622910857  0.2855511322925337  0.7002384328235443  1.0000
  H   H793      1.0  0.9319484585281465  0.31503829210920475  0.7497356783934706  1.0000
  H   H794      1.0  0.9173531838456763  0.2707460852885746  0.845535148257427  1.0000
  H   H795      1.0  0.9492098222998039  0.29802672483276194  0.8390421382694532  1.0000
  H   H796      1.0  0.957916906081983  0.2564480240119251  0.8535160568434612  1.0000
  N   N46       1.0  0.7805375923216039  0.314215306479785  0.1722242124962929  1.0000
  C   C565      1.0  0.7812242127623529  0.29984361116174674  0.22593742066936404  1.0000
  C   C566      1.0  0.7801372506859285  0.3494598111991739  0.17644586353942363  1.0000
  C   C567      1.0  0.7515265026763548  0.30433526271939837  0.14435466666372904  1.0000
  C   C568      1.0  0.8093164444593739  0.30330483552743315  0.14220226631884073  1.0000
  H   H797      1.0  0.7594321715153332  0.3068420696664031  0.2492059687506434  1.0000
  H   H798      1.0  0.8023859862487795  0.307489835335132  0.24862578873273683  1.0000
  H   H799      1.0  0.7822575945927603  0.2731963367344349  0.22407839504768856  1.0000
  H   H800      1.0  0.7798041135041845  0.36110440529325416  0.1365700585465246  1.0000
  H   H801      1.0  0.7588266073183804  0.35875973291465657  0.19878490339434599  1.0000
  H   H802      1.0  0.8017291903127968  0.3578302840962424  0.19721445500494403  1.0000
  H   H803      1.0  0.7503007678756015  0.31442906202485654  0.1034361428402141  1.0000
  H   H804      1.0  0.7293571483774943  0.3121599544423006  0.16596796636603794  1.0000
  H   H805      1.0  0.7508820780263056  0.2778734353405466  0.14107191589045542  1.0000
  H   H806      1.0  0.8091543715875319  0.31287111757906627  0.10089155451975625  1.0000
  H   H807      1.0  0.811177415556774  0.27674193545286185  0.13977868068512364  1.0000
  H   H808      1.0  0.8315207309687785  0.3113495244873572  0.16134026885650937  1.0000
  N   N47       1.0  0.14272130869034985  0.7037502945963755  0.38226126174654507  1.0000
  C   C569      1.0  0.13200446087836817  0.6931214957843431  0.3297368086502736  1.0000
  C   C570      1.0  0.14629327693548994  0.6757104873391938  0.4180292680336231  1.0000
  C   C571      1.0  0.11880926058712106  0.7267543837876818  0.40476087911381964  1.0000
  C   C572      1.0  0.17373010193015848  0.7193505064951745  0.37623812387220124  1.0000
  H   H809      1.0  0.13058432468225134  0.7132071954000553  0.3006348415219848  1.0000
  H   H810      1.0  0.10792125862609823  0.6827152872016876  0.33214754830602644  1.0000
  H   H811      1.0  0.14880681227305886  0.6744336472778506  0.31317502819075194  1.0000
  H   H812      1.0  0.15358196138655042  0.68275878705586  0.45863070203373857  1.0000
  H   H813      1.0  0.12358903653590485  0.6626741186688841  0.42169328761882313  1.0000
  H   H814      1.0  0.16463525052376216  0.6580864220865036  0.40277518464046347  1.0000
  H   H815      1.0  0.1262554404716754  0.7351970379395582  0.44452728173028877  1.0000
  H   H816      1.0  0.09512518334789076  0.7156622176933015  0.40968118756354877  1.0000
  H   H817      1.0  0.11547706204715148  0.7481292129140164  0.37863374126339366  1.0000
  H   H818      1.0  0.1722866456226194  0.7394407332318519  0.34712083411345496  1.0000
  H   H819      1.0  0.192666359324799  0.7022155048317349  0.36143071628019496  1.0000
  H   H820      1.0  0.18190537939987028  0.7292609197850579  0.41450842658048437  1.0000
  N   N48       1.0  0.2825694574940912  0.9920648587848683  0.3356242421782692  1.0000
  C   C573      1.0  0.25416984846480317  0.012512810812336017  0.32270761093927497  1.0000
  C   C574      1.0  0.2721479658513452  0.9610749836292104  0.3570324448546149  1.0000
  C   C575      1.0  0.3018867911592063  0.008285600890181488  0.37568985199003213  1.0000
  C   C576      1.0  0.30201235628099926  0.986374689579921  0.2871344107405674  1.0000
  H   H821      1.0  0.26117482651558577  0.035978298934777886  0.305788185073519  1.0000
  H   H822      1.0  0.2392599794993686  0.017639254240886526  0.35858514063558783  1.0000
  H   H823      1.0  0.23863150316959805  0.0008424360382095486  0.29330351184140135  1.0000
  H   H824      1.0  0.2929736847348307  0.9449844159843308  0.3669402518585169  1.0000
  H   H825      1.0  0.25759009159635504  0.9643143495250445  0.39384237256986726  1.0000
  H   H826      1.0  0.257484980256239  0.9482471091512419  0.32774984386528383  1.0000
  H   H827      1.0  0.3096134010432262  0.03202624931392606  0.36122674246188524  1.0000
  H   H828      1.0  0.32390447679158596  0.9939921665407242  0.3856852594913046  1.0000
  H   H829      1.0  0.2882365044251723  0.012382984259622587  0.4132010527440238  1.0000
  H   H830      1.0  0.3238428052029945  0.9713231542531547  0.2957475424321397  1.0000
  H   H831      1.0  0.30997737604396675  0.009149819257441738  0.2692340996635155  1.0000
  H   H832      1.0  0.28832763513033344  0.9738967505125058  0.2562250659616699  1.0000
  N   N49       1.0  0.9689272630245669  0.8643978569424211  0.5367525534455204  1.0000
  C   C577      1.0  0.9343384677807807  0.8595464864708441  0.5441253627523972  1.0000
  C   C578      1.0  0.984802697119964  0.8644368187860426  0.5889856641953826  1.0000
  C   C579      1.0  0.9735754625395578  0.8954370788489346  0.5097920806935823  1.0000
  C   C580      1.0  0.9829591829531822  0.8381350619357778  0.5041738224949245  1.0000
  H   H833      1.0  0.9215529861647532  0.8599750525572433  0.5055305428209796  1.0000
  H   H834      1.0  0.923067049915912  0.8784772993455537  0.5696571819373257  1.0000
  H   H835      1.0  0.9298752085098808  0.8361162500282485  0.5633284601856337  1.0000
  H   H836      1.0  0.010885967798701657  0.8682883635871514  0.5849240732710234  1.0000
  H   H837      1.0  0.9746267167309608  0.8837515637800664  0.6148059713104743  1.0000
  H   H838      1.0  0.9820863174224835  0.8413029395627251  0.6103477949363345  1.0000
  H   H839      1.0  0.9628287364500663  0.9156603557904139  0.5332377660209617  1.0000
  H   H840      1.0  0.9622360665709916  0.8962189266175729  0.4699518649288529  1.0000
  H   H841      1.0  0.9993875244318725  0.9002564554717454  0.5042326830193219  1.0000
  H   H842      1.0  0.9800943930313931  0.8144531283937438  0.5239502299384202  1.0000
  H   H843      1.0  0.009021816916697345  0.8410620040703146  0.4976060432791991  1.0000
  H   H844      1.0  0.9713139937577598  0.8370857621515293  0.46464762891475286  1.0000
  N   N50       1.0  0.6226622558185669  0.7062020344484893  0.6598470681040288  1.0000
  C   C581      1.0  0.5898998284763778  0.7109877869654854  0.6391497981517296  1.0000
  C   C582      1.0  0.621856042731969  0.6859052164407394  0.7080086562374786  1.0000
  C   C583      1.0  0.6356517998495239  0.7375294143173742  0.67351991519469  1.0000
  C   C584      1.0  0.643102201447033  0.6905375180853562  0.6187806228588835  1.0000
  H   H845      1.0  0.5739515730051639  0.7238068334458839  0.6681575587411082  1.0000
  H   H846      1.0  0.5791009051655299  0.6878045550755033  0.6292002840781805  1.0000
  H   H847      1.0  0.5898949694039644  0.7254537676817594  0.6020614317855028  1.0000
  H   H848      1.0  0.6459301361653018  0.6832057037221873  0.7262621996904608  1.0000
  H   H849      1.0  0.6057864691568242  0.6967135059873865  0.738954919221276  1.0000
  H   H850      1.0  0.6134014378843969  0.6615726760792159  0.6990480524640136  1.0000
  H   H851      1.0  0.6604620843580459  0.7348622599104492  0.6889261794734393  1.0000
  H   H852      1.0  0.6209546270976553  0.7496908142074177  0.7049521578728616  1.0000
  H   H853      1.0  0.6360028901003603  0.7538612016505057  0.6386111732943915  1.0000
  H   H854      1.0  0.6682605605817682  0.6871827293885725  0.6321608848825091  1.0000
  H   H855      1.0  0.6433544992664549  0.7048694322076343  0.5813802245655189  1.0000
  H   H856      1.0  0.6343702187454517  0.6665116855808518  0.6081996453800977  1.0000
  N   N51       1.0  0.541594126172675  0.6504541224979281  0.011147090995405227  1.0000
  C   C585      1.0  0.5651924170492881  0.653219887084144  0.9675537352332043  1.0000
  C   C586      1.0  0.5135653072686773  0.6719299086511225  0.00048325645995062056  1.0000
  C   C587      1.0  0.5565074266151224  0.6596525362465124  0.06160021453100873  1.0000
  C   C588      1.0  0.5311836575097562  0.6170549182753812  0.014975174666487677  1.0000
  H   H857      1.0  0.5866173518222735  0.6372305734606135  0.9744533330010677  1.0000
  H   H858      1.0  0.573635291473603  0.6781432591759752  0.96381887320316  1.0000
  H   H859      1.0  0.55487881337001  0.6465900709402653  0.9287315041399025  1.0000
  H   H860      1.0  0.49531250022520606  0.6706036129272547  0.03271327609884799  1.0000
  H   H861      1.0  0.5205331769314844  0.6973127595722486  0.9974114809064367  1.0000
  H   H862      1.0  0.5018060556494983  0.6658202294919345  0.9625634719953409  1.0000
  H   H863      1.0  0.5394921055984437  0.6579077684094471  0.09553127453412297  1.0000
  H   H864      1.0  0.5646553666401977  0.6847666035814657  0.05986704124284231  1.0000
  H   H865      1.0  0.5777684872357316  0.643877275539092  0.07075697142879746  1.0000
  H   H866      1.0  0.5133914481178292  0.6140879115305916  0.047506495257683946  1.0000
  H   H867      1.0  0.5516586310030452  0.6001660883539888  0.023260338466561944  1.0000
  H   H868      1.0  0.5201369282306544  0.6091923396999861  0.9773860420920927  1.0000
  N   N52       1.0  0.7092462867065675  0.4982379358592354  0.7402779086522631  1.0000
  C   C589      1.0  0.7044972765528765  0.48844433798336157  0.7961330870146713  1.0000
  C   C590      1.0  0.7437910554206402  0.5011041970417983  0.7292633640203962  1.0000
  C   C591      1.0  0.6925682907884793  0.5294873727300159  0.7309526906810279  1.0000
  C   C592      1.0  0.6960655022190597  0.4738164451031222  0.7050909488226083  1.0000
  H   H869      1.0  0.6785965187538964  0.48608408783294293  0.8055961963968425  1.0000
  H   H870      1.0  0.7141168346829492  0.5062817501604984  0.8239395866033871  1.0000
  H   H871      1.0  0.7166657048536919  0.4648916753979289  0.8045639836552315  1.0000
  H   H872      1.0  0.7546367520572261  0.5190069311972877  0.7555877753112258  1.0000
  H   H873      1.0  0.757081023953293  0.47784697102460955  0.7350769735376974  1.0000
  H   H874      1.0  0.7482450084012058  0.5088558560677214  0.6876368541121545  1.0000
  H   H875      1.0  0.6948414816881231  0.5374124998484672  0.688969765957254  1.0000
  H   H876      1.0  0.7023565304205945  0.5485776889586994  0.7561490374099648  1.0000
  H   H877      1.0  0.6665564684011747  0.5283613250386361  0.7398668803441988  1.0000
  H   H878      1.0  0.698030564503728  0.48077565584660964  0.6625798555244813  1.0000
  H   H879      1.0  0.6703232233780074  0.4702598287175679  0.7137520578145804  1.0000
  H   H880      1.0  0.7088018644881493  0.45019796231379533  0.7100329164908207  1.0000
  N   N53       1.0  0.9309778050416976  0.7429448100107974  0.22064266064276586  1.0000
  C   C593      1.0  0.9196604444231302  0.7259450684442527  0.2684242391894843  1.0000
  C   C594      1.0  0.9069855360347139  0.7410265432838874  0.17805948719479928  1.0000
  C   C595      1.0  0.9615377420124501  0.7279534643053209  0.20251054702857482  1.0000
  C   C596      1.0  0.9358716277395402  0.7768739599142847  0.2334822231138543  1.0000
  H   H881      1.0  0.916463593687163  0.7001024609490029  0.2604588416039186  1.0000
  H   H882      1.0  0.8963895139524568  0.7362690884080035  0.28284030330947  1.0000
  H   H883      1.0  0.9368624743325292  0.727702133367323  0.301744274130107  1.0000
  H   H884      1.0  0.9028752902936972  0.715796596107452  0.16690686488159198  1.0000
  H   H885      1.0  0.8835827850647575  0.7521449999699664  0.1903022304118795  1.0000
  H   H886      1.0  0.914762262218661  0.7537976719127046  0.1415021869765689  1.0000
  H   H887      1.0  0.9707128599411466  0.7402003446581626  0.16654741158859304  1.0000
  H   H888      1.0  0.9588997675946728  0.7022805652815303  0.19246991631610316  1.0000
  H   H889      1.0  0.9802906601802913  0.7289407481053263  0.23353691374023805  1.0000
  H   H890      1.0  0.9442753324522067  0.7903971372320405  0.19804860983235908  1.0000
  H   H891      1.0  0.9538984199974453  0.77924668470109  0.2653725583907637  1.0000
  H   H892      1.0  0.9133723079728601  0.7887908199075637  0.24799688588071248  1.0000
  N   N54       1.0  0.21345311260938224  0.18764097097961016  0.06690664576354277  1.0000
  C   C597      1.0  0.18441234364015116  0.2049570783817694  0.0865590378503196  1.0000
  C   C598      1.0  0.2404611368991122  0.19337912676230432  0.10274923776925116  1.0000
  C   C599      1.0  0.22135169792782045  0.19915753023677496  0.012990116556814701  1.0000
  C   C600      1.0  0.2076100613872131  0.15299447894891816  0.06537831368640279  1.0000
  H   H893      1.0  0.16372440770717547  0.20146677089786508  0.05984504890147191  1.0000
  H   H894      1.0  0.1881056685201602  0.2311075784356407  0.0894006183535121  1.0000
  H   H895      1.0  0.17717915696715775  0.1961831438828054  0.1265822449965286  1.0000
  H   H896      1.0  0.26245465572065363  0.17983346117271268  0.08970388544257357  1.0000
  H   H897      1.0  0.24618238635636866  0.2191985274633277  0.10390301078746367  1.0000
  H   H898      1.0  0.2351635494677865  0.18531724210054284  0.14399641154473963  1.0000
  H   H899      1.0  0.225899000107899  0.225254164925485  0.01266766652035689  1.0000
  H   H900      1.0  0.20168201577128117  0.19483904597343077  0.9846189715300039  1.0000
  H   H901      1.0  0.24325198585540214  0.18666071370406218  0.9972536275998684  1.0000
  H   H902      1.0  0.22890518152951672  0.13915099465142608  0.05003705015352322  1.0000
  H   H903      1.0  0.18694500051616506  0.14775001551056938  0.039588195323104314  1.0000
  H   H904      1.0  0.20220554682430175  0.14353937599627914  0.10573398831490954  1.0000
  N   N55       1.0  0.8578453732070855  0.012246028900821715  0.31653658735721435  1.0000
  C   C601      1.0  0.8898125208982007  0.020510292498061355  0.3357287120323086  1.0000
  C   C602      1.0  0.8340578585892006  0.018263869016401424  0.3592019995849216  1.0000
  C   C603      1.0  0.858044399817204  0.9780693209043875  0.30168676979308084  1.0000
  C   C604      1.0  0.8494582194833002  0.03216793341467716  0.26967657638118037  1.0000
  H   H905      1.0  0.8904980406356885  0.04600188291431562  0.34791200384825893  1.0000
  H   H906      1.0  0.9084020395152677  0.016568467846747037  0.3045421950925219  1.0000
  H   H907      1.0  0.8971336023882169  0.005450706321503018  0.37044986714748124  1.0000
  H   H908      1.0  0.8388959622350501  0.0026877475305118192  0.3943866088222915  1.0000
  H   H909      1.0  0.8340642418233591  0.04355486124277075  0.3727509866000481  1.0000
  H   H910      1.0  0.8094500974745059  0.013649266426814854  0.345535582410588  1.0000
  H   H911      1.0  0.8341441697921972  0.9708573770934917  0.2877758870055685  1.0000
  H   H912      1.0  0.8647211044055751  0.962231686391231  0.3358251329591287  1.0000
  H   H913      1.0  0.8757161516638963  0.9727076634487036  0.2694718131625934  1.0000
  H   H914      1.0  0.8668768435815686  0.02816178324224272  0.23656181168263116  1.0000
  H   H915      1.0  0.8490576437645585  0.05810528105744717  0.27936778222231484  1.0000
  H   H916      1.0  0.8253575225804398  0.02667266685350489  0.25432335664603123  1.0000
  N   N56       1.0  0.6459313408346536  0.851866693447002  0.7783655219685666  1.0000
  C   C605      1.0  0.6543012181253822  0.8600428248260122  0.7229522206992693  1.0000
  C   C606      1.0  0.6697039210776792  0.8651046902210486  0.8146571228809729  1.0000
  C   C607      1.0  0.6458393698815009  0.8166812448415595  0.7846466591273449  1.0000
  C   C608      1.0  0.6138225158490904  0.8656572730303335  0.7910855893995252  1.0000
  H   H917      1.0  0.6552002225732629  0.886406994018238  0.7170581018098563  1.0000
  H   H918      1.0  0.6365817441235557  0.8507547994404286  0.6945475146427176  1.0000
  H   H919      1.0  0.6781667130374983  0.849718879027132  0.711607686570025  1.0000
  H   H920      1.0  0.6707934098282805  0.8915682938758194  0.8105147686171529  1.0000
  H   H921      1.0  0.6639507711633874  0.8596499271117467  0.8568563126019443  1.0000
  H   H922      1.0  0.6941878341663873  0.8550546540744552  0.8062858824914048  1.0000
  H   H923      1.0  0.6698853297953731  0.8054629399135166  0.776936424633977  1.0000
  H   H924      1.0  0.6289720397196287  0.8057109855313753  0.7566767521550022  1.0000
  H   H925      1.0  0.6386545684725633  0.8095256574851641  0.8255343394886715  1.0000
  H   H926      1.0  0.6061247914390034  0.8590957350058717  0.831975123294697  1.0000
  H   H927      1.0  0.5955483572131111  0.8570165856033085  0.7630897072404237  1.0000
  H   H928      1.0  0.6133023486768465  0.8922484396580784  0.7883946436407694  1.0000
  N   N57       1.0  0.15996242331588606  0.845516496464339  0.1691847701278983  1.0000
  C   C609      1.0  0.19320386381930876  0.8334744068651335  0.16058673455541472  1.0000
  C   C610      1.0  0.15264114993549227  0.871934319546811  0.1315099554321994  1.0000
  C   C611      1.0  0.1563231659618065  0.8574238812229917  0.22409302156698963  1.0000
  C   C612      1.0  0.13772096743961093  0.8193088056727059  0.1605505448355856  1.0000
  H   H929      1.0  0.1967327416566682  0.8237209325669447  0.11992709895540496  1.0000
  H   H930      1.0  0.19987056397182124  0.8140921057876642  0.18935584462860197  1.0000
  H   H931      1.0  0.21057207979230697  0.8527864203373883  0.16584932246831605  1.0000
  H   H932      1.0  0.15519765707034772  0.863811867797698  0.08964791534517422  1.0000
  H   H933      1.0  0.1277022618407253  0.8815816336482676  0.13690762930531383  1.0000
  H   H934      1.0  0.16901526612615614  0.8921348369354427  0.13709536028534663  1.0000
  H   H935      1.0  0.17222999948221118  0.8777586215536021  0.23144886047573685  1.0000
  H   H936      1.0  0.16286735939218122  0.8384810400268017  0.2536871774748221  1.0000
  H   H937      1.0  0.1313729175581042  0.8660143122473216  0.23256135311130385  1.0000
  H   H938      1.0  0.14299379535240964  0.7986518906987853  0.1875391118069417  1.0000
  H   H939      1.0  0.13942467958592863  0.810152083701377  0.11916500823777926  1.0000
  H   H940      1.0  0.11240290936835695  0.8273341342313505  0.1673386014634788  1.0000
  N   N58       1.0  0.08108543071579666  0.09360456820724083  0.3660867908168881  1.0000
  C   C613      1.0  0.08863232252048703  0.05979468164262847  0.379849915007072  1.0000
  C   C614      1.0  0.0810706701917614  0.11309681969497021  0.41486272287559595  1.0000
  C   C615      1.0  0.0491957049759848  0.09624863203339551  0.3412960525831511  1.0000
  C   C616      1.0  0.10538698029540927  0.10528035747003783  0.3284322912504235  1.0000
  H   H941      1.0  0.11268517714250947  0.05693653987482605  0.3981634865313675  1.0000
  H   H942      1.0  0.08849154319435382  0.0442799417895996  0.34414647766245726  1.0000
  H   H943      1.0  0.07092877321981206  0.05031065469268947  0.4086846344538107  1.0000
  H   H944      1.0  0.0750467475259331  0.13870760229046586  0.4061192611501591  1.0000
  H   H945      1.0  0.06339166763616322  0.10453801286255482  0.4445538837179114  1.0000
  H   H946      1.0  0.1049996730052789  0.11224728125555261  0.43399093845906556  1.0000
  H   H947      1.0  0.030217821373559772  0.0882516271022844  0.36909296255662555  1.0000
  H   H948      1.0  0.048141686366006464  0.08135064153414318  0.3048695776373448  1.0000
  H   H949      1.0  0.04309398846777657  0.12139322615307657  0.3294676241391396  1.0000
  H   H950      1.0  0.10027269394735416  0.13068122261671866  0.3168334590980208  1.0000
  H   H951      1.0  0.1063183057342525  0.09084557864933052  0.2914423829151317  1.0000
  H   H952      1.0  0.1297127893226293  0.10423369527860382  0.3461266131564549  1.0000
  N   N59       1.0  0.988099478000887  0.4811014686248592  0.3052100771544447  1.0000
  C   C617      1.0  0.00501916774861999  0.5111961945957907  0.31300065877372796  1.0000
  C   C618      1.0  0.009468671871545764  0.4575084100024361  0.2779019400977565  1.0000
  C   C619      1.0  0.959378806480021  0.4875276863756887  0.27261588108707857  1.0000
  C   C620      1.0  0.9783323868296668  0.4681014344330042  0.3573035975571346  1.0000
  H   H953      1.0  0.9895590525872913  0.529430026280815  0.3336991664876277  1.0000
  H   H954      1.0  0.012757536194481833  0.5216873222822557  0.27452542875006963  1.0000
  H   H955      1.0  0.026833377050866858  0.5072067513299106  0.3375111297815041  1.0000
  H   H956      1.0  0.9973586080117809  0.43454219438646685  0.2713259561162304  1.0000
  H   H957      1.0  0.017178772200323156  0.46645395394467676  0.23832118673124011  1.0000
  H   H958      1.0  0.03142589425551412  0.4520489362899264  0.30143885637325185  1.0000
  H   H959      1.0  0.9462655227335627  0.46522693300353574  0.26617877761073166  1.0000
  H   H960      1.0  0.9656305680403731  0.49732687619034965  0.2328883553494349  1.0000
  H   H961      1.0  0.9423718831908918  0.5048258646509857  0.2923460253737955  1.0000
  H   H962      1.0  0.9992697413897901  0.46283239269159376  0.38311026253130676  1.0000
  H   H963      1.0  0.9653005099738088  0.44549963687058786  0.35284224543738  1.0000
  H   H964      1.0  0.962135014749249  0.48528492038601245  0.3789321366436629  1.0000
  N   N60       1.0  0.10606697566385392  0.07887317495344148  0.7948560838922186  1.0000
  C   C621      1.0  0.11193647299206885  0.10060794161707953  0.7496102636749193  1.0000
  C   C622      1.0  0.09327961985922784  0.048640519166774254  0.775066150695561  1.0000
  C   C623      1.0  0.08261860612273943  0.09429475252568742  0.8314822929566869  1.0000
  C   C624      1.0  0.13640740274121707  0.07217754602467874  0.8232256753550352  1.0000
  H   H965      1.0  0.0895530875788515  0.10617366371276526  0.7272643610545294  1.0000
  H   H966      1.0  0.12967697094909872  0.08986495693231178  0.7212121518394157  1.0000
  H   H967      1.0  0.12140468855701501  0.12378177983498984  0.7632321906206913  1.0000
  H   H968      1.0  0.08882864011314438  0.031421533238261024  0.807898487263534  1.0000
  H   H969      1.0  0.0701617808703865  0.05277906769768603  0.7540156168445971  1.0000
  H   H970      1.0  0.11007415984321846  0.036530485676503854  0.7465441608868292  1.0000
  H   H971      1.0  0.07741401186837947  0.07863666015855664  0.8660943781479158  1.0000
  H   H972      1.0  0.059501621673443195  0.10002854010263973  0.8113344527851487  1.0000
  H   H973      1.0  0.09166132219085889  0.1170956050534564  0.8471387532448901  1.0000
  H   H974      1.0  0.1468830670749943  0.09464934344730347  0.8378174928210625  1.0000
  H   H975      1.0  0.1546094615747186  0.060176573487806806  0.7970183345890833  1.0000
  H   H976      1.0  0.1328988520536492  0.05642562026195774  0.8583815675813401  1.0000
  N   N61       1.0  0.2917834870652718  0.6175792661554715  0.5465827619175283  1.0000
  C   C625      1.0  0.30242856121283473  0.5910812204337618  0.5820136821355448  1.0000
  C   C626      1.0  0.2567442761716639  0.6168363850445507  0.539902902379357  1.0000
  C   C627      1.0  0.3077179262985437  0.6139660712144851  0.4943095826848313  1.0000
  C   C628      1.0  0.3002535021211584  0.6484899113845368  0.5699849172088506  1.0000
  H   H977      1.0  0.32877598792816365  0.5907848685550399  0.5878795988581346  1.0000
  H   H978      1.0  0.29662946188405603  0.5673966690734907  0.5651639893171143  1.0000
  H   H979      1.0  0.2907264957052551  0.592982666927994  0.62172371526858  1.0000
  H   H980      1.0  0.24810899555525448  0.6351149557433088  0.5107608998580053  1.0000
  H   H981      1.0  0.24924499421194996  0.5932130806580599  0.5253717383237834  1.0000
  H   H982      1.0  0.24377660392826866  0.6216371973293087  0.5779293330717503  1.0000
  H   H983      1.0  0.3013984142303488  0.5912588435448173  0.47490362219682675  1.0000
  H   H984      1.0  0.33422213609673984  0.6134785660253841  0.4980014273699607  1.0000
  H   H985      1.0  0.30073237828817806  0.6339024632873638  0.46684213413586845  1.0000
  H   H986      1.0  0.29348488175744336  0.6688110989967825  0.5432117519123546  1.0000
  H   H987      1.0  0.32641620332513727  0.6495571032850588  0.5770098942844397  1.0000
  H   H988      1.0  0.2877745409554464  0.6527553854860263  0.6086223150197178  1.0000
  N   N62       1.0  0.2119498475711139  0.2533285493032784  0.45187300817669723  1.0000
  C   C629      1.0  0.2178055109869494  0.2342827648777643  0.4032882211642787  1.0000
  C   C630      1.0  0.17720608333155605  0.25610488364663386  0.462597926116678  1.0000
  C   C631      1.0  0.22459991213070116  0.285651428939124  0.4444536240885538  1.0000
  C   C632      1.0  0.2282130984979533  0.23728200712468797  0.49709751471657837  1.0000
  H   H989      1.0  0.24384188287319897  0.23190662579914234  0.393855073045826  1.0000
  H   H990      1.0  0.2055900588726626  0.24538362959595503  0.36836216417406054  1.0000
  H   H991      1.0  0.20875296879346775  0.20964095829880788  0.40779502119947036  1.0000
  H   H992      1.0  0.16668854024323018  0.23218678891987576  0.4671047294782043  1.0000
  H   H993      1.0  0.17181417976991153  0.2698072176657178  0.49952915317795943  1.0000
  H   H994      1.0  0.16432700769428277  0.2687227011352813  0.4297286576561593  1.0000
  H   H995      1.0  0.2126881399992749  0.29847740425123565  0.4108143268774728  1.0000
  H   H996      1.0  0.25073858209637484  0.2844897933649331  0.4358800236300152  1.0000
  H   H997      1.0  0.22079598570773534  0.3005034557117075  0.48061728733394377  1.0000
  H   H998      1.0  0.22398221534614346  0.2505813074148993  0.5347311478784329  1.0000
  H   H999      1.0  0.25452632451587637  0.23527860620930693  0.49042060665723886  1.0000
  H   H1000     1.0  0.2196475973982099  0.21260928739809043  0.5032384529884458  1.0000
  N   N63       1.0  0.41177173909126563  0.30729651102975364  0.36095488417061744  1.0000
  C   C633      1.0  0.444295648303045  0.29619813572981996  0.3449392112307748  1.0000
  C   C634      1.0  0.38846044736981783  0.28332121940069843  0.3452240683336378  1.0000
  C   C635      1.0  0.40374409498487246  0.3381314907614707  0.33448235790832714  1.0000
  C   C636      1.0  0.41063360414063815  0.3115970263784037  0.4191169778761273  1.0000
  H   H1001     1.0  0.4513458263685835  0.2731979984119265  0.3646301673203359  1.0000
  H   H1002     1.0  0.46241541046636875  0.31397307434299027  0.35548818515089214  1.0000
  H   H1003     1.0  0.4459778902000902  0.29237648210271305  0.3013533635958282  1.0000
  H   H1004     1.0  0.38890431012742993  0.27947267003393655  0.30146405948661636  1.0000
  H   H1005     1.0  0.3934728794246388  0.2597625973213862  0.36473504137363405  1.0000
  H   H1006     1.0  0.36361484209380246  0.2909772165962155  0.3565026753109518  1.0000
  H   H1007     1.0  0.40437463254859163  0.3358305532488296  0.2904933081154893  1.0000
  H   H1008     1.0  0.42074620900017146  0.3569434298750839  0.3452382741858821  1.0000
  H   H1009     1.0  0.37932748170107067  0.3472259314084611  0.34571717051703804  1.0000
  H   H1010     1.0  0.3867626860239461  0.3209018493083765  0.43244404840204437  1.0000
  H   H1011     1.0  0.42850175399004753  0.32899160358654495  0.43226762779667444  1.0000
  H   H1012     1.0  0.4155303046916364  0.2886029476049868  0.4404431923160064  1.0000
  N   N64       1.0  0.01753956053340988  0.5358333696886625  0.9699822286456383  1.0000
  C   C637      1.0  0.9940083559279637  0.5611627082871863  0.9860808348544614  1.0000
  C   C638      1.0  0.021241436916558776  0.5119960349415312  0.013242578663279048  1.0000
  C   C639      1.0  0.0486926505641081  0.5502881642426716  0.9589094609947467  1.0000
  C   C640      1.0  0.0062163672192305786  0.5198564930824441  0.9217415242853964  1.0000
  H   H1013     1.0  0.0020169545876673745  0.5740609744198412  0.02193500604873999  1.0000
  H   H1014     1.0  0.9702415248773629  0.55114212242605  0.9950737992305982  1.0000
  H   H1015     1.0  0.9905433960906433  0.579508728211966  0.9542811569528253  1.0000
  H   H1016     1.0  0.038866237162224815  0.49255480781189453  0.002372551607272122  1.0000
  H   H1017     1.0  0.029793265981285844  0.5231657329261836  0.0503011714442716  1.0000
  H   H1018     1.0  0.9981844327017197  0.5005193805452853  0.022511471200640454  1.0000
  H   H1019     1.0  0.04688332233521675  0.5681728986725451  0.9261438415915131  1.0000
  H   H1020     1.0  0.06716099813274612  0.5318875087452265  0.9470943680948934  1.0000
  H   H1021     1.0  0.05773394656973552  0.5629528421434293  0.9942563978093333  1.0000
  H   H1022     1.0  0.02358201730223075  0.5008385213405436  0.9082475929246123  1.0000
  H   H1023     1.0  0.0029970739296334425  0.537086667379262  0.8882301601581274  1.0000
  H   H1024     1.0  0.9829033390583642  0.5083020659979063  0.9287451393346622  1.0000
