data_image0
_chemical_formula_structural       FeHCHC2H5SCHNH5CHCSH2C5H2SH4SCNHFeS2FeSCHS2C3H4C6H4FeCH8CHC2SHFeHSFeSHFeCFeSHSC5H2C2HSCSHCHSCH3SCHCHC2H2CHFeHSFeS2CH2SHS2HSCSFeSH2C5NHCHFeH3FeHCHC7FeH3CHS2HCH4CFeNC3H8S2H4SCNC2HFeC2H3CH2SC2H4CSCHC2FeS2H2S2FeS2HSFeSCFeSFeH3CHCHCSC6H2SH5C6H5CHSH4NH6CHCHCHCHCH2CHNCH4NHSCHFeC2HSFeH2FeCSHC2HCSCSH2C2FeH2CH2C2SH2CNSC2FeH8C2HCH2SH5SH2CHSFeHCHC3FeS2H2S2HCHSH5C6H5FeSCHCH3NH2SHCHCHC2HC2FeHSC2NHNFeHSHFeC2HCH2CH3CNH4SH3C2H5CHCHCH3SH2CSHFeS3HCHC6H5NHSHFeHNC4H5CHCHC2HCH2CHCH4C2H2SC2HFeNFeSH2CH3CH4FeCH6SFeHC2SHCHCH2C2HSCH2CH5CH4FeCHCHCH2C2H2FeS2FeS2HCH2C2HC3H2C5SCH2SCSHCHCHS2H2CH2CHCH2S2CH5C2HCH4FeNC2HNCH2CHCHCFeH2C3NH4CNH2C2H5CHFeCFeCHSHSH3SCSHS2H2SFeH2FeCH3CNCHNH2CHCHSH2SHSHCH2CHCHNCHC2S2FeCSHCH2CFeH2NH2C2H2CH3FeSHS2HC2SH3C7H3SCH2NH2CH3FeH4FeSH2CNSH2C2HFeHC3HC2H9CH2FeC3HFeS2FeSH2CH2SH3SH2C2HCH4C7H4C6H7CHNH2SFeH2C2H2CFeCH5CH3NCHNH2CH3CS3CHCSH2SHCHSCHFeSFeS2CSH4SHFeCHC6H4NH2CFeCHC6H4SCH3C5HCH3CSH8CSH3CHNH3FeSNHFeSH3FeCHSCH2CH2C2HCHS2HC2HC2FeH2NFeH3SH2SHFeS2FeH2SH2S2HSFeS2FeHFeS4HC3HC3H2C6H4CHC2HCH2NHCH6CHCH4C3H12NHCH2NSHSC2FeCH2CH2CHFeSNSH2CHNC2HCH2NC5FeC2HCHSHCH3CH2C3HSCHC2HFeHC2H9S2CHSC3HC2HFeS2NS3CSHC2HSHC8H4NHSCH5C2H2CFeHCFeNHC4H5SHCSHCHSC3H6C2HSFe2SHCH4CH5C2HSCNH2SH3FeH4CHCH2CHCH2SCH3FeSFeHNH3CHSHFeH3C2SH5SH2FeSFeSFeS2FeS2Fe2S3FeSH3CHCHFeSH2C3H2SC6H4C6H4C2H3C6H3CH3C3H6C2H2CH2NC4H8SH4SH2NCSHCNC3HCH8CH4NSH2FeCHSNH2CHC3SH2CH3C2HCH2CH2CH3SNH2FeS2FeSHSCH2C2H4C6H4C3H2CH2CNH4CH2SCHCHFeH3CHCH2CSHSH2FeSHFeHFeH2SC2SHCH4NHSH4CHC2HCFeCHCSHNHCH2CSC3SCHC2HCSCSHFe2HSFeSCH3CFeSC2S2CFeSCFe2C4FeCH3CHSHCH3C7H4CHC2H8FeC2H2CSH2SCH6C2HCSH2SNSHSH7CSNH4CHSC2NH2CHFeS2H3CFeSHSHFeSCFeSFeH3C2H3SC6H3SHCHFeC6H4SCH5CH2CH2NH4CHSH3NC2H2SNC2SH2FeSH3SCFeSCSH2CSHSC3HC3H3CSH4FeHCNHC2H3C2HCH2CH3CH2C2HC2NCH6SH2Fe2H2NHC2FeS2H2S2H3CHC2SHC6H4SH3CHCH2C2SFeH4FeCH2NSHCHSHSC2H2FeCH2C2H4C3HNH2C2NCHSHCH5SHCHCSCH2C2H6FeHFeHCHFeS3HFeSC6H4CHC2HNHCHCHS2HSCH3CH2CH3CFeHSH5C2H3SH2NC4H12NC4H5SHCH8FeHCHCSHSHCHCHSCFeCH2SNHCSHC2FeS2FeHSC2H2C6H3C4SCH3SCHCSHFeH2CH2CHCH2SCH2CSHSH3CHCHC2HFeH5C2HNHFe2SH3C3HCH2FeHC2HNHFeH4NCH2CHCHSHC2H2CH4S2CSCHFeCH2FeSCH2CH4SNS2H3SH4C6H3FeC2HCH2CNCH2FeH6FeCHSHS2CHFeCHCH4CSHCH4CH2CNH2CHC2H2SC2NH3C2HCSHFeS2FeSHFeSFeCSH2S2HFeCHCHC2HCHC6H4C6H8CH2SHSCH2FeCH3NH2NHC3H2NH4CSH5CH3CHCHCH2NH2NH2FeS2HSH2C2SFe3SHC5NH2CHC4SC7H4CHCSCHSFeHCFeH7C2H3SH5CSCHNHCSH11C2FeSHCHC2HNH2SH2CSCH2C3HS2HCFe2CFeH2C2H5CHSCHC2SH3CH2FeS2HCS2H2CSH2FeS2FeSFeS4HC3HC3H2C6H4CNFeCSCH3NH2C2H3C2H5C2H2CH3SH6CH3SHC2H3C2FeH2CH2C2SCHCFeNHC3HCH2CFeH2NH2CH4CSCHCH2CSH3CHCH2CSCFeHS2FeCSFeSFeS2C2S2HSC3H2CH2C6H4CHC2H2S2HCH3CFeSFeH3C4H2CH2C2H5C3SCSFeNCNC4H16CH4NCH3NFeHC2HSH6SC3H2SH3CNHSCH5CHFeHSCFeSC3H2SH2Fe2HNFeS2FeS2Fe2S3FeSH2C2SH2FeS2HCHCH2FeC6HCSHC4HCH4C2H2C7H3C3HC2HCHNCH10CSFeH3SH8CHSHNSHCHC2H4C2HFeHCSHCHFeH5
_chemical_formula_sum              "Fe192 H1536 C960 S384 N96"
_cell_length_a       46.1045
_cell_length_b       47.6126
_cell_length_c       44.8031
_cell_angle_alpha    85.9522
_cell_angle_beta     87.5725
_cell_angle_gamma    86.504

_space_group_name_H-M_alt    "P 1"
_space_group_IT_number       1

loop_
  _space_group_symop_operation_xyz
  'x, y, z'

loop_
  _atom_site_type_symbol
  _atom_site_label
  _atom_site_symmetry_multiplicity
  _atom_site_fract_x
  _atom_site_fract_y
  _atom_site_fract_z
  _atom_site_occupancy
  Fe  Fe1       1.0  0.01148  0.30640  0.06394  1.0000
  H   H1        1.0  0.06874  0.30462  0.02027  1.0000
  C   C1        1.0  0.09234  0.25481  0.04023  1.0000
  H   H2        1.0  0.03573  0.16928  0.00963  1.0000
  C   C2        1.0  0.12208  0.29452  0.04304  1.0000
  C   C3        1.0  0.03283  0.19192  0.00550  1.0000
  H   H3        1.0  0.20224  0.99352  0.98902  1.0000
  H   H4        1.0  0.10611  0.30478  0.05878  1.0000
  H   H5        1.0  0.07497  0.26374  0.05550  1.0000
  H   H6        1.0  0.02321  0.27350  0.99164  1.0000
  H   H7        1.0  0.08173  0.24100  0.02544  1.0000
  S   S1        1.0  0.24336  0.03829  0.98985  1.0000
  C   C4        1.0  0.12936  0.26451  0.00176  1.0000
  H   H8        1.0  0.02024  0.19923  0.05149  1.0000
  N   N1        1.0  0.10750  0.27732  0.02260  1.0000
  H   H9        1.0  0.14587  0.25070  0.01405  1.0000
  H   H10       1.0  0.07554  0.28351  0.98879  1.0000
  H   H11       1.0  0.10756  0.24110  0.05425  1.0000
  H   H12       1.0  0.08051  0.30429  0.31090  1.0000
  H   H13       1.0  0.13362  0.31184  0.03047  1.0000
  C   C5        1.0  0.01676  0.31619  0.20739  1.0000
  H   H14       1.0  0.13825  0.28159  0.05665  1.0000
  C   C6        1.0  0.01660  0.30513  0.23753  1.0000
  S   S2        1.0  0.01719  0.30751  0.29890  1.0000
  H   H15       1.0  0.02321  0.00643  0.00150  1.0000
  H   H16       1.0  0.01746  0.30214  0.18939  1.0000
  C   C7        1.0  0.10185  0.31419  0.31036  1.0000
  C   C8        1.0  0.08616  0.29548  0.00529  1.0000
  C   C9        1.0  0.02413  0.20901  0.02925  1.0000
  C   C10       1.0  0.02615  0.25086  0.99576  1.0000
  C   C11       1.0  0.02086  0.23862  0.02466  1.0000
  H   H17       1.0  0.09656  0.31352  0.99278  1.0000
  H   H18       1.0  0.11888  0.29789  0.30407  1.0000
  S   S3        1.0  0.01063  0.25911  0.05580  1.0000
  H   H19       1.0  0.01727  0.28251  0.24236  1.0000
  H   H20       1.0  0.14103  0.28100  0.98799  1.0000
  H   H21       1.0  0.11355  0.31605  0.25058  1.0000
  H   H22       1.0  0.11899  0.25134  0.98607  1.0000
  S   S4        1.0  0.23716  0.05948  0.57486  1.0000
  C   C12       1.0  0.10930  0.13198  0.53983  1.0000
  N   N2        1.0  0.10222  0.12308  0.51021  1.0000
  H   H23       1.0  0.19259  0.09846  0.59692  1.0000
  Fe  Fe2       1.0  0.06594  0.08938  0.60333  1.0000
  S   S5        1.0  0.07680  0.13152  0.61776  1.0000
  S   S6        1.0  0.09868  0.05643  0.58490  1.0000
  Fe  Fe3       1.0  0.04078  0.14886  0.58774  1.0000
  S   S7        1.0  0.05482  0.18669  0.55682  1.0000
  C   C13       1.0  0.07568  0.13924  0.49982  1.0000
  H   H24       1.0  0.11662  0.07985  0.52123  1.0000
  S   S8        1.0  0.03090  0.10664  0.57213  1.0000
  S   S9        1.0  0.05429  0.30229  0.37452  1.0000
  C   C14       1.0  0.04613  0.24675  0.48748  1.0000
  C   C15       1.0  0.05611  0.23006  0.51275  1.0000
  C   C16       1.0  0.04055  0.20727  0.52536  1.0000
  H   H25       1.0  0.13114  0.15135  0.48657  1.0000
  H   H26       1.0  0.09158  0.12738  0.55665  1.0000
  H   H27       1.0  0.05836  0.26419  0.47816  1.0000
  H   H28       1.0  0.07605  0.23492  0.52267  1.0000
  C   C17       1.0  0.19874  0.05778  0.57852  1.0000
  C   C18       1.0  0.18463  0.03470  0.56967  1.0000
  C   C19       1.0  0.15403  0.03459  0.57197  1.0000
  C   C20       1.0  0.13720  0.05731  0.58347  1.0000
  C   C21       1.0  0.15132  0.08027  0.59256  1.0000
  C   C22       1.0  0.18190  0.08058  0.58985  1.0000
  H   H29       1.0  0.19728  0.01707  0.56083  1.0000
  H   H30       1.0  0.14330  0.01673  0.56490  1.0000
  H   H31       1.0  0.13872  0.09776  0.60177  1.0000
  H   H32       1.0  0.05694  0.13614  0.51598  1.0000
  Fe  Fe4       1.0  0.02088  0.29943  0.41266  1.0000
  C   C23       1.0  0.09725  0.09260  0.51266  1.0000
  H   H33       1.0  0.12950  0.12070  0.54821  1.0000
  H   H34       1.0  0.07878  0.08774  0.52863  1.0000
  H   H35       1.0  0.07876  0.16234  0.49765  1.0000
  H   H36       1.0  0.14702  0.11655  0.49589  1.0000
  H   H37       1.0  0.06929  0.13287  0.47773  1.0000
  H   H38       1.0  0.09221  0.08489  0.49071  1.0000
  H   H39       1.0  0.12205  0.12222  0.46599  1.0000
  H   H40       1.0  0.11212  0.15509  0.53929  1.0000
  C   C24       1.0  0.12671  0.12855  0.48867  1.0000
  H   H41       1.0  0.24114  0.31436  0.50499  1.0000
  C   C25       1.0  0.02041  0.24077  0.47436  1.0000
  C   C26       1.0  0.01482  0.20128  0.51224  1.0000
  S   S10       1.0  0.03435  0.08130  0.64252  1.0000
  H   H42       1.0  0.25262  0.31640  0.46606  1.0000
  Fe  Fe5       1.0  0.04254  0.12510  0.65466  1.0000
  H   H43       1.0  0.03873  0.24355  0.94977  1.0000
  S   S11       1.0  0.01150  0.12399  0.90953  1.0000
  Fe  Fe6       1.0  0.07620  0.07588  0.94184  1.0000
  S   S12       1.0  0.08280  0.11280  0.90826  1.0000
  H   H44       1.0  0.03522  0.99478  0.92044  1.0000
  Fe  Fe7       1.0  0.04838  0.13653  0.93650  1.0000
  C   C27       1.0  0.21355  0.99878  0.90170  1.0000
  Fe  Fe8       1.0  0.04519  0.09783  0.88399  1.0000
  S   S13       1.0  0.04502  0.08446  0.83560  1.0000
  H   H45       1.0  0.04211  0.14385  0.81142  1.0000
  S   S14       1.0  0.04010  0.05982  0.91641  1.0000
  C   C28       1.0  0.20614  0.03814  0.98025  1.0000
  C   C29       1.0  0.04609  0.12523  0.73857  1.0000
  C   C30       1.0  0.04844  0.09591  0.74429  1.0000
  C   C31       1.0  0.04816  0.08398  0.77407  1.0000
  C   C32       1.0  0.04589  0.10107  0.79860  1.0000
  H   H46       1.0  0.05066  0.08238  0.72584  1.0000
  H   H47       1.0  0.20230  0.08314  0.97011  1.0000
  C   C33       1.0  0.04383  0.13038  0.79289  1.0000
  C   C34       1.0  0.04387  0.14233  0.76308  1.0000
  H   H48       1.0  0.04997  0.06129  0.77818  1.0000
  S   S15       1.0  0.04446  0.10049  0.97150  1.0000
  C   C35       1.0  0.16141  0.06472  0.96421  1.0000
  S   S16       1.0  0.04852  0.18372  0.94547  1.0000
  H   H49       1.0  0.19312  0.00467  0.91458  1.0000
  C   C36       1.0  0.14631  0.03999  0.96612  1.0000
  H   H50       1.0  0.15015  0.08465  0.95762  1.0000
  S   S17       1.0  0.04390  0.14163  0.70155  1.0000
  C   C37       1.0  0.16148  0.01428  0.97476  1.0000
  H   H51       1.0  0.04207  0.16503  0.75901  1.0000
  H   H52       1.0  0.07103  0.99855  0.93332  1.0000
  H   H53       1.0  0.23155  0.00858  0.91225  1.0000
  S   S18       1.0  0.10858  0.03991  0.95852  1.0000
  C   C38       1.0  0.19106  0.06378  0.97132  1.0000
  H   H54       1.0  0.01427  0.01954  0.96437  1.0000
  C   C39       1.0  0.03179  0.00858  0.97792  1.0000
  H   H55       1.0  0.21161  0.00864  0.87855  1.0000
  C   C40       1.0  0.03486  0.23377  0.97201  1.0000
  C   C41       1.0  0.03815  0.20416  0.97661  1.0000
  H   H56       1.0  0.15006  0.99502  0.97652  1.0000
  H   H57       1.0  0.05019  0.02277  0.97718  1.0000
  C   C42       1.0  0.19117  0.01333  0.98174  1.0000
  H   H58       1.0  0.21040  0.50723  0.08279  1.0000
  Fe  Fe9       1.0  0.22612  0.47080  0.02466  1.0000
  H   H59       1.0  0.12759  0.44705  0.07555  1.0000
  S   S19       1.0  0.22903  0.51708  0.01229  1.0000
  Fe  Fe10      1.0  0.05161  0.35514  0.05531  1.0000
  S   S20       1.0  0.09427  0.36392  0.02961  1.0000
  S   S21       1.0  0.25138  0.57460  0.20811  1.0000
  C   C43       1.0  0.01608  0.34537  0.20064  1.0000
  H   H60       1.0  0.05747  0.35129  0.30026  1.0000
  H   H61       1.0  0.05573  0.45896  0.06217  1.0000
  S   S22       1.0  0.02147  0.38338  0.08162  1.0000
  H   H62       1.0  0.01446  0.38581  0.21963  1.0000
  S   S23       1.0  0.03624  0.60860  0.12598  1.0000
  S   S24       1.0  0.19325  0.62282  0.24333  1.0000
  H   H63       1.0  0.13141  0.37106  0.27350  1.0000
  S   S25       1.0  0.07376  0.60203  0.06195  1.0000
  C   C44       1.0  0.02019  0.49849  0.03339  1.0000
  S   S26       1.0  0.01359  0.64375  0.06415  1.0000
  Fe  Fe11      1.0  0.08142  0.61567  0.10768  1.0000
  S   S27       1.0  0.12043  0.60303  0.13462  1.0000
  H   H64       1.0  0.18063  0.64713  0.05402  1.0000
  H   H65       1.0  0.25914  0.61045  0.15521  1.0000
  C   C45       1.0  0.20370  0.63982  0.09498  1.0000
  C   C46       1.0  0.17925  0.63979  0.07742  1.0000
  C   C47       1.0  0.15154  0.61921  0.11985  1.0000
  C   C48       1.0  0.17569  0.62004  0.13757  1.0000
  C   C49       1.0  0.20143  0.63103  0.12526  1.0000
  N   N3        1.0  0.10202  0.33944  0.28919  1.0000
  H   H66       1.0  0.18279  0.48905  0.10410  1.0000
  C   C50       1.0  0.15302  0.62996  0.08996  1.0000
  H   H67       1.0  0.17442  0.61246  0.16093  1.0000
  Fe  Fe12      1.0  0.23701  0.61960  0.21953  1.0000
  H   H68       1.0  0.14843  0.37720  0.99962  1.0000
  H   H69       1.0  0.13436  0.62955  0.07618  1.0000
  H   H70       1.0  0.04479  0.42976  0.04293  1.0000
  Fe  Fe13      1.0  0.01590  0.34626  0.11516  1.0000
  H   H71       1.0  0.15796  0.62870  0.29680  1.0000
  C   C51       1.0  0.19310  0.50964  0.10067  1.0000
  H   H72       1.0  0.07768  0.37929  0.28259  1.0000
  C   C52       1.0  0.09634  0.33133  0.25880  1.0000
  C   C53       1.0  0.15775  0.43336  0.04065  1.0000
  C   C54       1.0  0.13217  0.43187  0.05888  1.0000
  C   C55       1.0  0.11260  0.41066  0.05599  1.0000
  C   C56       1.0  0.11830  0.39085  0.03457  1.0000
  C   C57       1.0  0.14383  0.39238  0.01629  1.0000
  C   C58       1.0  0.16352  0.41346  0.01935  1.0000
  Fe  Fe14      1.0  0.21573  0.64420  0.27791  1.0000
  H   H73       1.0  0.09328  0.40950  0.07046  1.0000
  H   H74       1.0  0.03455  0.50458  0.01371  1.0000
  H   H75       1.0  0.18306  0.41439  0.00514  1.0000
  C   C59       1.0  0.13595  0.62917  0.30783  1.0000
  H   H76       1.0  0.21118  0.58177  0.29778  1.0000
  S   S28       1.0  0.18131  0.46078  0.04528  1.0000
  S   S29       1.0  0.04898  0.31889  0.09010  1.0000
  H   H77       1.0  0.14074  0.54365  0.05803  1.0000
  C   C60       1.0  0.01513  0.36321  0.22453  1.0000
  H   H78       1.0  0.14498  0.50664  0.06910  1.0000
  H   H79       1.0  0.22121  0.60722  0.99716  1.0000
  H   H80       1.0  0.09509  0.34998  0.24235  1.0000
  H   H81       1.0  0.09384  0.61863  0.00142  1.0000
  C   C61       1.0  0.01476  0.35217  0.25466  1.0000
  Fe  Fe15      1.0  0.02725  0.59906  0.07905  1.0000
  N   N4        1.0  0.17159  0.53284  0.09232  1.0000
  C   C62       1.0  0.14976  0.53609  0.11713  1.0000
  C   C63       1.0  0.15681  0.52635  0.06520  1.0000
  C   C64       1.0  0.18660  0.55932  0.08625  1.0000
  H   H82       1.0  0.20381  0.51351  0.12167  1.0000
  H   H83       1.0  0.13189  0.55174  0.11054  1.0000
  H   H84       1.0  0.13966  0.51588  0.12391  1.0000
  H   H85       1.0  0.15950  0.54366  0.13724  1.0000
  H   H86       1.0  0.17261  0.52317  0.04613  1.0000
  H   H87       1.0  0.17112  0.57695  0.07892  1.0000
  H   H88       1.0  0.20387  0.55732  0.06831  1.0000
  H   H89       1.0  0.19709  0.56557  0.10655  1.0000
  S   S30       1.0  0.01576  0.34144  0.02795  1.0000
  S   S31       1.0  0.01689  0.36085  0.16311  1.0000
  H   H90       1.0  0.21941  0.63287  0.13924  1.0000
  H   H91       1.0  0.12263  0.61518  0.29584  1.0000
  H   H92       1.0  0.14849  0.33664  0.28222  1.0000
  H   H93       1.0  0.07895  0.64477  0.31063  1.0000
  S   S32       1.0  0.25979  0.63920  0.25576  1.0000
  C   C65       1.0  0.07915  0.36040  0.29865  1.0000
  N   N5        1.0  0.01719  0.46767  0.03677  1.0000
  C   C66       1.0  0.04610  0.45309  0.04128  1.0000
  C   C67       1.0  0.25964  0.53397  0.13040  1.0000
  H   H94       1.0  0.02969  0.50626  0.05351  1.0000
  Fe  Fe16      1.0  0.06079  0.64773  0.05098  1.0000
  C   C68       1.0  0.25518  0.56722  0.17000  1.0000
  C   C69       1.0  0.13062  0.35186  0.28914  1.0000
  H   H95       1.0  0.22674  0.53256  0.31399  1.0000
  H   H96       1.0  0.13533  0.35814  0.31191  1.0000
  H   H97       1.0  0.06169  0.45829  0.02232  1.0000
  C   C70       1.0  0.01562  0.32297  0.26140  1.0000
  H   H98       1.0  0.01363  0.36628  0.27259  1.0000
  H   H99       1.0  0.23294  0.60984  0.03461  1.0000
  S   S33       1.0  0.25632  0.45931  0.98564  1.0000
  C   C71       1.0  0.25614  0.53936  0.16107  1.0000
  C   C72       1.0  0.23970  0.60237  0.01221  1.0000
  H   H100      1.0  0.25435  0.52203  0.17787  1.0000
  H   H101      1.0  0.24315  0.57902  0.01508  1.0000
  H   H102      1.0  0.01874  0.46332  0.98923  1.0000
  H   H103      1.0  0.07528  0.32110  0.25848  1.0000
  C   C73       1.0  0.25804  0.58926  0.14834  1.0000
  S   S34       1.0  0.23652  0.65108  0.07819  1.0000
  C   C74       1.0  0.09966  0.63208  0.98197  1.0000
  H   H104      1.0  0.23933  0.39408  0.45542  1.0000
  C   C75       1.0  0.17175  0.52357  0.38796  1.0000
  C   C76       1.0  0.15765  0.54132  0.59859  1.0000
  Fe  Fe17      1.0  0.22432  0.44774  0.45778  1.0000
  S   S35       1.0  0.18238  0.42543  0.46908  1.0000
  S   S36       1.0  0.22476  0.49498  0.45247  1.0000
  H   H105      1.0  0.22459  0.39148  0.50854  1.0000
  H   H106      1.0  0.21059  0.55304  0.61449  1.0000
  S   S37       1.0  0.02756  0.36739  0.35839  1.0000
  S   S38       1.0  0.03086  0.34150  0.42864  1.0000
  Fe  Fe18      1.0  0.06160  0.34596  0.38831  1.0000
  S   S39       1.0  0.10777  0.36113  0.38090  1.0000
  S   S40       1.0  0.25419  0.44095  0.41797  1.0000
  H   H107      1.0  0.14634  0.57505  0.54946  1.0000
  S   S41       1.0  0.10042  0.59622  0.62498  1.0000
  Fe  Fe19      1.0  0.08397  0.61979  0.58264  1.0000
  S   S42       1.0  0.07207  0.58864  0.55041  1.0000
  C   C77       1.0  0.21869  0.57684  0.32021  1.0000
  Fe  Fe20      1.0  0.09918  0.61342  0.51615  1.0000
  S   S43       1.0  0.13120  0.59011  0.48535  1.0000
  Fe  Fe21      1.0  0.03458  0.61915  0.53844  1.0000
  H   H108      1.0  0.18049  0.53301  0.54358  1.0000
  H   H109      1.0  0.24687  0.55858  0.40023  1.0000
  H   H110      1.0  0.19336  0.51948  0.39811  1.0000
  C   C78       1.0  0.16205  0.58275  0.56478  1.0000
  H   H111      1.0  0.16862  0.52586  0.44804  1.0000
  C   C79       1.0  0.16626  0.56967  0.40746  1.0000
  H   H112      1.0  0.21462  0.58347  0.58889  1.0000
  C   C80       1.0  0.22764  0.54897  0.32939  1.0000
  S   S44       1.0  0.06020  0.64057  0.50084  1.0000
  C   C81       1.0  0.16888  0.59563  0.47999  1.0000
  C   C82       1.0  0.18807  0.57177  0.48206  1.0000
  C   C83       1.0  0.21719  0.57324  0.47220  1.0000
  C   C84       1.0  0.22794  0.59855  0.45996  1.0000
  C   C85       1.0  0.20911  0.62295  0.45854  1.0000
  C   C86       1.0  0.17953  0.62147  0.46852  1.0000
  H   H113      1.0  0.18019  0.55164  0.49028  1.0000
  H   H114      1.0  0.23134  0.55430  0.47309  1.0000
  S   S45       1.0  0.21045  0.63361  0.32783  1.0000
  H   H115      1.0  0.20776  0.52408  0.57064  1.0000
  H   H116      1.0  0.01719  0.59559  0.59542  1.0000
  H   H117      1.0  0.18639  0.58373  0.61789  1.0000
  H   H118      1.0  0.19850  0.36711  0.50057  1.0000
  H   H119      1.0  0.10940  0.56220  0.40439  1.0000
  C   C87       1.0  0.12759  0.37981  0.40557  1.0000
  C   C88       1.0  0.15427  0.39059  0.39529  1.0000
  C   C89       1.0  0.17102  0.40507  0.41420  1.0000
  C   C90       1.0  0.16144  0.40863  0.44382  1.0000
  C   C91       1.0  0.13482  0.39781  0.45413  1.0000
  C   C92       1.0  0.11789  0.38362  0.43510  1.0000
  H   H120      1.0  0.16201  0.38777  0.37251  1.0000
  H   H121      1.0  0.19142  0.41327  0.40589  1.0000
  H   H122      1.0  0.12718  0.40042  0.47699  1.0000
  H   H123      1.0  0.09748  0.37542  0.44338  1.0000
  H   H124      1.0  0.03379  0.62219  0.63628  1.0000
  C   C93       1.0  0.22011  0.59830  0.33974  1.0000
  H   H125      1.0  0.13833  0.50838  0.43585  1.0000
  S   S46       1.0  0.11340  0.64262  0.54889  1.0000
  H   H126      1.0  0.16476  0.63996  0.46598  1.0000
  H   H127      1.0  0.13293  0.54272  0.45017  1.0000
  H   H128      1.0  0.17574  0.53283  0.36475  1.0000
  H   H129      1.0  0.16238  0.50275  0.38647  1.0000
  N   N6        1.0  0.17830  0.55910  0.58098  1.0000
  H   H130      1.0  0.11323  0.52781  0.38996  1.0000
  H   H131      1.0  0.25307  0.36344  0.43726  1.0000
  H   H132      1.0  0.21482  0.36837  0.44719  1.0000
  H   H133      1.0  0.21705  0.64266  0.44893  1.0000
  H   H134      1.0  0.14519  0.55347  0.61575  1.0000
  H   H135      1.0  0.23073  0.60796  0.38422  1.0000
  C   C94       1.0  0.14785  0.52927  0.43626  1.0000
  H   H136      1.0  0.12704  0.55772  0.36831  1.0000
  C   C95       1.0  0.12427  0.54779  0.39142  1.0000
  H   H137      1.0  0.14155  0.53317  0.58405  1.0000
  C   C96       1.0  0.23877  0.56351  0.37802  1.0000
  H   H138      1.0  0.14942  0.59622  0.58064  1.0000
  C   C97       1.0  0.23824  0.54227  0.35807  1.0000
  H   H139      1.0  0.22417  0.35788  0.52943  1.0000
  C   C98       1.0  0.19503  0.54199  0.55919  1.0000
  H   H140      1.0  0.15251  0.58449  0.42098  1.0000
  H   H141      1.0  0.08332  0.36768  0.32108  1.0000
  C   C99       1.0  0.22965  0.59149  0.36887  1.0000
  H   H142      1.0  0.18772  0.56656  0.41807  1.0000
  N   N7        1.0  0.15254  0.54258  0.40576  1.0000
  C   C100      1.0  0.19837  0.57036  0.60144  1.0000
  H   H143      1.0  0.17012  0.58034  0.38487  1.0000
  H   H144      1.0  0.01513  0.56458  0.62021  1.0000
  H   H145      1.0  0.17688  0.59641  0.55086  1.0000
  H   H146      1.0  0.16917  0.52294  0.61062  1.0000
  N   N8        1.0  0.24213  0.35643  0.48433  1.0000
  H   H147      1.0  0.21070  0.55477  0.54527  1.0000
  S   S47       1.0  0.04471  0.64877  0.57305  1.0000
  C   C101      1.0  0.22149  0.36863  0.50678  1.0000
  H   H148      1.0  0.13856  0.62008  0.33118  1.0000
  Fe  Fe22      1.0  0.01923  0.32372  0.34591  1.0000
  C   C102      1.0  0.23751  0.32612  0.48298  1.0000
  C   C103      1.0  0.23715  0.37109  0.45468  1.0000
  H   H149      1.0  0.21488  0.32283  0.47671  1.0000
  S   S48       1.0  0.25180  0.50739  0.36713  1.0000
  Fe  Fe23      1.0  0.25708  0.48806  0.41451  1.0000
  H   H150      1.0  0.10576  0.31962  0.33360  1.0000
  H   H151      1.0  0.09467  0.64986  0.34608  1.0000
  Fe  Fe24      1.0  0.23885  0.60839  0.72317  1.0000
  C   C104      1.0  0.17007  0.64861  0.71355  1.0000
  S   S49       1.0  0.24476  0.56131  0.72979  1.0000
  H   H152      1.0  0.03509  0.63624  0.78584  1.0000
  C   C105      1.0  0.20323  0.59087  0.80769  1.0000
  C   C106      1.0  0.09659  0.59926  0.66420  1.0000
  H   H153      1.0  0.22083  0.54003  0.78955  1.0000
  C   C107      1.0  0.08326  0.62281  0.67754  1.0000
  S   S50       1.0  0.08670  0.59746  0.76691  1.0000
  C   C108      1.0  0.20419  0.54014  0.80830  1.0000
  S   S51       1.0  0.13411  0.62252  0.89827  1.0000
  H   H154      1.0  0.15491  0.58842  0.77666  1.0000
  H   H155      1.0  0.15524  0.55072  0.77709  1.0000
  C   C109      1.0  0.01528  0.63002  0.77540  1.0000
  C   C110      1.0  0.11298  0.62022  0.95660  1.0000
  Fe  Fe25      1.0  0.09228  0.63388  0.79552  1.0000
  H   H156      1.0  0.15024  0.54738  0.83267  1.0000
  H   H157      1.0  0.19007  0.61110  0.80432  1.0000
  C   C111      1.0  0.10715  0.57624  0.68260  1.0000
  H   H158      1.0  0.11757  0.59765  0.95670  1.0000
  H   H159      1.0  0.21626  0.53765  0.82946  1.0000
  C   C112      1.0  0.10433  0.57642  0.71382  1.0000
  C   C113      1.0  0.09147  0.59989  0.72737  1.0000
  S   S52       1.0  0.19602  0.63062  0.73728  1.0000
  H   H160      1.0  0.11229  0.55821  0.72756  1.0000
  H   H161      1.0  0.14937  0.58504  0.83232  1.0000
  C   C114      1.0  0.16414  0.56569  0.83265  1.0000
  N   N9        1.0  0.18519  0.56635  0.80679  1.0000
  S   S53       1.0  0.07175  0.63024  0.84188  1.0000
  C   C115      1.0  0.01918  0.60990  0.65194  1.0000
  C   C116      1.0  0.16928  0.56871  0.77863  1.0000
  Fe  Fe26      1.0  0.11359  0.64400  0.85749  1.0000
  H   H162      1.0  0.11737  0.55790  0.67265  1.0000
  H   H163      1.0  0.18445  0.56941  0.75864  1.0000
  H   H164      1.0  0.07029  0.64115  0.71940  1.0000
  H   H165      1.0  0.17533  0.56415  0.85432  1.0000
  H   H166      1.0  0.22055  0.59093  0.78960  1.0000
  H   H167      1.0  0.03231  0.59102  0.66091  1.0000
  H   H168      1.0  0.21385  0.59089  0.82949  1.0000
  H   H169      1.0  0.19149  0.52115  0.80719  1.0000
  C   C117      1.0  0.08070  0.62311  0.70916  1.0000
  C   C118      1.0  0.01803  0.58442  0.80247  1.0000
  H   H170      1.0  0.07520  0.64082  0.66360  1.0000
  C   C119      1.0  0.11921  0.63740  0.93072  1.0000
  H   H171      1.0  0.02250  0.62065  0.75403  1.0000
  H   H172      1.0  0.03791  0.58947  0.81376  1.0000
  S   S54       1.0  0.13575  0.64290  0.81225  1.0000
  H   H173      1.0  0.19368  0.64216  0.67186  1.0000
  H   H174      1.0  0.02565  0.57423  0.78167  1.0000
  H   H175      1.0  0.25756  0.60806  0.95458  1.0000
  H   H176      1.0  0.01305  0.62307  0.67102  1.0000
  H   H177      1.0  0.25017  0.58126  0.88703  1.0000
  S   S55       1.0  0.25656  0.53907  0.93572  1.0000
  H   H178      1.0  0.08853  0.72498  0.08893  1.0000
  H   H179      1.0  0.25664  0.81489  0.00061  1.0000
  C   C120      1.0  0.25347  0.74055  0.98780  1.0000
  H   H180      1.0  0.15986  0.69422  0.10140  1.0000
  S   S56       1.0  0.07418  0.67674  0.01165  1.0000
  Fe  Fe27      1.0  0.04185  0.72461  0.29271  1.0000
  H   H181      1.0  0.02513  0.71311  0.08489  1.0000
  C   C121      1.0  0.24719  0.72479  0.01474  1.0000
  H   H182      1.0  0.16884  0.68063  0.13828  1.0000
  C   C122      1.0  0.21215  0.71120  0.11490  1.0000
  C   C123      1.0  0.03697  0.66716  0.18192  1.0000
  C   C124      1.0  0.03372  0.68602  0.23102  1.0000
  Fe  Fe28      1.0  0.18737  0.66594  0.21970  1.0000
  S   S57       1.0  0.14452  0.67819  0.19745  1.0000
  S   S58       1.0  0.20635  0.68767  0.25635  1.0000
  H   H183      1.0  0.06969  0.78900  0.08673  1.0000
  H   H184      1.0  0.25462  0.65563  0.01770  1.0000
  S   S59       1.0  0.02140  0.76902  0.28934  1.0000
  S   S60       1.0  0.05193  0.78311  0.20465  1.0000
  H   H185      1.0  0.01146  0.69218  0.99189  1.0000
  C   C125      1.0  0.17243  0.84181  0.30060  1.0000
  H   H186      1.0  0.16397  0.73755  0.16686  1.0000
  S   S61       1.0  0.08926  0.81900  0.29650  1.0000
  H   H187      1.0  0.22822  0.71239  0.01673  1.0000
  H   H188      1.0  0.22901  0.72678  0.11617  1.0000
  H   H189      1.0  0.01806  0.74210  0.12829  1.0000
  H   H190      1.0  0.17205  0.74273  0.08375  1.0000
  H   H191      1.0  0.20143  0.74550  0.15969  1.0000
  C   C126      1.0  0.07660  0.75295  0.20427  1.0000
  C   C127      1.0  0.10193  0.75194  0.22095  1.0000
  C   C128      1.0  0.12289  0.72910  0.21958  1.0000
  C   C129      1.0  0.11894  0.70734  0.20097  1.0000
  C   C130      1.0  0.09419  0.70892  0.18360  1.0000
  C   C131      1.0  0.07295  0.73133  0.18554  1.0000
  H   H192      1.0  0.10518  0.76882  0.23523  1.0000
  H   H193      1.0  0.14200  0.72843  0.23285  1.0000
  H   H194      1.0  0.09110  0.69228  0.16900  1.0000
  H   H195      1.0  0.05368  0.73190  0.17259  1.0000
  H   H196      1.0  0.21966  0.69157  0.12807  1.0000
  Fe  Fe29      1.0  0.06251  0.78137  0.30972  1.0000
  S   S62       1.0  0.07258  0.66145  0.09536  1.0000
  C   C132      1.0  0.07272  0.73385  0.10573  1.0000
  H   H197      1.0  0.18488  0.85947  0.29229  1.0000
  C   C133      1.0  0.04645  0.66693  0.21123  1.0000
  H   H198      1.0  0.05711  0.96460  0.00922  1.0000
  H   H199      1.0  0.14022  0.70726  0.13377  1.0000
  H   H200      1.0  0.14178  0.67024  0.26383  1.0000
  N   N10       1.0  0.04819  0.75003  0.09119  1.0000
  H   H201      1.0  0.18943  0.76437  0.10812  1.0000
  H   H202      1.0  0.03067  0.83615  0.28970  1.0000
  S   S63       1.0  0.04666  0.68537  0.26727  1.0000
  H   H203      1.0  0.02335  0.90655  0.22529  1.0000
  C   C134      1.0  0.06103  0.87945  0.26264  1.0000
  H   H204      1.0  0.25458  0.88665  0.02905  1.0000
  C   C135      1.0  0.16210  0.70022  0.12470  1.0000
  H   H205      1.0  0.04878  0.72374  0.05388  1.0000
  C   C136      1.0  0.01390  0.68568  0.17269  1.0000
  C   C137      1.0  0.02731  0.76007  0.11456  1.0000
  H   H206      1.0  0.07483  0.76768  0.05494  1.0000
  C   C138      1.0  0.06445  0.96734  0.98528  1.0000
  C   C139      1.0  0.02571  0.84372  0.26634  1.0000
  Fe  Fe30      1.0  0.02674  0.65358  0.10969  1.0000
  H   H207      1.0  0.06859  0.87444  0.28576  1.0000
  S   S64       1.0  0.25395  0.89739  0.30194  1.0000
  C   C140      1.0  0.17378  0.74752  0.10756  1.0000
  C   C141      1.0  0.05898  0.77450  0.07280  1.0000
  N   N11       1.0  0.18334  0.72208  0.12619  1.0000
  H   H208      1.0  0.07485  0.86601  0.24761  1.0000
  N   N12       1.0  0.02989  0.87424  0.26079  1.0000
  Fe  Fe31      1.0  0.25567  0.84996  0.30978  1.0000
  H   H209      1.0  0.11008  0.69146  0.27437  1.0000
  S   S65       1.0  0.22960  0.66134  0.19260  1.0000
  H   H210      1.0  0.15213  0.75626  0.11564  1.0000
  Fe  Fe32      1.0  0.24925  0.68115  0.23079  1.0000
  C   C142      1.0  0.12656  0.81831  0.30432  1.0000
  C   C143      1.0  0.25107  0.75744  0.28987  1.0000
  H   H211      1.0  0.04081  0.78694  0.06148  1.0000
  C   C144      1.0  0.18535  0.72933  0.15755  1.0000
  H   H212      1.0  0.21151  0.70590  0.09114  1.0000
  H   H213      1.0  0.19218  0.71050  0.17224  1.0000
  C   C145      1.0  0.14302  0.84103  0.29352  1.0000
  H   H214      1.0  0.04772  0.65307  0.16652  1.0000
  H   H215      1.0  0.03768  0.77322  0.13025  1.0000
  H   H216      1.0  0.08443  0.74717  0.12012  1.0000
  C   C146      1.0  0.03366  0.73174  0.07182  1.0000
  N   N13       1.0  0.12273  0.65823  0.30725  1.0000
  H   H217      1.0  0.03196  0.87163  0.21312  1.0000
  H   H218      1.0  0.06537  0.90185  0.25639  1.0000
  H   H219      1.0  0.03992  0.83083  0.25109  1.0000
  H   H220      1.0  0.06480  0.71591  0.12060  1.0000
  S   S66       1.0  0.08391  0.73845  0.30819  1.0000
  H   H221      1.0  0.23649  0.83917  0.02376  1.0000
  H   H222      1.0  0.23715  0.77642  0.29518  1.0000
  H   H223      1.0  0.06449  0.65271  0.21818  1.0000
  C   C147      1.0  0.12022  0.66962  0.27583  1.0000
  C   C148      1.0  0.01287  0.89005  0.28351  1.0000
  H   H224      1.0  0.13300  0.85815  0.27968  1.0000
  H   H225      1.0  0.16340  0.67686  0.31249  1.0000
  H   H226      1.0  0.23680  0.74233  0.28076  1.0000
  H   H227      1.0  0.08392  0.98025  0.98400  1.0000
  H   H228      1.0  0.01881  0.88238  0.30663  1.0000
  C   C149      1.0  0.25095  0.83766  0.00336  1.0000
  H   H229      1.0  0.25635  0.89277  0.98881  1.0000
  C   C150      1.0  0.01044  0.70435  0.22196  1.0000
  H   H230      1.0  0.01629  0.91300  0.28062  1.0000
  C   C151      1.0  0.02002  0.88380  0.23062  1.0000
  H   H231      1.0  0.10639  0.65678  0.26297  1.0000
  H   H232      1.0  0.01485  0.74323  0.06077  1.0000
  H   H233      1.0  0.23796  0.84602  0.98387  1.0000
  S   S67       1.0  0.04511  0.77494  0.35703  1.0000
  H   H234      1.0  0.17492  0.72054  0.58704  1.0000
  H   H235      1.0  0.07553  0.79723  0.44716  1.0000
  C   C152      1.0  0.23025  0.91132  0.56306  1.0000
  S   S68       1.0  0.05702  0.85963  0.47993  1.0000
  H   H236      1.0  0.06030  0.79699  0.41104  1.0000
  Fe  Fe33      1.0  0.18611  0.82290  0.59024  1.0000
  S   S69       1.0  0.19617  0.78049  0.61400  1.0000
  S   S70       1.0  0.13807  0.83690  0.59189  1.0000
  S   S71       1.0  0.22178  0.84387  0.61181  1.0000
  H   H237      1.0  0.15612  0.66815  0.64065  1.0000
  C   C153      1.0  0.10544  0.69267  0.44240  1.0000
  H   H238      1.0  0.13787  0.77614  0.58985  1.0000
  C   C154      1.0  0.07952  0.85107  0.51086  1.0000
  C   C155      1.0  0.06787  0.84293  0.53926  1.0000
  C   C156      1.0  0.08613  0.83834  0.56381  1.0000
  C   C157      1.0  0.11630  0.84089  0.56002  1.0000
  C   C158      1.0  0.12814  0.84793  0.53141  1.0000
  C   C159      1.0  0.10974  0.85351  0.50709  1.0000
  H   H239      1.0  0.04472  0.84094  0.54233  1.0000
  H   H240      1.0  0.07687  0.83302  0.58590  1.0000
  H   H241      1.0  0.15130  0.85007  0.52819  1.0000
  H   H242      1.0  0.11895  0.86021  0.48537  1.0000
  H   H243      1.0  0.12102  0.67663  0.43455  1.0000
  N   N14       1.0  0.13342  0.73655  0.57092  1.0000
  H   H244      1.0  0.25143  0.90931  0.45094  1.0000
  S   S72       1.0  0.21355  0.81371  0.54931  1.0000
  H   H245      1.0  0.25374  0.77748  0.51404  1.0000
  Fe  Fe34      1.0  0.06424  0.73091  0.35401  1.0000
  H   H246      1.0  0.09526  0.71342  0.58176  1.0000
  N   N15       1.0  0.10366  0.81147  0.41023  1.0000
  C   C160      1.0  0.12174  0.82609  0.42999  1.0000
  C   C161      1.0  0.11733  0.78320  0.40519  1.0000
  C   C162      1.0  0.10116  0.82816  0.38124  1.0000
  C   C163      1.0  0.07444  0.80864  0.42462  1.0000
  H   H247      1.0  0.15963  0.90244  0.54860  1.0000
  H   H248      1.0  0.09033  0.84939  0.38412  1.0000
  H   H249      1.0  0.11923  0.76989  0.42657  1.0000
  H   H250      1.0  0.10439  0.77167  0.39009  1.0000
  H   H251      1.0  0.13953  0.78460  0.39460  1.0000
  C   C164      1.0  0.19718  0.94246  0.53418  1.0000
  H   H252      1.0  0.08823  0.81754  0.36540  1.0000
  C   C165      1.0  0.10027  0.69487  0.47311  1.0000
  H   H253      1.0  0.11188  0.68048  0.48881  1.0000
  C   C166      1.0  0.09356  0.65788  0.32221  1.0000
  C   C167      1.0  0.14123  0.67609  0.32320  1.0000
  H   H254      1.0  0.21560  0.95185  0.52091  1.0000
  C   C168      1.0  0.06962  0.73110  0.43212  1.0000
  H   H255      1.0  0.16205  0.72415  0.53432  1.0000
  H   H256      1.0  0.09816  0.74343  0.60312  1.0000
  C   C169      1.0  0.14137  0.76621  0.56817  1.0000
  H   H257      1.0  0.14799  0.72874  0.61587  1.0000
  C   C170      1.0  0.08967  0.71033  0.42194  1.0000
  H   H258      1.0  0.21762  0.87369  0.52487  1.0000
  H   H259      1.0  0.14371  0.66806  0.34696  1.0000
  H   H260      1.0  0.06318  0.82964  0.42764  1.0000
  H   H261      1.0  0.12609  0.73667  0.52384  1.0000
  C   C171      1.0  0.06468  0.73355  0.46300  1.0000
  C   C172      1.0  0.13861  0.72438  0.54158  1.0000
  H   H262      1.0  0.13182  0.70234  0.54231  1.0000
  H   H263      1.0  0.16456  0.76788  0.56062  1.0000
  S   S73       1.0  0.09451  0.70497  0.38388  1.0000
  C   C173      1.0  0.07953  0.71491  0.48342  1.0000
  C   C174      1.0  0.15134  0.72023  0.59340  1.0000
  H   H264      1.0  0.14555  0.69780  0.59578  1.0000
  Fe  Fe35      1.0  0.23316  0.80072  0.63289  1.0000
  N   N16       1.0  0.20454  0.91274  0.54427  1.0000
  Fe  Fe36      1.0  0.07272  0.66824  0.53610  1.0000
  S   S74       1.0  0.07019  0.71409  0.52161  1.0000
  H   H265      1.0  0.04826  0.74876  0.47105  1.0000
  H   H266      1.0  0.05728  0.74461  0.41631  1.0000
  C   C175      1.0  0.10241  0.73543  0.58053  1.0000
  H   H267      1.0  0.22992  0.90427  0.50423  1.0000
  H   H268      1.0  0.12797  0.77903  0.55151  1.0000
  H   H269      1.0  0.22943  0.69275  0.50579  1.0000
  C   C176      1.0  0.23921  0.71164  0.49633  1.0000
  H   H270      1.0  0.18409  0.87853  0.56914  1.0000
  H   H271      1.0  0.24958  0.69451  0.45369  1.0000
  H   H272      1.0  0.23207  0.75760  0.34758  1.0000
  H   H273      1.0  0.12728  0.77870  0.33067  1.0000
  Fe  Fe37      1.0  0.22617  0.77287  0.57430  1.0000
  C   C177      1.0  0.17961  0.90113  0.56187  1.0000
  H   H274      1.0  0.11181  0.84745  0.43423  1.0000
  H   H275      1.0  0.12392  0.81420  0.45218  1.0000
  H   H276      1.0  0.14400  0.82872  0.41995  1.0000
  H   H277      1.0  0.19236  0.89636  0.50329  1.0000
  H   H278      1.0  0.12291  0.83134  0.37015  1.0000
  H   H279      1.0  0.08817  0.74833  0.56473  1.0000
  S   S75       1.0  0.02350  0.71443  0.33887  1.0000
  Fe  Fe38      1.0  0.25081  0.83001  0.57281  1.0000
  H   H280      1.0  0.22638  0.92395  0.58296  1.0000
  C   C178      1.0  0.21123  0.89604  0.51798  1.0000
  C   C179      1.0  0.24458  0.73814  0.34081  1.0000
  S   S76       1.0  0.22629  0.73268  0.55090  1.0000
  H   H281      1.0  0.24968  0.91909  0.55013  1.0000
  C   C180      1.0  0.25087  0.71255  0.46685  1.0000
  H   H282      1.0  0.17802  0.94438  0.51975  1.0000
  C   C181      1.0  0.13973  0.79628  0.32221  1.0000
  H   H283      1.0  0.17451  0.91265  0.58240  1.0000
  H   H284      1.0  0.23637  0.88935  0.57123  1.0000
  C   C182      1.0  0.24027  0.73494  0.51358  1.0000
  C   C183      1.0  0.18542  0.82005  0.31894  1.0000
  H   H285      1.0  0.19218  0.95566  0.55350  1.0000
  S   S77       1.0  0.22169  0.82074  0.33007  1.0000
  C   C184      1.0  0.01672  0.67662  0.42306  1.0000
  H   H286      1.0  0.17885  0.78040  0.34392  1.0000
  H   H287      1.0  0.01366  0.86334  0.58110  1.0000
  C   C185      1.0  0.16896  0.79730  0.32969  1.0000
  H   H288      1.0  0.03299  0.68321  0.43849  1.0000
  H   H289      1.0  0.25519  0.72827  0.36115  1.0000
  H   H290      1.0  0.22875  0.72332  0.33392  1.0000
  H   H291      1.0  0.02814  0.81274  0.59010  1.0000
  H   H292      1.0  0.02590  0.68027  0.39984  1.0000
  C   C186      1.0  0.25268  0.75941  0.50093  1.0000
  H   H293      1.0  0.08282  0.67939  0.32200  1.0000
  H   H294      1.0  0.13179  0.69812  0.32345  1.0000
  H   H295      1.0  0.02826  0.84531  0.63192  1.0000
  H   H296      1.0  0.01468  0.65355  0.42778  1.0000
  Fe  Fe39      1.0  0.05396  0.70458  0.67315  1.0000
  C   C187      1.0  0.23243  0.79899  0.71616  1.0000
  H   H297      1.0  0.16198  0.67347  0.87710  1.0000
  C   C188      1.0  0.09648  0.74591  0.72461  1.0000
  H   H298      1.0  0.23286  0.66607  0.69962  1.0000
  C   C189      1.0  0.10637  0.78229  0.68600  1.0000
  H   H299      1.0  0.24142  0.67642  0.88721  1.0000
  H   H300      1.0  0.16010  0.85123  0.83975  1.0000
  C   C190      1.0  0.08860  0.84540  0.85888  1.0000
  C   C191      1.0  0.22869  0.69700  0.88747  1.0000
  H   H301      1.0  0.08964  0.85188  0.88216  1.0000
  H   H302      1.0  0.13989  0.86447  0.87113  1.0000
  Fe  Fe40      1.0  0.03816  0.85900  0.93666  1.0000
  S   S78       1.0  0.06630  0.89549  0.94114  1.0000
  S   S79       1.0  0.05138  0.81341  0.94736  1.0000
  Fe  Fe41      1.0  0.22386  0.83862  0.90957  1.0000
  S   S80       1.0  0.20365  0.87753  0.93002  1.0000
  S   S81       1.0  0.19758  0.80290  0.89936  1.0000
  H   H303      1.0  0.25265  0.78965  0.78859  1.0000
  C   C192      1.0  0.23918  0.79605  0.77005  1.0000
  H   H304      1.0  0.24492  0.96971  0.86073  1.0000
  H   H305      1.0  0.24338  0.67399  0.73592  1.0000
  C   C193      1.0  0.10435  0.88908  0.93908  1.0000
  C   C194      1.0  0.12193  0.91181  0.94078  1.0000
  H   H306      1.0  0.25169  0.68432  0.78789  1.0000
  C   C195      1.0  0.16542  0.88102  0.93435  1.0000
  C   C196      1.0  0.14794  0.85807  0.93327  1.0000
  C   C197      1.0  0.11741  0.86207  0.93572  1.0000
  H   H307      1.0  0.02368  0.75027  0.96050  1.0000
  H   H308      1.0  0.19899  0.67946  0.77955  1.0000
  C   C198      1.0  0.15226  0.90770  0.93885  1.0000
  C   C199      1.0  0.24518  0.72561  0.80487  1.0000
  C   C200      1.0  0.22416  0.74554  0.81450  1.0000
  C   C201      1.0  0.19459  0.74281  0.81003  1.0000
  C   C202      1.0  0.18538  0.71952  0.79678  1.0000
  S   S82       1.0  0.19798  0.81363  0.81272  1.0000
  C   C203      1.0  0.23580  0.70078  0.79399  1.0000
  H   H309      1.0  0.23074  0.76362  0.82479  1.0000
  H   H310      1.0  0.17874  0.75924  0.81623  1.0000
  S   S83       1.0  0.10081  0.69705  0.65544  1.0000
  C   C204      1.0  0.20593  0.69781  0.78965  1.0000
  S   S84       1.0  0.03765  0.69779  0.72106  1.0000
  H   H311      1.0  0.25019  0.93759  0.88390  1.0000
  C   C205      1.0  0.22027  0.72085  0.70904  1.0000
  H   H312      1.0  0.07150  0.94606  0.97785  1.0000
  C   C206      1.0  0.13789  0.85806  0.84794  1.0000
  H   H313      1.0  0.14198  0.73561  0.68658  1.0000
  S   S85       1.0  0.10001  0.68995  0.85311  1.0000
  S   S86       1.0  0.07685  0.67916  0.78660  1.0000
  H   H314      1.0  0.04124  0.73491  0.77839  1.0000
  H   H315      1.0  0.10719  0.84618  0.80109  1.0000
  C   C207      1.0  0.24947  0.79126  0.74086  1.0000
  H   H316      1.0  0.13902  0.80132  0.72729  1.0000
  H   H317      1.0  0.22582  0.93256  0.93382  1.0000
  C   C208      1.0  0.12309  0.67494  0.70909  1.0000
  H   H318      1.0  0.07944  0.86389  0.84503  1.0000
  C   C209      1.0  0.03471  0.73060  0.95253  1.0000
  H   H319      1.0  0.10335  0.68333  0.71976  1.0000
  H   H320      1.0  0.21845  0.74304  0.69979  1.0000
  S   S87       1.0  0.24666  0.78978  0.68041  1.0000
  S   S88       1.0  0.14894  0.72042  0.78608  1.0000
  C   C210      1.0  0.12809  0.81023  0.86551  1.0000
  H   H321      1.0  0.13048  0.81515  0.88915  1.0000
  H   H322      1.0  0.11286  0.79290  0.86562  1.0000
  H   H323      1.0  0.14963  0.80185  0.85674  1.0000
  H   H324      1.0  0.09974  0.81069  0.81456  1.0000
  H   H325      1.0  0.13653  0.81996  0.80629  1.0000
  C   C211      1.0  0.12346  0.78543  0.73584  1.0000
  C   C212      1.0  0.14540  0.75035  0.70417  1.0000
  H   H326      1.0  0.18804  0.68624  0.84957  1.0000
  C   C213      1.0  0.22142  0.95587  0.93290  1.0000
  H   H327      1.0  0.10300  0.79687  0.74345  1.0000
  H   H328      1.0  0.15437  0.73742  0.72371  1.0000
  H   H329      1.0  0.16229  0.76493  0.69555  1.0000
  H   H330      1.0  0.10469  0.73261  0.74423  1.0000
  Fe  Fe42      1.0  0.22407  0.80357  0.85558  1.0000
  N   N17       1.0  0.11746  0.83539  0.84702  1.0000
  C   C214      1.0  0.11507  0.82776  0.81582  1.0000
  C   C215      1.0  0.21161  0.80867  0.77542  1.0000
  H   H331      1.0  0.07297  0.82852  0.85938  1.0000
  N   N18       1.0  0.11795  0.76601  0.71266  1.0000
  C   C216      1.0  0.18155  0.72114  0.89444  1.0000
  H   H332      1.0  0.09122  0.73155  0.70739  1.0000
  H   H333      1.0  0.07579  0.75698  0.73203  1.0000
  C   C217      1.0  0.20464  0.81194  0.72110  1.0000
  H   H334      1.0  0.23192  0.70824  0.86508  1.0000
  C   C218      1.0  0.10111  0.67847  0.95641  1.0000
  H   H335      1.0  0.13302  0.77381  0.75591  1.0000
  C   C219      1.0  0.19433  0.81681  0.75068  1.0000
  Fe  Fe43      1.0  0.23375  0.77540  0.92054  1.0000
  H   H336      1.0  0.04254  0.67317  0.95223  1.0000
  H   H337      1.0  0.21633  0.72130  0.73364  1.0000
  C   C220      1.0  0.14456  0.66067  0.72669  1.0000
  C   C221      1.0  0.03865  0.75357  0.79085  1.0000
  C   C222      1.0  0.03135  0.80166  0.82364  1.0000
  N   N19       1.0  0.19755  0.69324  0.89487  1.0000
  H   H338      1.0  0.10211  0.76812  0.66811  1.0000
  H   H339      1.0  0.08545  0.79407  0.69165  1.0000
  H   H340      1.0  0.04319  0.69002  0.91496  1.0000
  H   H341      1.0  0.13074  0.87716  0.83379  1.0000
  C   C223      1.0  0.04620  0.75232  0.82097  1.0000
  N   N20       1.0  0.21873  0.96781  0.90174  1.0000
  H   H342      1.0  0.18981  0.73452  0.91123  1.0000
  H   H343      1.0  0.04965  0.72201  0.97025  1.0000
  C   C224      1.0  0.18557  0.67614  0.87256  1.0000
  C   C225      1.0  0.02762  0.77894  0.77705  1.0000
  H   H344      1.0  0.05466  0.73264  0.83160  1.0000
  H   H345      1.0  0.14117  0.65876  0.75066  1.0000
  H   H346      1.0  0.19128  0.81824  0.70225  1.0000
  H   H347      1.0  0.17308  0.82706  0.75445  1.0000
  H   H348      1.0  0.20234  0.70963  0.70013  1.0000
  C   C226      1.0  0.04205  0.77617  0.83760  1.0000
  H   H349      1.0  0.01342  0.66936  0.92802  1.0000
  Fe  Fe44      1.0  0.11930  0.68790  0.80646  1.0000
  C   C227      1.0  0.24905  0.67698  0.71158  1.0000
  Fe  Fe45      1.0  0.05900  0.67629  0.83431  1.0000
  C   C228      1.0  0.12704  0.67785  0.67799  1.0000
  H   H350      1.0  0.01637  0.82291  0.78256  1.0000
  S   S89       1.0  0.05109  0.77378  0.87549  1.0000
  H   H351      1.0  0.12192  0.79783  0.67638  1.0000
  S   S90       1.0  0.25785  0.81138  0.93346  1.0000
  H   H352      1.0  0.02846  0.82030  0.83608  1.0000
  H   H353      1.0  0.09688  0.70106  0.95624  1.0000
  H   H354      1.0  0.20130  0.96038  0.94672  1.0000
  S   S91       1.0  0.03522  0.74928  0.66754  1.0000
  C   C229      1.0  0.02453  0.80311  0.79333  1.0000
  S   S92       1.0  0.24965  0.83979  0.86591  1.0000
  H   H355      1.0  0.19706  0.93210  0.88885  1.0000
  S   S93       1.0  0.22991  0.74021  0.95738  1.0000
  S   S94       1.0  0.02011  0.85212  0.89219  1.0000
  H   H356      1.0  0.11872  0.68007  0.91134  1.0000
  H   H357      1.0  0.05972  0.96420  0.92627  1.0000
  S   S95       1.0  0.25731  0.77134  0.87610  1.0000
  Fe  Fe46      1.0  0.01704  0.74185  0.71434  1.0000
  H   H358      1.0  0.23976  0.96475  0.94370  1.0000
  H   H359      1.0  0.15786  0.83721  0.93115  1.0000
  Fe  Fe47      1.0  0.02993  0.80627  0.90477  1.0000
  C   C230      1.0  0.15289  0.66632  0.66471  1.0000
  H   H360      1.0  0.10409  0.84427  0.93518  1.0000
  H   H361      1.0  0.11213  0.93272  0.94357  1.0000
  H   H362      1.0  0.20334  0.69090  0.94237  1.0000
  C   C231      1.0  0.24588  0.96088  0.88434  1.0000
  N   N21       1.0  0.24903  0.70713  0.70153  1.0000
  C   C232      1.0  0.19434  0.67868  0.92497  1.0000
  H   H363      1.0  0.17112  0.67585  0.93145  1.0000
  N   N22       1.0  0.01344  0.70993  0.94640  1.0000
  H   H364      1.0  0.16553  0.92532  0.94077  1.0000
  H   H365      1.0  0.23846  0.70977  0.90392  1.0000
  C   C233      1.0  0.11335  0.66654  0.93080  1.0000
  H   H366      1.0  0.15791  0.71911  0.89960  1.0000
  C   C234      1.0  0.02886  0.68452  0.93493  1.0000
  H   H367      1.0  0.23766  0.70047  0.65660  1.0000
  S   S96       1.0  0.01771  0.78136  0.73950  1.0000
  H   H368      1.0  0.04819  0.73655  0.93210  1.0000
  H   H369      1.0  0.18386  0.73283  0.87214  1.0000
  S   S97       1.0  0.01486  0.68690  0.65391  1.0000
  H   H370      1.0  0.25533  0.73255  0.66044  1.0000
  S   S98       1.0  0.01469  0.68928  0.85506  1.0000
  H   H371      1.0  0.19206  0.96343  0.86430  1.0000
  C   C235      1.0  0.19414  0.95558  0.88814  1.0000
  H   H372      1.0  0.17316  0.96102  0.90018  1.0000
  H   H373      1.0  0.02240  0.94168  0.95954  1.0000
  C   C236      1.0  0.25478  0.70996  0.66877  1.0000
  H   H374      1.0  0.20567  0.65736  0.92591  1.0000
  C   C237      1.0  0.01609  0.96274  0.96805  1.0000
  H   H375      1.0  0.19653  0.65466  0.87266  1.0000
  N   N23       1.0  0.04111  0.98087  0.96664  1.0000
  C   C238      1.0  0.09343  0.66123  0.98176  1.0000
  H   H376      1.0  0.24283  0.65224  0.98062  1.0000
  C   C239      1.0  0.17425  0.65153  0.68237  1.0000
  C   C240      1.0  0.05225  0.98476  0.93528  1.0000
  S   S99       1.0  0.30607  0.99433  0.03619  1.0000
  S   S100      1.0  0.50854  0.27484  0.06618  1.0000
  Fe  Fe48      1.0  0.34043  0.98547  0.00019  1.0000
  C   C241      1.0  0.36108  0.08676  0.00792  1.0000
  S   S101      1.0  0.38590  0.00034  0.00585  1.0000
  H   H377      1.0  0.29605  0.06427  0.03581  1.0000
  C   C242      1.0  0.31930  0.06949  0.03626  1.0000
  H   H378      1.0  0.33212  0.04970  0.04326  1.0000
  H   H379      1.0  0.44119  0.02290  0.01324  1.0000
  C   C243      1.0  0.43308  0.03210  0.99220  1.0000
  Fe  Fe49      1.0  0.27493  0.99986  0.99807  1.0000
  H   H380      1.0  0.37427  0.06704  0.01443  1.0000
  H   H381      1.0  0.32107  0.08448  0.05396  1.0000
  N   N24       1.0  0.32988  0.08142  0.00671  1.0000
  H   H382      1.0  0.36481  0.10234  0.02453  1.0000
  H   H383      1.0  0.31525  0.12391  0.01547  1.0000
  C   C244      1.0  0.40617  0.02447  0.98260  1.0000
  C   C245      1.0  0.31301  0.10808  0.99870  1.0000
  H   H384      1.0  0.28939  0.10457  0.99753  1.0000
  H   H385      1.0  0.30274  0.05676  0.98222  1.0000
  C   C246      1.0  0.32606  0.06116  0.98391  1.0000
  H   H386      1.0  0.33820  0.04072  0.98955  1.0000
  H   H387      1.0  0.47022  0.05754  0.98271  1.0000
  H   H388      1.0  0.37009  0.09500  0.98576  1.0000
  Fe  Fe50      1.0  0.33318  0.01393  0.54557  1.0000
  S   S102      1.0  0.37155  0.04077  0.53155  1.0000
  H   H389      1.0  0.29684  0.14326  0.57807  1.0000
  S   S103      1.0  0.30989  0.01852  0.58972  1.0000
  S   S104      1.0  0.29191  0.02015  0.51982  1.0000
  H   H390      1.0  0.34864  0.13376  0.56053  1.0000
  C   C247      1.0  0.50345  0.23324  0.62829  1.0000
  C   C248      1.0  0.29030  0.13041  0.55994  1.0000
  S   S105      1.0  0.47235  0.07011  0.61580  1.0000
  H   H391      1.0  0.41839  0.07798  0.52207  1.0000
  H   H392      1.0  0.33521  0.07265  0.57605  1.0000
  H   H393      1.0  0.35778  0.10474  0.53773  1.0000
  C   C249      1.0  0.34039  0.12121  0.54299  1.0000
  C   C250      1.0  0.39894  0.04937  0.55552  1.0000
  C   C251      1.0  0.40074  0.03737  0.58482  1.0000
  C   C252      1.0  0.42319  0.04427  0.60293  1.0000
  C   C253      1.0  0.44383  0.06352  0.59221  1.0000
  C   C254      1.0  0.44183  0.07580  0.56301  1.0000
  C   C255      1.0  0.41956  0.06863  0.54474  1.0000
  H   H394      1.0  0.38499  0.02262  0.59347  1.0000
  H   H395      1.0  0.42453  0.03466  0.62549  1.0000
  H   H396      1.0  0.45757  0.09057  0.55440  1.0000
  S   S106      1.0  0.50537  0.14569  0.62878  1.0000
  C   C256      1.0  0.30315  0.09165  0.52922  1.0000
  H   H397      1.0  0.49801  0.21273  0.62002  1.0000
  H   H398      1.0  0.29789  0.07935  0.58855  1.0000
  N   N25       1.0  0.31301  0.10827  0.55312  1.0000
  H   H399      1.0  0.33746  0.13536  0.52237  1.0000
  H   H400      1.0  0.29883  0.10504  0.50836  1.0000
  C   C257      1.0  0.31812  0.08960  0.58037  1.0000
  H   H401      1.0  0.31977  0.07480  0.52337  1.0000
  H   H402      1.0  0.32553  0.10139  0.59893  1.0000
  H   H403      1.0  0.28576  0.14490  0.53990  1.0000
  Fe  Fe51      1.0  0.26844  0.02200  0.56476  1.0000
  H   H404      1.0  0.48285  0.24646  0.63052  1.0000
  H   H405      1.0  0.26945  0.12092  0.56757  1.0000
  H   H406      1.0  0.28276  0.08121  0.53623  1.0000
  H   H407      1.0  0.49354  0.02778  0.56773  1.0000
  Fe  Fe52      1.0  0.50833  0.10133  0.61416  1.0000
  S   S107      1.0  0.31009  0.99402  0.96211  1.0000
  H   H408      1.0  0.44491  0.05741  0.83176  1.0000
  H   H409      1.0  0.37557  0.03062  0.94742  1.0000
  C   C258      1.0  0.44807  0.07879  0.83917  1.0000
  N   N26       1.0  0.47858  0.08643  0.83416  1.0000
  S   S108      1.0  0.45873  0.08959  0.92559  1.0000
  H   H410      1.0  0.48464  0.06512  0.79335  1.0000
  H   H411      1.0  0.40420  0.06589  0.91738  1.0000
  C   C259      1.0  0.49781  0.06584  0.85134  1.0000
  C   C260      1.0  0.48161  0.11491  0.84436  1.0000
  H   H412      1.0  0.50578  0.27065  0.67025  1.0000
  Fe  Fe53      1.0  0.50429  0.10465  0.93189  1.0000
  H   H413      1.0  0.33412  0.06919  0.96134  1.0000
  C   C261      1.0  0.44960  0.05179  0.97497  1.0000
  C   C262      1.0  0.43926  0.06420  0.94796  1.0000
  C   C263      1.0  0.39596  0.03661  0.95540  1.0000
  H   H414      1.0  0.43291  0.09408  0.82681  1.0000
  C   C264      1.0  0.48688  0.08622  0.80192  1.0000
  C   C265      1.0  0.41235  0.05650  0.93830  1.0000
  H   H415      1.0  0.47397  0.11620  0.86815  1.0000
  H   H416      1.0  0.47320  0.10188  0.78826  1.0000
  H   H417      1.0  0.50469  0.12060  0.84281  1.0000
  H   H418      1.0  0.47858  0.22771  0.68371  1.0000
  H   H419      1.0  0.46875  0.13133  0.83085  1.0000
  H   H420      1.0  0.49618  0.04408  0.84428  1.0000
  H   H421      1.0  0.49207  0.06547  0.87577  1.0000
  H   H422      1.0  0.44134  0.07866  0.86341  1.0000
  H   H423      1.0  0.49356  0.19395  0.67309  1.0000
  C   C266      1.0  0.49925  0.21496  0.67985  1.0000
  H   H424      1.0  0.32041  0.11759  0.97647  1.0000
  H   H425      1.0  0.50990  0.09162  0.79756  1.0000
  Fe  Fe54      1.0  0.26606  0.51519  0.04275  1.0000
  C   C267      1.0  0.31416  0.57645  0.26167  1.0000
  C   C268      1.0  0.29000  0.60888  0.02125  1.0000
  C   C269      1.0  0.29253  0.53942  0.29268  1.0000
  H   H426      1.0  0.39504  0.61481  0.28486  1.0000
  Fe  Fe55      1.0  0.29261  0.46162  0.01823  1.0000
  S   S109      1.0  0.32778  0.42663  0.02783  1.0000
  S   S110      1.0  0.29956  0.50741  0.00597  1.0000
  Fe  Fe56      1.0  0.49136  0.38410  0.06880  1.0000
  S   S111      1.0  0.46439  0.42272  0.04951  1.0000
  H   H427      1.0  0.29324  0.58265  0.25084  1.0000
  H   H428      1.0  0.42812  0.32943  0.30939  1.0000
  C   C270      1.0  0.29299  0.58616  0.31035  1.0000
  H   H429      1.0  0.28319  0.61503  0.04417  1.0000
  H   H430      1.0  0.32220  0.55429  0.09977  1.0000
  S   S112      1.0  0.37571  0.61572  0.05403  1.0000
  H   H431      1.0  0.47304  0.39191  0.31059  1.0000
  H   H432      1.0  0.46520  0.48730  0.05675  1.0000
  H   H433      1.0  0.39960  0.53324  0.08235  1.0000
  S   S113      1.0  0.31610  0.62082  0.11885  1.0000
  H   H434      1.0  0.27189  0.59285  0.30026  1.0000
  H   H435      1.0  0.39782  0.37358  0.29705  1.0000
  C   C271      1.0  0.37679  0.62585  0.27389  1.0000
  C   C272      1.0  0.37574  0.62657  0.24262  1.0000
  H   H436      1.0  0.32617  0.56097  0.24757  1.0000
  C   C273      1.0  0.26054  0.58397  0.11798  1.0000
  H   H437      1.0  0.42952  0.38974  0.28072  1.0000
  H   H438      1.0  0.47312  0.50695  0.08812  1.0000
  H   H439      1.0  0.39316  0.61609  0.22991  1.0000
  H   H440      1.0  0.41876  0.63229  0.15429  1.0000
  C   C274      1.0  0.34515  0.54636  0.10262  1.0000
  C   C275      1.0  0.46145  0.58078  0.09351  1.0000
  C   C276      1.0  0.43653  0.58386  0.11232  1.0000
  C   C277      1.0  0.41022  0.59546  0.10063  1.0000
  C   C278      1.0  0.40850  0.60265  0.06985  1.0000
  C   C279      1.0  0.43322  0.59875  0.05104  1.0000
  C   C280      1.0  0.45974  0.58845  0.06290  1.0000
  H   H441      1.0  0.43779  0.57816  0.13606  1.0000
  H   H442      1.0  0.39128  0.59872  0.11538  1.0000
  H   H443      1.0  0.43205  0.60442  0.02727  1.0000
  H   H444      1.0  0.47892  0.58655  0.04824  1.0000
  C   C281      1.0  0.36557  0.42668  0.03458  1.0000
  C   C282      1.0  0.38006  0.40141  0.04550  1.0000
  C   C283      1.0  0.41013  0.39997  0.05051  1.0000
  C   C284      1.0  0.42622  0.42379  0.04436  1.0000
  C   C285      1.0  0.41175  0.44918  0.03354  1.0000
  C   C286      1.0  0.38157  0.45068  0.02876  1.0000
  H   H445      1.0  0.36796  0.38269  0.04991  1.0000
  H   H446      1.0  0.42088  0.38028  0.05872  1.0000
  H   H447      1.0  0.42404  0.46761  0.02823  1.0000
  H   H448      1.0  0.37086  0.47005  0.01973  1.0000
  H   H449      1.0  0.32896  0.54663  0.04612  1.0000
  H   H450      1.0  0.29611  0.58591  0.02323  1.0000
  H   H451      1.0  0.45951  0.34600  0.29293  1.0000
  C   C287      1.0  0.33760  0.55739  0.30654  1.0000
  H   H452      1.0  0.30433  0.52283  0.27984  1.0000
  N   N27       1.0  0.35431  0.52531  0.08083  1.0000
  H   H453      1.0  0.27124  0.54446  0.28203  1.0000
  H   H454      1.0  0.31229  0.50789  0.08187  1.0000
  S   S114      1.0  0.47610  0.34861  0.10041  1.0000
  Fe  Fe57      1.0  0.34504  0.64079  0.08378  1.0000
  H   H455      1.0  0.34690  0.53740  0.12612  1.0000
  H   H456      1.0  0.33705  0.49057  0.10792  1.0000
  C   C288      1.0  0.26176  0.55657  0.10879  1.0000
  C   C289      1.0  0.41671  0.38572  0.30209  1.0000
  H   H457      1.0  0.34158  0.48488  0.06874  1.0000
  H   H458      1.0  0.35799  0.52316  0.03301  1.0000
  C   C290      1.0  0.35168  0.53848  0.05012  1.0000
  Fe  Fe58      1.0  0.27937  0.65070  0.10164  1.0000
  C   C291      1.0  0.47483  0.64456  0.14856  1.0000
  H   H459      1.0  0.47100  0.62318  0.14151  1.0000
  H   H460      1.0  0.26097  0.51255  0.12364  1.0000
  H   H461      1.0  0.35846  0.56512  0.09965  1.0000
  H   H462      1.0  0.50514  0.46692  0.02524  1.0000
  H   H463      1.0  0.48044  0.46925  0.08925  1.0000
  C   C292      1.0  0.33555  0.50111  0.08503  1.0000
  H   H464      1.0  0.30994  0.62002  0.01414  1.0000
  H   H465      1.0  0.36576  0.55668  0.04610  1.0000
  H   H466      1.0  0.39242  0.49944  0.06941  1.0000
  N   N28       1.0  0.30934  0.56485  0.29282  1.0000
  C   C293      1.0  0.38491  0.51542  0.08547  1.0000
  H   H467      1.0  0.30523  0.60547  0.31140  1.0000
  N   N29       1.0  0.26639  0.61547  0.00009  1.0000
  H   H468      1.0  0.32673  0.59555  0.26077  1.0000
  H   H469      1.0  0.38771  0.50545  0.10847  1.0000
  C   C294      1.0  0.35444  0.63892  0.29104  1.0000
  H   H470      1.0  0.40805  0.40649  0.30965  1.0000
  H   H471      1.0  0.43935  0.64651  0.10275  1.0000
  H   H472      1.0  0.50320  0.53819  0.05481  1.0000
  C   C295      1.0  0.48102  0.48910  0.07452  1.0000
  S   S115      1.0  0.35210  0.63799  0.18817  1.0000
  S   S116      1.0  0.49509  0.56870  0.10827  1.0000
  S   S117      1.0  0.26837  0.55271  0.07014  1.0000
  C   C296      1.0  0.44602  0.34297  0.31399  1.0000
  H   H473      1.0  0.35080  0.54166  0.29373  1.0000
  C   C297      1.0  0.35218  0.64015  0.22769  1.0000
  S   S118      1.0  0.50928  0.63908  0.07159  1.0000
  H   H474      1.0  0.35054  0.57632  0.30736  1.0000
  H   H475      1.0  0.49501  0.51901  0.02345  1.0000
  S   S119      1.0  0.26187  0.46998  0.05749  1.0000
  H   H476      1.0  0.48048  0.64239  0.17255  1.0000
  C   C298      1.0  0.26082  0.64640  0.99603  1.0000
  H   H477      1.0  0.26247  0.60130  0.10139  1.0000
  S   S120      1.0  0.50993  0.37356  0.17830  1.0000
  C   C299      1.0  0.45936  0.38720  0.33115  1.0000
  H   H478      1.0  0.28850  0.35149  0.47604  1.0000
  Fe  Fe59      1.0  0.26353  0.49050  0.48191  1.0000
  S   S121      1.0  0.48507  0.32348  0.39015  1.0000
  Fe  Fe60      1.0  0.29087  0.43990  0.44969  1.0000
  S   S122      1.0  0.32387  0.40197  0.44989  1.0000
  S   S123      1.0  0.29636  0.48667  0.44304  1.0000
  C   C300      1.0  0.33287  0.55330  0.46834  1.0000
  S   S124      1.0  0.45861  0.40133  0.40846  1.0000
  H   H479      1.0  0.31920  0.59939  0.52245  1.0000
  H   H480      1.0  0.36298  0.53224  0.51583  1.0000
  H   H481      1.0  0.31278  0.60554  0.48323  1.0000
  H   H482      1.0  0.37263  0.59550  0.50694  1.0000
  S   S125      1.0  0.33905  0.61921  0.41228  1.0000
  H   H483      1.0  0.27699  0.34922  0.51502  1.0000
  Fe  Fe61      1.0  0.29248  0.63163  0.42530  1.0000
  C   C301      1.0  0.36681  0.58364  0.48771  1.0000
  H   H484      1.0  0.28825  0.57789  0.33381  1.0000
  C   C302      1.0  0.27230  0.35999  0.49277  1.0000
  C   C303      1.0  0.47542  0.61751  0.48205  1.0000
  C   C304      1.0  0.45677  0.60890  0.46084  1.0000
  C   C305      1.0  0.42858  0.62168  0.45789  1.0000
  C   C306      1.0  0.26919  0.52440  0.55463  1.0000
  C   C307      1.0  0.41870  0.64289  0.47651  1.0000
  H   H485      1.0  0.26440  0.48248  0.61930  1.0000
  H   H486      1.0  0.46439  0.59260  0.44625  1.0000
  H   H487      1.0  0.41460  0.61517  0.44118  1.0000
  H   H488      1.0  0.29471  0.57839  0.50450  1.0000
  N   N30       1.0  0.34005  0.56843  0.49454  1.0000
  H   H489      1.0  0.27354  0.56937  0.55314  1.0000
  H   H490      1.0  0.38566  0.56898  0.48211  1.0000
  C   C308      1.0  0.26661  0.49996  0.57349  1.0000
  Fe  Fe62      1.0  0.49391  0.36541  0.40676  1.0000
  C   C309      1.0  0.31572  0.58884  0.50166  1.0000
  H   H491      1.0  0.39841  0.35206  0.34950  1.0000
  C   C310      1.0  0.36135  0.40226  0.43838  1.0000
  C   C311      1.0  0.37873  0.37687  0.44044  1.0000
  C   C312      1.0  0.40855  0.37616  0.43166  1.0000
  C   C313      1.0  0.42135  0.40091  0.42066  1.0000
  C   C314      1.0  0.40392  0.42624  0.41838  1.0000
  C   C315      1.0  0.37413  0.42696  0.42719  1.0000
  H   H492      1.0  0.36913  0.35763  0.44909  1.0000
  H   H493      1.0  0.42163  0.35651  0.43361  1.0000
  H   H494      1.0  0.41356  0.44551  0.40987  1.0000
  H   H495      1.0  0.36110  0.44664  0.42543  1.0000
  S   S126      1.0  0.26824  0.52427  0.51509  1.0000
  C   C316      1.0  0.26667  0.50146  0.60482  1.0000
  H   H496      1.0  0.27654  0.38265  0.49389  1.0000
  H   H497      1.0  0.32513  0.53587  0.52609  1.0000
  H   H498      1.0  0.34968  0.55857  0.54082  1.0000
  C   C317      1.0  0.43716  0.65119  0.49806  1.0000
  C   C318      1.0  0.43359  0.63390  0.59515  1.0000
  C   C319      1.0  0.46666  0.63386  0.63552  1.0000
  C   C320      1.0  0.27252  0.55165  0.59870  1.0000
  C   C321      1.0  0.34475  0.54792  0.52047  1.0000
  H   H499      1.0  0.36409  0.59936  0.46836  1.0000
  C   C322      1.0  0.27206  0.55023  0.56743  1.0000
  H   H500      1.0  0.35073  0.53789  0.46189  1.0000
  H   H501      1.0  0.48234  0.64593  0.64701  1.0000
  H   H502      1.0  0.26432  0.47997  0.56400  1.0000
  C   C323      1.0  0.26964  0.52726  0.61759  1.0000
  S   S127      1.0  0.35807  0.63680  0.33046  1.0000
  H   H503      1.0  0.32824  0.56812  0.44861  1.0000
  H   H504      1.0  0.47967  0.64563  0.51694  1.0000
  H   H505      1.0  0.41542  0.62782  0.61101  1.0000
  H   H506      1.0  0.31285  0.54151  0.47296  1.0000
  H   H507      1.0  0.44453  0.61414  0.58718  1.0000
  H   H508      1.0  0.27461  0.57165  0.60824  1.0000
  H   H509      1.0  0.40792  0.38539  0.36170  1.0000
  H   H510      1.0  0.45175  0.40758  0.34046  1.0000
  C   C324      1.0  0.41696  0.36521  0.35294  1.0000
  S   S128      1.0  0.26458  0.59718  0.44575  1.0000
  H   H511      1.0  0.47891  0.61434  0.62861  1.0000
  H   H512      1.0  0.49013  0.63884  0.57998  1.0000
  H   H513      1.0  0.43012  0.35422  0.37100  1.0000
  C   C325      1.0  0.46546  0.63867  0.50073  1.0000
  H   H514      1.0  0.46011  0.33083  0.33051  1.0000
  N   N31       1.0  0.43475  0.37024  0.32505  1.0000
  H   H515      1.0  0.47365  0.37589  0.34798  1.0000
  H   H516      1.0  0.42398  0.64593  0.57537  1.0000
  H   H517      1.0  0.33452  0.54832  0.32999  1.0000
  Fe  Fe63      1.0  0.33307  0.65062  0.37258  1.0000
  S   S129      1.0  0.26057  0.44370  0.49042  1.0000
  N   N32       1.0  0.45432  0.65066  0.60957  1.0000
  H   H518      1.0  0.28805  0.53015  0.31581  1.0000
  Fe  Fe64      1.0  0.30313  0.61479  0.70736  1.0000
  S   S130      1.0  0.31402  0.56796  0.71298  1.0000
  H   H519      1.0  0.34682  0.64514  0.82429  1.0000
  H   H520      1.0  0.38317  0.64789  0.76566  1.0000
  H   H521      1.0  0.43020  0.61222  0.71527  1.0000
  Fe  Fe65      1.0  0.28451  0.56852  0.75471  1.0000
  C   C326      1.0  0.28990  0.51588  0.85411  1.0000
  H   H522      1.0  0.50830  0.63909  0.75371  1.0000
  S   S131      1.0  0.27695  0.61558  0.75100  1.0000
  C   C327      1.0  0.47350  0.59614  0.77039  1.0000
  H   H523      1.0  0.37725  0.60883  0.70946  1.0000
  H   H524      1.0  0.46390  0.57613  0.76565  1.0000
  C   C328      1.0  0.28163  0.51506  0.88487  1.0000
  H   H525      1.0  0.44948  0.62762  0.65243  1.0000
  H   H526      1.0  0.30113  0.49755  0.84506  1.0000
  C   C329      1.0  0.28385  0.54011  0.83501  1.0000
  C   C330      1.0  0.27506  0.60405  0.97097  1.0000
  H   H527      1.0  0.46772  0.60048  0.79407  1.0000
  C   C331      1.0  0.41681  0.63113  0.70967  1.0000
  H   H528      1.0  0.46282  0.61352  0.75611  1.0000
  S   S132      1.0  0.29531  0.53993  0.79651  1.0000
  S   S133      1.0  0.26414  0.61063  0.67918  1.0000
  H   H529      1.0  0.28651  0.49625  0.89918  1.0000
  C   C332      1.0  0.26954  0.56370  0.84714  1.0000
  C   C333      1.0  0.38679  0.62910  0.70622  1.0000
  H   H530      1.0  0.50358  0.56789  0.72815  1.0000
  C   C334      1.0  0.26116  0.56288  0.87789  1.0000
  C   C335      1.0  0.26722  0.53859  0.89700  1.0000
  Fe  Fe66      1.0  0.27329  0.56377  0.68770  1.0000
  H   H531      1.0  0.33416  0.64001  0.78774  1.0000
  H   H532      1.0  0.29509  0.61344  0.96106  1.0000
  N   N33       1.0  0.50534  0.59470  0.76470  1.0000
  Fe  Fe67      1.0  0.26182  0.50621  0.97569  1.0000
  H   H533      1.0  0.27955  0.58073  0.97338  1.0000
  H   H534      1.0  0.26549  0.58270  0.83292  1.0000
  H   H535      1.0  0.50305  0.60500  0.71726  1.0000
  S   S134      1.0  0.26825  0.52802  0.65715  1.0000
  H   H536      1.0  0.38303  0.77026  0.16626  1.0000
  H   H537      1.0  0.47388  0.70153  0.14046  1.0000
  S   S135      1.0  0.29609  0.91254  0.07540  1.0000
  H   H538      1.0  0.37769  0.80049  0.08859  1.0000
  Fe  Fe68      1.0  0.32035  0.84331  0.29367  1.0000
  S   S136      1.0  0.32366  0.88994  0.28539  1.0000
  S   S137      1.0  0.35784  0.81299  0.28065  1.0000
  Fe  Fe69      1.0  0.28247  0.88971  0.26041  1.0000
  H   H539      1.0  0.30029  0.81955  0.03022  1.0000
  H   H540      1.0  0.28794  0.89608  0.01014  1.0000
  S   S138      1.0  0.28058  0.84250  0.26637  1.0000
  H   H541      1.0  0.31231  0.77132  0.12768  1.0000
  H   H542      1.0  0.43767  0.96231  0.00367  1.0000
  S   S139      1.0  0.42615  0.83697  0.11521  1.0000
  S   S140      1.0  0.27424  0.72154  0.22834  1.0000
  H   H543      1.0  0.45585  0.77112  0.29599  1.0000
  S   S141      1.0  0.30827  0.66661  0.06363  1.0000
  Fe  Fe70      1.0  0.43609  0.76716  0.20379  1.0000
  S   S142      1.0  0.41383  0.81032  0.20035  1.0000
  S   S143      1.0  0.41092  0.72766  0.20680  1.0000
  Fe  Fe71      1.0  0.44197  0.81681  0.15887  1.0000
  H   H544      1.0  0.33982  0.79427  0.08534  1.0000
  Fe  Fe72      1.0  0.45226  0.82291  0.22487  1.0000
  S   S144      1.0  0.44766  0.85962  0.25462  1.0000
  S   S145      1.0  0.46196  0.77277  0.16056  1.0000
  S   S146      1.0  0.47310  0.77898  0.23120  1.0000
  S   S147      1.0  0.31240  0.74242  0.06821  1.0000
  H   H545      1.0  0.31340  0.66309  0.28927  1.0000
  C   C336      1.0  0.28968  0.74140  0.03734  1.0000
  C   C337      1.0  0.29609  0.75696  0.01038  1.0000
  C   C338      1.0  0.33331  0.76353  0.13752  1.0000
  H   H546      1.0  0.31534  0.76898  0.00826  1.0000
  C   C339      1.0  0.45313  0.82670  0.08863  1.0000
  C   C340      1.0  0.44779  0.82821  0.05797  1.0000
  C   C341      1.0  0.46917  0.81766  0.03758  1.0000
  H   H547      1.0  0.42704  0.83683  0.05012  1.0000
  H   H548      1.0  0.46497  0.81848  0.01396  1.0000
  C   C342      1.0  0.31174  0.72539  0.21943  1.0000
  C   C343      1.0  0.32732  0.70788  0.20002  1.0000
  C   C344      1.0  0.35753  0.70957  0.19558  1.0000
  C   C345      1.0  0.37242  0.72937  0.20965  1.0000
  C   C346      1.0  0.35652  0.74882  0.22684  1.0000
  C   C347      1.0  0.32627  0.74676  0.23178  1.0000
  H   H549      1.0  0.31624  0.69217  0.18936  1.0000
  H   H550      1.0  0.36945  0.69497  0.18167  1.0000
  H   H551      1.0  0.36762  0.76459  0.23752  1.0000
  H   H552      1.0  0.31439  0.76127  0.24598  1.0000
  C   C348      1.0  0.29207  0.91488  0.11498  1.0000
  H   H553      1.0  0.39639  0.87674  0.16721  1.0000
  C   C349      1.0  0.45091  0.86020  0.29385  1.0000
  C   C350      1.0  0.28471  0.91667  0.17828  1.0000
  H   H554      1.0  0.42786  0.87365  0.00309  1.0000
  C   C351      1.0  0.38664  0.80001  0.30366  1.0000
  H   H555      1.0  0.48488  0.81517  0.12189  1.0000
  H   H556      1.0  0.33419  0.88178  0.22169  1.0000
  N   N34       1.0  0.42752  0.91882  0.00366  1.0000
  H   H557      1.0  0.45589  0.88622  0.02461  1.0000
  C   C352      1.0  0.41262  0.78980  0.28984  1.0000
  H   H558      1.0  0.29619  0.86977  0.12416  1.0000
  H   H559      1.0  0.40275  0.78387  0.13370  1.0000
  H   H560      1.0  0.34954  0.86412  0.19034  1.0000
  H   H561      1.0  0.41477  0.79076  0.26571  1.0000
  H   H562      1.0  0.37763  0.68891  0.29418  1.0000
  H   H563      1.0  0.43555  0.65564  0.27641  1.0000
  C   C353      1.0  0.36032  0.78589  0.09582  1.0000
  H   H564      1.0  0.33858  0.74207  0.12967  1.0000
  C   C354      1.0  0.35966  0.91978  0.18458  1.0000
  H   H565      1.0  0.42361  0.68150  0.10698  1.0000
  H   H566      1.0  0.41949  0.91623  0.05139  1.0000
  H   H567      1.0  0.38781  0.72067  0.27401  1.0000
  H   H568      1.0  0.46623  0.71084  0.28543  1.0000
  C   C355      1.0  0.46505  0.83856  0.31172  1.0000
  C   C356      1.0  0.38426  0.77095  0.14145  1.0000
  C   C357      1.0  0.35508  0.87410  0.21088  1.0000
  H   H569      1.0  0.28689  0.96013  0.11381  1.0000
  H   H570      1.0  0.42961  0.90171  0.29349  1.0000
  H   H571      1.0  0.39574  0.94123  0.03093  1.0000
  H   H572      1.0  0.47460  0.82011  0.30156  1.0000
  H   H573      1.0  0.39839  0.92555  0.22784  1.0000
  H   H574      1.0  0.44899  0.70120  0.25284  1.0000
  H   H575      1.0  0.33998  0.92910  0.19633  1.0000
  H   H576      1.0  0.32972  0.76116  0.16229  1.0000
  H   H577      1.0  0.38966  0.74906  0.13493  1.0000
  H   H578      1.0  0.39190  0.89240  0.24794  1.0000
  H   H579      1.0  0.36640  0.76523  0.08636  1.0000
  H   H580      1.0  0.43727  0.73322  0.26933  1.0000
  N   N35       1.0  0.35670  0.78275  0.12880  1.0000
  H   H581      1.0  0.36515  0.85734  0.22651  1.0000
  C   C358      1.0  0.34909  0.81064  0.14049  1.0000
  H   H582      1.0  0.34627  0.80896  0.16537  1.0000
  H   H583      1.0  0.46183  0.93800  0.02446  1.0000
  N   N36       1.0  0.37458  0.89741  0.20387  1.0000
  S   S148      1.0  0.28862  0.68441  0.13204  1.0000
  H   H584      1.0  0.36638  0.82560  0.13444  1.0000
  S   S149      1.0  0.33462  0.93872  0.00395  1.0000
  C   C359      1.0  0.27845  0.75607  0.98560  1.0000
  C   C360      1.0  0.28946  0.89076  0.16537  1.0000
  Fe  Fe73      1.0  0.31760  0.69977  0.09353  1.0000
  C   C361      1.0  0.45534  0.69229  0.15364  1.0000
  H   H585      1.0  0.46093  0.69100  0.17767  1.0000
  H   H586      1.0  0.32842  0.82018  0.13128  1.0000
  C   C362      1.0  0.28777  0.94075  0.12795  1.0000
  H   H587      1.0  0.36282  0.91901  0.24356  1.0000
  H   H588      1.0  0.41626  0.90374  0.18181  1.0000
  C   C363      1.0  0.28407  0.94158  0.15933  1.0000
  H   H589      1.0  0.29923  0.72284  0.29012  1.0000
  Fe  Fe74      1.0  0.29835  0.94789  0.03778  1.0000
  S   S150      1.0  0.35765  0.67547  0.11080  1.0000
  N   N37       1.0  0.44929  0.66437  0.14364  1.0000
  S   S151      1.0  0.47806  0.83353  0.18243  1.0000
  H   H590      1.0  0.43622  0.70753  0.15103  1.0000
  H   H591      1.0  0.31354  0.85396  0.03388  1.0000
  C   C364      1.0  0.40755  0.92014  0.03028  1.0000
  H   H592      1.0  0.41355  0.87053  0.20257  1.0000
  N   N38       1.0  0.27725  0.85357  0.00543  1.0000
  C   C365      1.0  0.44492  0.71091  0.27463  1.0000
  C   C366      1.0  0.47995  0.81543  0.09860  1.0000
  H   H593      1.0  0.39590  0.68748  0.25798  1.0000
  C   C367      1.0  0.32969  0.65331  0.24478  1.0000
  H   H594      1.0  0.40406  0.66760  0.15725  1.0000
  H   H595      1.0  0.49598  0.88282  0.22191  1.0000
  N   N39       1.0  0.42328  0.69569  0.29383  1.0000
  C   C368      1.0  0.44000  0.88459  0.30706  1.0000
  C   C369      1.0  0.44315  0.89077  0.00409  1.0000
  C   C370      1.0  0.38228  0.90913  0.23200  1.0000
  C   C371      1.0  0.50073  0.80414  0.07856  1.0000
  C   C372      1.0  0.49550  0.80510  0.04807  1.0000
  Fe  Fe75      1.0  0.49698  0.78894  0.18711  1.0000
  C   C373      1.0  0.40133  0.88663  0.18808  1.0000
  C   C374      1.0  0.44318  0.66724  0.11141  1.0000
  H   H596      1.0  0.28026  0.84447  0.05289  1.0000
  C   C375      1.0  0.29303  0.88991  0.13392  1.0000
  H   H597      1.0  0.28046  0.96175  0.16903  1.0000
  S   S152      1.0  0.28048  0.91954  0.21776  1.0000
  H   H598      1.0  0.49425  0.65192  0.13545  1.0000
  C   C376      1.0  0.39495  0.69819  0.27934  1.0000
  H   H599      1.0  0.35236  0.91145  0.16370  1.0000
  H   H600      1.0  0.50396  0.83472  0.24548  1.0000
  H   H601      1.0  0.37400  0.93732  0.17809  1.0000
  C   C377      1.0  0.28281  0.71857  0.30858  1.0000
  H   H602      1.0  0.39097  0.90408  0.03038  1.0000
  H   H603      1.0  0.46172  0.67618  0.09793  1.0000
  C   C378      1.0  0.29359  0.84230  0.03177  1.0000
  C   C379      1.0  0.26525  0.72511  0.03932  1.0000
  C   C380      1.0  0.43597  0.77869  0.30697  1.0000
  H   H604      1.0  0.28990  0.87141  0.17957  1.0000
  S   S153      1.0  0.26450  0.95444  0.00260  1.0000
  C   C381      1.0  0.44874  0.94084  0.00405  1.0000
  H   H605      1.0  0.26825  0.70299  0.30074  1.0000
  C   C382      1.0  0.42384  0.65349  0.16090  1.0000
  C   C383      1.0  0.43330  0.66567  0.29815  1.0000
  H   H606      1.0  0.31108  0.66326  0.23373  1.0000
  Fe  Fe76      1.0  0.32771  0.65585  0.14674  1.0000
  H   H607      1.0  0.42731  0.65186  0.18541  1.0000
  C   C384      1.0  0.33088  0.65295  0.27638  1.0000
  C   C385      1.0  0.26856  0.88358  0.00852  1.0000
  H   H608      1.0  0.45485  0.66323  0.30863  1.0000
  H   H609      1.0  0.45853  0.88919  0.98440  1.0000
  H   H610      1.0  0.26672  0.76411  0.27156  1.0000
  H   H611      1.0  0.28047  0.65701  0.98688  1.0000
  H   H612      1.0  0.30317  0.77029  0.30867  1.0000
  H   H613      1.0  0.41763  0.65359  0.31280  1.0000
  H   H614      1.0  0.46411  0.94040  0.98421  1.0000
  H   H615      1.0  0.50959  0.87612  0.27494  1.0000
  H   H616      1.0  0.26008  0.71291  0.05993  1.0000
  S   S154      1.0  0.30983  0.92723  0.35736  1.0000
  S   S155      1.0  0.48063  0.86846  0.47372  1.0000
  C   C386      1.0  0.46680  0.84090  0.34299  1.0000
  H   H617      1.0  0.36545  0.90017  0.36711  1.0000
  S   S156      1.0  0.33266  0.96650  0.54874  1.0000
  C   C387      1.0  0.31160  0.95248  0.41048  1.0000
  C   C388      1.0  0.28638  0.76488  0.32643  1.0000
  C   C389      1.0  0.47801  0.65810  0.58776  1.0000
  H   H618      1.0  0.40493  0.86998  0.43297  1.0000
  C   C390      1.0  0.37815  0.84795  0.38868  1.0000
  C   C391      1.0  0.27579  0.91758  0.40941  1.0000
  H   H619      1.0  0.36345  0.80485  0.34577  1.0000
  Fe  Fe77      1.0  0.45157  0.84100  0.50355  1.0000
  S   S157      1.0  0.43580  0.81853  0.46576  1.0000
  S   S158      1.0  0.28159  0.73656  0.41868  1.0000
  N   N40       1.0  0.39649  0.91932  0.59961  1.0000
  S   S159      1.0  0.26478  0.78831  0.59544  1.0000
  S   S160      1.0  0.28179  0.85605  0.54306  1.0000
  S   S161      1.0  0.26299  0.97539  0.57068  1.0000
  C   C392      1.0  0.48213  0.72818  0.54538  1.0000
  S   S162      1.0  0.42005  0.85038  0.54270  1.0000
  H   H620      1.0  0.42054  0.67178  0.63559  1.0000
  C   C393      1.0  0.37145  0.90664  0.58729  1.0000
  C   C394      1.0  0.43909  0.67671  0.61976  1.0000
  H   H621      1.0  0.32343  0.77980  0.49148  1.0000
  S   S163      1.0  0.28536  0.66019  0.38370  1.0000
  H   H622      1.0  0.40084  0.75226  0.48653  1.0000
  C   C395      1.0  0.37390  0.89855  0.39011  1.0000
  C   C396      1.0  0.41981  0.70799  0.32325  1.0000
  C   C397      1.0  0.38200  0.84809  0.54003  1.0000
  C   C398      1.0  0.36683  0.86419  0.51783  1.0000
  C   C399      1.0  0.33619  0.86591  0.51878  1.0000
  C   C400      1.0  0.32032  0.85138  0.54182  1.0000
  C   C401      1.0  0.33549  0.83469  0.56371  1.0000
  C   C402      1.0  0.36619  0.83331  0.56293  1.0000
  H   H623      1.0  0.37873  0.87669  0.50101  1.0000
  H   H624      1.0  0.32465  0.87934  0.50211  1.0000
  H   H625      1.0  0.32353  0.82375  0.58182  1.0000
  H   H626      1.0  0.37777  0.82135  0.58049  1.0000
  N   N41       1.0  0.26622  0.74476  0.31642  1.0000
  H   H627      1.0  0.41385  0.80763  0.61984  1.0000
  S   S164      1.0  0.46245  0.76173  0.35980  1.0000
  C   C403      1.0  0.45515  0.86529  0.35607  1.0000
  H   H628      1.0  0.37193  0.90908  0.56237  1.0000
  H   H629      1.0  0.31262  0.72900  0.49713  1.0000
  H   H630      1.0  0.39777  0.90081  0.38783  1.0000
  H   H631      1.0  0.40581  0.75756  0.63347  1.0000
  H   H632      1.0  0.29990  0.90027  0.61508  1.0000
  C   C404      1.0  0.30404  0.95637  0.44080  1.0000
  C   C405      1.0  0.29766  0.93298  0.39467  1.0000
  H   H633      1.0  0.50225  0.72366  0.39634  1.0000
  H   H634      1.0  0.31499  0.97139  0.45269  1.0000
  C   C406      1.0  0.28232  0.94083  0.45560  1.0000
  Fe  Fe78      1.0  0.50639  0.75338  0.33613  1.0000
  H   H635      1.0  0.39580  0.95448  0.56667  1.0000
  C   C407      1.0  0.40726  0.78669  0.35219  1.0000
  Fe  Fe79      1.0  0.46774  0.84297  0.43630  1.0000
  N   N42       1.0  0.36706  0.87156  0.40647  1.0000
  H   H636      1.0  0.36301  0.78925  0.62168  1.0000
  C   C408      1.0  0.46538  0.75746  0.58565  1.0000
  C   C409      1.0  0.44438  0.77088  0.56717  1.0000
  C   C410      1.0  0.44288  0.76377  0.53763  1.0000
  C   C411      1.0  0.33527  0.87037  0.41140  1.0000
  H   H637      1.0  0.43071  0.78842  0.57477  1.0000
  H   H638      1.0  0.42841  0.77624  0.52286  1.0000
  H   H639      1.0  0.40501  0.78508  0.37636  1.0000
  H   H640      1.0  0.41363  0.96033  0.60044  1.0000
  H   H641      1.0  0.39478  0.89164  0.63968  1.0000
  S   S165      1.0  0.47020  0.77125  0.62018  1.0000
  H   H642      1.0  0.47713  0.82395  0.35684  1.0000
  C   C412      1.0  0.30696  0.89583  0.63774  1.0000
  S   S166      1.0  0.34844  0.68638  0.39721  1.0000
  H   H643      1.0  0.35969  0.72254  0.44881  1.0000
  C   C413      1.0  0.44224  0.88716  0.33775  1.0000
  H   H644      1.0  0.50002  0.72505  0.58932  1.0000
  S   S167      1.0  0.32009  0.95219  0.63737  1.0000
  C   C414      1.0  0.41021  0.81183  0.64384  1.0000
  C   C415      1.0  0.48351  0.73525  0.57524  1.0000
  C   C416      1.0  0.35365  0.74408  0.45609  1.0000
  H   H645      1.0  0.42482  0.90866  0.56222  1.0000
  H   H646      1.0  0.33566  0.72458  0.52861  1.0000
  H   H647      1.0  0.43376  0.90635  0.34734  1.0000
  H   H648      1.0  0.37112  0.88370  0.59386  1.0000
  H   H649      1.0  0.40212  0.84785  0.38483  1.0000
  H   H650      1.0  0.34183  0.70247  0.49777  1.0000
  C   C417      1.0  0.39519  0.94999  0.59141  1.0000
  C   C418      1.0  0.47710  0.68438  0.43297  1.0000
  H   H651      1.0  0.29447  0.70835  0.32810  1.0000
  S   S168      1.0  0.48900  0.80985  0.51413  1.0000
  Fe  Fe80      1.0  0.28935  0.97318  0.52687  1.0000
  Fe  Fe81      1.0  0.30147  0.69308  0.41184  1.0000
  S   S169      1.0  0.29574  0.84748  0.33749  1.0000
  H   H652      1.0  0.44109  0.70915  0.33382  1.0000
  C   C419      1.0  0.46246  0.74323  0.52633  1.0000
  H   H653      1.0  0.36412  0.91693  0.40176  1.0000
  H   H654      1.0  0.44321  0.91553  0.59533  1.0000
  H   H655      1.0  0.36851  0.84959  0.36620  1.0000
  H   H656      1.0  0.43050  0.69045  0.60061  1.0000
  C   C420      1.0  0.36152  0.79560  0.64510  1.0000
  H   H657      1.0  0.40166  0.83409  0.64487  1.0000
  H   H658      1.0  0.32643  0.88711  0.42596  1.0000
  H   H659      1.0  0.37476  0.96053  0.60052  1.0000
  H   H660      1.0  0.46653  0.68953  0.41123  1.0000
  H   H661      1.0  0.41479  0.92265  0.64254  1.0000
  C   C421      1.0  0.38384  0.79812  0.33497  1.0000
  C   C422      1.0  0.42379  0.90614  0.58716  1.0000
  H   H662      1.0  0.35045  0.91666  0.59538  1.0000
  S   S170      1.0  0.50457  0.81016  0.44192  1.0000
  C   C423      1.0  0.34616  0.77355  0.49782  1.0000
  N   N43       1.0  0.35516  0.74488  0.48889  1.0000
  H   H663      1.0  0.42974  0.66775  0.51239  1.0000
  H   H664      1.0  0.33129  0.75002  0.44852  1.0000
  S   S171      1.0  0.30579  0.66494  0.45360  1.0000
  H   H665      1.0  0.42564  0.88306  0.59344  1.0000
  H   H666      1.0  0.39285  0.71591  0.49132  1.0000
  H   H667      1.0  0.32924  0.84980  0.42250  1.0000
  Fe  Fe82      1.0  0.47399  0.78835  0.47513  1.0000
  H   H668      1.0  0.32390  0.87343  0.38988  1.0000
  H   H669      1.0  0.34700  0.77492  0.52248  1.0000
  H   H670      1.0  0.36054  0.78959  0.48700  1.0000
  H   H671      1.0  0.46497  0.69695  0.44996  1.0000
  C   C424      1.0  0.39557  0.91445  0.63259  1.0000
  H   H672      1.0  0.32849  0.96455  0.39925  1.0000
  C   C425      1.0  0.38088  0.86949  0.43574  1.0000
  H   H673      1.0  0.38750  0.73786  0.52230  1.0000
  H   H674      1.0  0.37312  0.82721  0.40000  1.0000
  C   C426      1.0  0.43358  0.77723  0.33818  1.0000
  H   H675      1.0  0.37583  0.84966  0.44904  1.0000
  C   C427      1.0  0.38536  0.73743  0.49772  1.0000
  H   H676      1.0  0.40550  0.69545  0.33903  1.0000
  H   H677      1.0  0.37325  0.88753  0.44912  1.0000
  S   S172      1.0  0.46731  0.74264  0.48747  1.0000
  C   C428      1.0  0.33550  0.72436  0.50381  1.0000
  H   H678      1.0  0.29774  0.75618  0.34681  1.0000
  H   H679      1.0  0.29875  0.85156  0.63892  1.0000
  H   H680      1.0  0.36864  0.75881  0.44397  1.0000
  Fe  Fe83      1.0  0.29536  0.89445  0.32713  1.0000
  S   S173      1.0  0.45566  0.87058  0.39483  1.0000
  Fe  Fe84      1.0  0.30656  0.97159  0.59190  1.0000
  H   H681      1.0  0.45391  0.68931  0.63169  1.0000
  N   N44       1.0  0.50824  0.69029  0.43089  1.0000
  H   H682      1.0  0.49418  0.67064  0.59788  1.0000
  H   H683      1.0  0.37597  0.92532  0.64282  1.0000
  H   H684      1.0  0.27392  0.77922  0.46168  1.0000
  C   C429      1.0  0.26385  0.73669  0.45437  1.0000
  H   H685      1.0  0.46964  0.67066  0.56773  1.0000
  S   S174      1.0  0.38340  0.65937  0.47411  1.0000
  H   H686      1.0  0.47411  0.66184  0.43942  1.0000
  Fe  Fe85      1.0  0.35163  0.65547  0.43732  1.0000
  H   H687      1.0  0.49788  0.71288  0.53645  1.0000
  H   H688      1.0  0.49911  0.73490  0.43359  1.0000
  H   H689      1.0  0.26492  0.90248  0.39755  1.0000
  C   C430      1.0  0.26418  0.76037  0.47127  1.0000
  C   C431      1.0  0.26824  0.92147  0.43973  1.0000
  S   S175      1.0  0.27203  0.94460  0.49381  1.0000
  H   H690      1.0  0.40949  0.72969  0.32104  1.0000
  H   H691      1.0  0.35266  0.81792  0.64460  1.0000
  H   H692      1.0  0.27451  0.78496  0.33221  1.0000
  H   H693      1.0  0.50993  0.70041  0.47684  1.0000
  H   H694      1.0  0.49809  0.68186  0.77583  1.0000
  S   S176      1.0  0.47866  0.74259  0.69875  1.0000
  H   H695      1.0  0.27106  0.78174  0.73745  1.0000
  H   H696      1.0  0.32291  0.70374  0.76945  1.0000
  Fe  Fe86      1.0  0.49422  0.69697  0.69754  1.0000
  S   S177      1.0  0.28289  0.73009  0.80855  1.0000
  Fe  Fe87      1.0  0.30160  0.94808  0.96891  1.0000
  S   S178      1.0  0.29042  0.92007  0.93293  1.0000
  Fe  Fe88      1.0  0.37217  0.77170  0.77435  1.0000
  S   S179      1.0  0.33081  0.76571  0.75217  1.0000
  S   S180      1.0  0.41174  0.74470  0.75987  1.0000
  Fe  Fe89      1.0  0.34508  0.82140  0.80740  1.0000
  S   S181      1.0  0.30104  0.81832  0.78807  1.0000
  S   S182      1.0  0.36378  0.85690  0.83130  1.0000
  Fe  Fe90      1.0  0.30815  0.77047  0.79698  1.0000
  Fe  Fe91      1.0  0.32606  0.81275  0.74441  1.0000
  S   S183      1.0  0.31547  0.82691  0.69642  1.0000
  S   S184      1.0  0.35067  0.77431  0.81966  1.0000
  S   S185      1.0  0.36932  0.81826  0.76289  1.0000
  Fe  Fe92      1.0  0.47474  0.84098  0.93563  1.0000
  S   S186      1.0  0.47897  0.79486  0.94936  1.0000
  H   H697      1.0  0.26760  0.72032  0.74125  1.0000
  H   H698      1.0  0.27405  0.74261  0.70820  1.0000
  H   H699      1.0  0.44149  0.69792  0.97708  1.0000
  C   C432      1.0  0.42960  0.65729  0.70555  1.0000
  H   H700      1.0  0.30298  0.82862  0.97462  1.0000
  C   C433      1.0  0.45310  0.68635  0.95896  1.0000
  H   H701      1.0  0.42151  0.70178  0.69502  1.0000
  Fe  Fe93      1.0  0.28118  0.80805  0.88916  1.0000
  S   S187      1.0  0.32945  0.79568  0.88815  1.0000
  H   H702      1.0  0.28484  0.76671  0.96453  1.0000
  H   H703      1.0  0.33983  0.70836  0.82074  1.0000
  C   C434      1.0  0.36102  0.69871  0.81254  1.0000
  C   C435      1.0  0.30643  0.86821  0.65127  1.0000
  C   C436      1.0  0.31668  0.91747  0.65365  1.0000
  H   H704      1.0  0.37260  0.68915  0.83238  1.0000
  H   H705      1.0  0.36857  0.69822  0.68824  1.0000
  S   S188      1.0  0.50148  0.66867  0.83965  1.0000
  C   C437      1.0  0.40179  0.84218  0.92684  1.0000
  C   C438      1.0  0.40823  0.81754  0.91201  1.0000
  C   C439      1.0  0.38564  0.80290  0.90138  1.0000
  C   C440      1.0  0.35657  0.81305  0.90497  1.0000
  C   C441      1.0  0.35006  0.83681  0.92111  1.0000
  C   C442      1.0  0.37263  0.85128  0.93217  1.0000
  H   H706      1.0  0.43057  0.81025  0.90788  1.0000
  H   H707      1.0  0.28428  0.85965  0.95768  1.0000
  H   H708      1.0  0.32776  0.84482  0.92355  1.0000
  H   H709      1.0  0.36747  0.87029  0.94362  1.0000
  C   C443      1.0  0.43627  0.72436  0.78335  1.0000
  C   C444      1.0  0.43326  0.72273  0.81466  1.0000
  C   C445      1.0  0.45331  0.70562  0.83191  1.0000
  C   C446      1.0  0.47698  0.69086  0.81800  1.0000
  C   C447      1.0  0.48002  0.69289  0.78688  1.0000
  C   C448      1.0  0.45932  0.70882  0.76979  1.0000
  H   H710      1.0  0.41543  0.73432  0.82557  1.0000
  H   H711      1.0  0.45077  0.70416  0.85603  1.0000
  H   H712      1.0  0.46102  0.70868  0.74583  1.0000
  H   H713      1.0  0.48116  0.73107  0.97397  1.0000
  C   C449      1.0  0.31538  0.86207  0.68077  1.0000
  C   C450      1.0  0.32511  0.88369  0.69660  1.0000
  H   H714      1.0  0.46718  0.66912  0.96991  1.0000
  H   H715      1.0  0.33200  0.87922  0.71933  1.0000
  H   H716      1.0  0.33333  0.92785  0.69552  1.0000
  C   C451      1.0  0.31155  0.90534  0.90324  1.0000
  C   C452      1.0  0.34127  0.90921  0.89819  1.0000
  C   C453      1.0  0.35706  0.89497  0.87544  1.0000
  C   C454      1.0  0.34328  0.87669  0.85786  1.0000
  C   C455      1.0  0.31344  0.87414  0.86206  1.0000
  C   C456      1.0  0.29768  0.88841  0.88457  1.0000
  H   H717      1.0  0.35229  0.92229  0.91230  1.0000
  H   H718      1.0  0.38022  0.89712  0.87234  1.0000
  H   H719      1.0  0.30284  0.86065  0.84809  1.0000
  C   C457      1.0  0.48587  0.68899  0.91550  1.0000
  H   H720      1.0  0.40026  0.67990  0.77077  1.0000
  H   H721      1.0  0.43445  0.71854  0.91105  1.0000
  H   H722      1.0  0.50196  0.67316  0.92551  1.0000
  C   C458      1.0  0.41203  0.68147  0.69783  1.0000
  C   C459      1.0  0.41069  0.92352  0.97619  1.0000
  C   C460      1.0  0.36925  0.65324  0.69835  1.0000
  H   H723      1.0  0.46324  0.74227  0.90895  1.0000
  H   H724      1.0  0.42734  0.78011  0.84137  1.0000
  H   H725      1.0  0.40739  0.79501  0.70276  1.0000
  H   H726      1.0  0.29374  0.70924  0.71278  1.0000
  H   H727      1.0  0.49812  0.70270  0.89892  1.0000
  H   H728      1.0  0.40707  0.81345  0.84271  1.0000
  C   C461      1.0  0.45088  0.72765  0.92444  1.0000
  C   C462      1.0  0.38555  0.66421  0.78182  1.0000
  H   H729      1.0  0.40707  0.79408  0.80990  1.0000
  H   H730      1.0  0.43903  0.74058  0.94134  1.0000
  C   C463      1.0  0.49191  0.71831  0.95631  1.0000
  H   H731      1.0  0.33886  0.67669  0.74738  1.0000
  H   H732      1.0  0.42470  0.85559  0.81569  1.0000
  N   N45       1.0  0.44642  0.81434  0.81531  1.0000
  C   C464      1.0  0.46531  0.81950  0.83987  1.0000
  C   C465      1.0  0.46250  0.79645  0.79375  1.0000
  C   C466      1.0  0.43692  0.84163  0.79994  1.0000
  C   C467      1.0  0.42086  0.79982  0.82791  1.0000
  H   H733      1.0  0.45345  0.83275  0.85653  1.0000
  H   H734      1.0  0.48484  0.83058  0.83128  1.0000
  H   H735      1.0  0.47297  0.79938  0.85202  1.0000
  H   H736      1.0  0.47073  0.77600  0.80483  1.0000
  H   H737      1.0  0.44848  0.79140  0.77546  1.0000
  H   H738      1.0  0.48145  0.80709  0.78301  1.0000
  H   H739      1.0  0.42222  0.83870  0.78157  1.0000
  H   H740      1.0  0.45574  0.85311  0.79014  1.0000
  S   S189      1.0  0.42985  0.86241  0.93785  1.0000
  H   H741      1.0  0.34500  0.78278  0.65769  1.0000
  H   H742      1.0  0.38715  0.74745  0.66849  1.0000
  H   H743      1.0  0.27612  0.69934  0.66241  1.0000
  H   H744      1.0  0.37377  0.71623  0.80246  1.0000
  S   S190      1.0  0.50916  0.85329  0.96562  1.0000
  H   H745      1.0  0.39067  0.78419  0.88938  1.0000
  H   H746      1.0  0.37077  0.78434  0.70326  1.0000
  N   N46       1.0  0.47042  0.70536  0.93878  1.0000
  C   C468      1.0  0.38647  0.79828  0.69109  1.0000
  S   S191      1.0  0.50539  0.83841  0.89533  1.0000
  H   H747      1.0  0.43659  0.67624  0.94657  1.0000
  C   C469      1.0  0.34374  0.69205  0.76365  1.0000
  N   N47       1.0  0.35701  0.67776  0.79049  1.0000
  C   C470      1.0  0.27209  0.72032  0.71666  1.0000
  C   C471      1.0  0.32579  0.91123  0.68306  1.0000
  C   C472      1.0  0.40202  0.76278  0.65720  1.0000
  H   H748      1.0  0.27466  0.88584  0.88811  1.0000
  C   C473      1.0  0.38204  0.67939  0.69408  1.0000
  H   H749      1.0  0.27067  0.66612  0.70733  1.0000
  H   H750      1.0  0.31579  0.86304  0.97862  1.0000
  H   H751      1.0  0.47070  0.67756  0.90274  1.0000
  H   H752      1.0  0.39458  0.90717  0.97494  1.0000
  H   H753      1.0  0.39868  0.94457  0.97506  1.0000
  H   H754      1.0  0.35848  0.70737  0.75205  1.0000
  H   H755      1.0  0.37795  0.82042  0.69356  1.0000
  H   H756      1.0  0.42511  0.92242  0.95566  1.0000
  C   C474      1.0  0.29590  0.85100  0.97798  1.0000
  H   H757      1.0  0.50572  0.73239  0.94172  1.0000
  H   H758      1.0  0.50679  0.70198  0.96761  1.0000
  H   H759      1.0  0.31585  0.66599  0.81018  1.0000
  H   H760      1.0  0.42332  0.75941  0.66810  1.0000
  N   N48       1.0  0.39004  0.79211  0.65926  1.0000
  S   S192      1.0  0.46753  0.65853  0.71001  1.0000
  H   H761      1.0  0.39677  0.65396  0.80157  1.0000
  H   H762      1.0  0.26508  0.96914  0.89434  1.0000
  Fe  Fe94      1.0  0.49888  0.74663  0.65271  1.0000
  C   C475      1.0  0.33764  0.65622  0.80380  1.0000
  H   H763      1.0  0.43190  0.80978  0.65410  1.0000
  S   S193      1.0  0.33128  0.65196  0.69399  1.0000
  N   N49       1.0  0.60226  0.28403  0.03826  1.0000
  H   H764      1.0  0.57889  0.30567  0.00202  1.0000
  H   H765      1.0  0.55816  0.30093  0.03660  1.0000
  C   C476      1.0  0.58010  0.30533  0.02680  1.0000
  H   H766      1.0  0.59502  0.25622  0.00366  1.0000
  C   C477      1.0  0.51628  0.22518  0.03753  1.0000
  C   C478      1.0  0.60129  0.28306  0.07134  1.0000
  C   C479      1.0  0.59621  0.25601  0.02846  1.0000
  S   S194      1.0  0.52203  0.31541  0.31081  1.0000
  H   H767      1.0  0.57949  0.27724  0.08077  1.0000
  H   H768      1.0  0.52399  0.18557  0.01649  1.0000
  C   C480      1.0  0.51918  0.31524  0.24956  1.0000
  H   H769      1.0  0.52162  0.29019  0.00203  1.0000
  H   H770      1.0  0.64870  0.27637  0.03478  1.0000
  H   H771      1.0  0.57505  0.24893  0.03818  1.0000
  C   C481      1.0  0.52252  0.26746  0.00552  1.0000
  C   C482      1.0  0.51585  0.25486  0.03399  1.0000
  H   H772      1.0  0.60554  0.30395  0.07947  1.0000
  C   C483      1.0  0.63133  0.29189  0.02653  1.0000
  H   H773      1.0  0.61770  0.26721  0.08088  1.0000
  H   H774      1.0  0.63642  0.31302  0.03354  1.0000
  C   C484      1.0  0.52363  0.20832  0.01322  1.0000
  H   H775      1.0  0.63264  0.29289  0.00161  1.0000
  H   H776      1.0  0.61319  0.23959  0.03560  1.0000
  C   C485      1.0  0.53087  0.22091  0.98491  1.0000
  H   H777      1.0  0.51109  0.21508  0.05934  1.0000
  H   H778      1.0  0.52068  0.29251  0.25342  1.0000
  H   H779      1.0  0.51583  0.31410  0.20155  1.0000
  S   S195      1.0  0.74109  0.05233  0.55920  1.0000
  N   N50       1.0  0.61114  0.27194  0.45486  1.0000
  H   H780      1.0  0.56651  0.02864  0.52848  1.0000
  H   H781      1.0  0.69919  0.09958  0.56333  1.0000
  Fe  Fe95      1.0  0.57480  0.09783  0.61305  1.0000
  S   S196      1.0  0.57718  0.14188  0.62795  1.0000
  S   S197      1.0  0.60792  0.06080  0.60633  1.0000
  Fe  Fe96      1.0  0.54198  0.15417  0.59494  1.0000
  S   S198      1.0  0.54463  0.19938  0.57381  1.0000
  H   H782      1.0  0.64582  0.24191  0.46778  1.0000
  S   S199      1.0  0.54226  0.11057  0.57757  1.0000
  C   C486      1.0  0.62737  0.28318  0.42790  1.0000
  H   H783      1.0  0.53073  0.28216  0.50250  1.0000
  H   H784      1.0  0.52127  0.01959  0.61375  1.0000
  C   C487      1.0  0.51358  0.03557  0.55597  1.0000
  C   C488      1.0  0.53469  0.21600  0.53852  1.0000
  H   H785      1.0  0.62029  0.25061  0.49760  1.0000
  H   H786      1.0  0.64116  0.26639  0.41727  1.0000
  H   H787      1.0  0.57986  0.24082  0.46647  1.0000
  H   H788      1.0  0.58161  0.28764  0.48908  1.0000
  C   C489      1.0  0.70416  0.05454  0.57275  1.0000
  C   C490      1.0  0.69005  0.03061  0.58403  1.0000
  C   C491      1.0  0.66070  0.03305  0.59425  1.0000
  C   C492      1.0  0.64508  0.05941  0.59359  1.0000
  C   C493      1.0  0.65919  0.08340  0.58244  1.0000
  C   C494      1.0  0.68854  0.08093  0.57201  1.0000
  H   H789      1.0  0.70175  0.01020  0.58489  1.0000
  H   H790      1.0  0.65010  0.01436  0.60291  1.0000
  H   H791      1.0  0.64748  0.10381  0.58172  1.0000
  H   H792      1.0  0.64167  0.30003  0.43328  1.0000
  C   C495      1.0  0.63188  0.25940  0.47703  1.0000
  C   C496      1.0  0.56615  0.03244  0.55270  1.0000
  C   C497      1.0  0.52950  0.25955  0.50583  1.0000
  H   H793      1.0  0.60674  0.31263  0.47327  1.0000
  H   H794      1.0  0.64645  0.27542  0.48390  1.0000
  C   C498      1.0  0.52015  0.24446  0.48270  1.0000
  H   H795      1.0  0.56061  0.01690  0.61140  1.0000
  H   H796      1.0  0.57558  0.25893  0.43045  1.0000
  C   C499      1.0  0.59326  0.29509  0.46806  1.0000
  N   N51       1.0  0.54012  0.02142  0.56884  1.0000
  H   H797      1.0  0.54124  0.04996  0.60345  1.0000
  H   H798      1.0  0.60467  0.23253  0.43594  1.0000
  H   H799      1.0  0.61238  0.29293  0.41077  1.0000
  H   H800      1.0  0.51740  0.24364  0.61039  1.0000
  C   C500      1.0  0.59207  0.25009  0.44656  1.0000
  H   H801      1.0  0.58659  0.02250  0.56220  1.0000
  H   H802      1.0  0.56711  0.05556  0.55458  1.0000
  S   S200      1.0  0.55448  0.30909  0.39039  1.0000
  C   C501      1.0  0.53689  0.24537  0.53347  1.0000
  H   H803      1.0  0.57659  0.30432  0.45240  1.0000
  C   C502      1.0  0.52502  0.20097  0.51551  1.0000
  H   H804      1.0  0.51281  0.05875  0.55821  1.0000
  Fe  Fe97      1.0  0.51720  0.30494  0.42388  1.0000
  H   H805      1.0  0.51228  0.03211  0.53178  1.0000
  H   H806      1.0  0.54420  0.25727  0.55112  1.0000
  H   H807      1.0  0.53937  0.98569  0.54218  1.0000
  C   C503      1.0  0.54082  0.02702  0.60080  1.0000
  H   H808      1.0  0.56048  0.22088  0.63529  1.0000
  C   C504      1.0  0.53994  0.99070  0.56604  1.0000
  H   H809      1.0  0.54075  0.19031  0.64530  1.0000
  H   H810      1.0  0.52319  0.17842  0.51897  1.0000
  C   C505      1.0  0.51787  0.21513  0.48779  1.0000
  S   S201      1.0  0.51186  0.26084  0.44684  1.0000
  H   H811      1.0  0.51060  0.20323  0.47009  1.0000
  S   S202      1.0  0.54195  0.20090  0.95358  1.0000
  H   H812      1.0  0.61886  0.05270  0.90846  1.0000
  H   H813      1.0  0.69021  0.99999  0.98030  1.0000
  Fe  Fe98      1.0  0.56857  0.09385  0.94908  1.0000
  S   S203      1.0  0.58226  0.13283  0.92234  1.0000
  H   H814      1.0  0.55732  0.20721  0.67393  1.0000
  Fe  Fe99      1.0  0.54143  0.15428  0.94258  1.0000
  H   H815      1.0  0.63915  0.09867  0.91256  1.0000
  Fe  Fe100     1.0  0.55402  0.12028  0.88613  1.0000
  H   H816      1.0  0.67857  0.03605  0.88072  1.0000
  H   H817      1.0  0.63667  0.00757  0.97543  1.0000
  S   S204      1.0  0.54248  0.08027  0.91201  1.0000
  C   C506      1.0  0.53279  0.15430  0.76766  1.0000
  C   C507      1.0  0.54315  0.13905  0.74316  1.0000
  S   S205      1.0  0.53267  0.15138  0.70647  1.0000
  H   H818      1.0  0.53709  0.25409  0.68839  1.0000
  C   C508      1.0  0.57013  0.10672  0.77795  1.0000
  H   H819      1.0  0.67165  0.08813  0.83644  1.0000
  H   H820      1.0  0.52101  0.07115  0.84830  1.0000
  H   H821      1.0  0.62489  0.03460  0.87482  1.0000
  H   H822      1.0  0.51856  0.17300  0.76380  1.0000
  N   N52       1.0  0.51846  0.22903  0.65693  1.0000
  H   H823      1.0  0.62500  0.11259  0.87743  1.0000
  S   S206      1.0  0.59827  0.05702  0.96790  1.0000
  H   H824      1.0  0.58476  0.08828  0.78169  1.0000
  H   H825      1.0  0.53329  0.15817  0.81553  1.0000
  H   H826      1.0  0.69786  0.08959  0.97335  1.0000
  H   H827      1.0  0.56997  0.10315  0.72996  1.0000
  C   C509      1.0  0.54102  0.14585  0.79709  1.0000
  H   H828      1.0  0.63317  0.08667  0.83254  1.0000
  C   C510      1.0  0.64376  0.10038  0.88793  1.0000
  C   C511      1.0  0.62253  0.05582  0.88378  1.0000
  H   H829      1.0  0.67156  0.05430  0.91410  1.0000
  C   C512      1.0  0.67429  0.05732  0.88929  1.0000
  Fe  Fe101     1.0  0.54046  0.13193  0.66114  1.0000
  C   C513      1.0  0.55986  0.12202  0.80242  1.0000
  H   H830      1.0  0.60242  0.06681  0.87478  1.0000
  C   C514      1.0  0.65257  0.07554  0.84309  1.0000
  S   S207      1.0  0.57133  0.11034  0.83895  1.0000
  H   H831      1.0  0.53550  0.26065  0.95952  1.0000
  N   N53       1.0  0.64832  0.07223  0.87601  1.0000
  H   H832      1.0  0.66319  0.11304  0.88363  1.0000
  C   C515      1.0  0.56173  0.11505  0.74853  1.0000
  H   H833      1.0  0.69412  0.06933  0.88443  1.0000
  H   H834      1.0  0.65609  0.05476  0.83322  1.0000
  C   C516      1.0  0.68459  0.07161  0.97339  1.0000
  S   S208      1.0  0.52904  0.11560  0.97162  1.0000
  C   C517      1.0  0.69788  0.04420  0.97700  1.0000
  C   C518      1.0  0.63672  0.05295  0.97109  1.0000
  C   C519      1.0  0.52569  0.25663  0.66684  1.0000
  S   S209      1.0  0.51443  0.14446  0.90397  1.0000
  C   C520      1.0  0.54551  0.21122  0.65273  1.0000
  H   H835      1.0  0.64434  0.09721  0.96838  1.0000
  C   C521      1.0  0.65423  0.07600  0.97042  1.0000
  C   C522      1.0  0.68038  0.02116  0.97735  1.0000
  H   H836      1.0  0.51003  0.21112  0.70167  1.0000
  C   C523      1.0  0.65001  0.02555  0.97457  1.0000
  S   S210      1.0  0.73624  0.04001  0.98092  1.0000
  C   C524      1.0  0.53024  0.25060  0.98133  1.0000
  S   S211      1.0  0.54077  0.08715  0.64910  1.0000
  H   H837      1.0  0.54023  0.26770  0.65001  1.0000
  Fe  Fe102     1.0  0.70872  0.63771  0.18125  1.0000
  Fe  Fe103     1.0  0.72213  0.47058  0.99801  1.0000
  H   H838      1.0  0.64500  0.36361  0.17490  1.0000
  S   S212      1.0  0.52393  0.35668  0.04266  1.0000
  Fe  Fe104     1.0  0.55607  0.36559  0.07679  1.0000
  S   S213      1.0  0.60521  0.36841  0.07308  1.0000
  C   C525      1.0  0.68208  0.65113  0.09830  1.0000
  H   H839      1.0  0.63715  0.37743  0.13750  1.0000
  H   H840      1.0  0.56043  0.40024  0.15548  1.0000
  H   H841      1.0  0.58430  0.63421  0.99040  1.0000
  C   C526      1.0  0.51778  0.36147  0.26874  1.0000
  Fe  Fe105     1.0  0.52888  0.59696  0.08740  1.0000
  S   S214      1.0  0.56550  0.61399  0.11103  1.0000
  C   C527      1.0  0.51385  0.35675  0.21481  1.0000
  C   C528      1.0  0.58426  0.40075  0.15055  1.0000
  S   S215      1.0  0.55527  0.59108  0.04495  1.0000
  S   S216      1.0  0.69107  0.60108  0.15825  1.0000
  C   C529      1.0  0.63200  0.38022  0.16172  1.0000
  Fe  Fe106     1.0  0.59018  0.61294  0.06639  1.0000
  S   S217      1.0  0.63630  0.59785  0.05410  1.0000
  C   C530      1.0  0.74894  0.54797  0.09459  1.0000
  Fe  Fe107     1.0  0.51176  0.35888  0.13039  1.0000
  Fe  Fe108     1.0  0.72538  0.63824  0.24684  1.0000
  C   C531      1.0  0.65902  0.63850  0.08585  1.0000
  C   C532      1.0  0.66481  0.61590  0.06777  1.0000
  C   C533      1.0  0.69379  0.60701  0.06094  1.0000
  C   C534      1.0  0.71682  0.61943  0.07376  1.0000
  Fe  Fe109     1.0  0.51068  0.32154  0.07589  1.0000
  C   C535      1.0  0.59145  0.35054  0.16188  1.0000
  H   H842      1.0  0.52416  0.51310  0.09983  1.0000
  H   H843      1.0  0.69836  0.58938  0.04721  1.0000
  H   H844      1.0  0.73900  0.61144  0.07007  1.0000
  C   C536      1.0  0.52017  0.46916  0.04366  1.0000
  H   H845      1.0  0.57062  0.38139  0.20672  1.0000
  S   S218      1.0  0.52208  0.64266  0.98510  1.0000
  H   H846      1.0  0.63968  0.40105  0.16670  1.0000
  C   C537      1.0  0.59430  0.38250  0.20093  1.0000
  H   H847      1.0  0.56771  0.34862  0.16660  1.0000
  H   H848      1.0  0.58806  0.39811  0.12617  1.0000
  H   H849      1.0  0.66890  0.52400  0.01419  1.0000
  C   C538      1.0  0.65506  0.43709  0.01886  1.0000
  C   C539      1.0  0.62466  0.43677  0.01723  1.0000
  C   C540      1.0  0.60898  0.41613  0.03400  1.0000
  C   C541      1.0  0.62367  0.39549  0.05240  1.0000
  C   C542      1.0  0.65401  0.39595  0.05423  1.0000
  C   C543      1.0  0.66965  0.41671  0.03764  1.0000
  C   C544      1.0  0.71898  0.54439  0.09712  1.0000
  H   H850      1.0  0.58568  0.41589  0.03224  1.0000
  H   H851      1.0  0.66560  0.38003  0.06832  1.0000
  H   H852      1.0  0.69303  0.41667  0.03900  1.0000
  H   H853      1.0  0.52044  0.44889  0.05767  1.0000
  C   C545      1.0  0.74320  0.58274  0.13216  1.0000
  H   H854      1.0  0.63886  0.54524  0.02863  1.0000
  C   C546      1.0  0.71336  0.57978  0.13452  1.0000
  C   C547      1.0  0.53085  0.49513  0.08589  1.0000
  H   H855      1.0  0.72284  0.54901  0.20967  1.0000
  H   H856      1.0  0.61323  0.45234  0.00261  1.0000
  H   H857      1.0  0.51873  0.37472  0.28725  1.0000
  H   H858      1.0  0.54659  0.64706  0.16087  1.0000
  H   H859      1.0  0.59076  0.42214  0.15497  1.0000
  H   H860      1.0  0.60592  0.36591  0.21544  1.0000
  H   H861      1.0  0.60380  0.60773  0.27126  1.0000
  H   H862      1.0  0.72210  0.60014  0.99011  1.0000
  Fe  Fe110     1.0  0.53854  0.63485  0.03121  1.0000
  C   C548      1.0  0.71097  0.64090  0.09321  1.0000
  C   C549      1.0  0.64575  0.53093  0.01073  1.0000
  H   H863      1.0  0.60371  0.57025  0.99367  1.0000
  H   H864      1.0  0.67803  0.55788  0.11874  1.0000
  C   C550      1.0  0.70127  0.56008  0.11735  1.0000
  S   S219      1.0  0.73065  0.51681  0.99527  1.0000
  H   H865      1.0  0.54241  0.47145  0.03349  1.0000
  H   H866      1.0  0.55337  0.49843  0.07695  1.0000
  S   S220      1.0  0.75176  0.63589  0.20332  1.0000
  C   C551      1.0  0.62057  0.61999  0.28078  1.0000
  H   H867      1.0  0.63309  0.51174  0.01431  1.0000
  H   H868      1.0  0.74750  0.51596  0.24708  1.0000
  H   H869      1.0  0.64049  0.61804  0.26607  1.0000
  H   H870      1.0  0.75211  0.59840  0.14472  1.0000
  H   H871      1.0  0.60085  0.40338  0.20708  1.0000
  H   H872      1.0  0.54176  0.64336  0.21624  1.0000
  C   C552      1.0  0.73786  0.56516  0.21520  1.0000
  C   C553      1.0  0.58402  0.65115  0.30306  1.0000
  H   H873      1.0  0.70940  0.52992  0.08337  1.0000
  C   C554      1.0  0.51460  0.37366  0.23932  1.0000
  S   S221      1.0  0.71776  0.60750  0.28753  1.0000
  H   H874      1.0  0.72679  0.57771  0.23286  1.0000
  H   H875      1.0  0.53220  0.52353  0.03183  1.0000
  S   S222      1.0  0.68283  0.63953  0.22451  1.0000
  N   N54       1.0  0.60052  0.37851  0.16881  1.0000
  S   S223      1.0  0.52519  0.39570  0.09980  1.0000
  H   H876      1.0  0.51280  0.39638  0.23550  1.0000
  S   S224      1.0  0.67376  0.46306  0.99666  1.0000
  H   H877      1.0  0.53156  0.47556  0.10105  1.0000
  H   H878      1.0  0.65336  0.58538  0.99320  1.0000
  H   H879      1.0  0.56610  0.63982  0.29428  1.0000
  H   H880      1.0  0.58481  0.32691  0.03260  1.0000
  H   H881      1.0  0.63679  0.64543  0.09130  1.0000
  H   H882      1.0  0.59608  0.34674  0.13786  1.0000
  H   H883      1.0  0.74030  0.57953  0.19480  1.0000
  C   C555      1.0  0.51976  0.33212  0.27408  1.0000
  S   S225      1.0  0.75225  0.45970  0.03578  1.0000
  N   N55       1.0  0.61029  0.64982  0.28302  1.0000
  H   H884      1.0  0.75113  0.54461  0.27028  1.0000
  H   H885      1.0  0.74417  0.63436  0.01896  1.0000
  H   H886      1.0  0.60297  0.33324  0.17554  1.0000
  H   H887      1.0  0.75289  0.58161  0.03136  1.0000
  C   C556      1.0  0.74167  0.58644  0.31090  1.0000
  H   H888      1.0  0.62602  0.60973  0.30308  1.0000
  S   S226      1.0  0.54458  0.32921  0.10875  1.0000
  C   C557      1.0  0.51643  0.32743  0.22008  1.0000
  C   C558      1.0  0.51025  0.51962  0.04198  1.0000
  N   N56       1.0  0.51059  0.49325  0.06150  1.0000
  H   H889      1.0  0.58602  0.65134  0.24290  1.0000
  H   H890      1.0  0.71346  0.59440  0.55874  1.0000
  C   C559      1.0  0.72112  0.64973  0.60089  1.0000
  H   H891      1.0  0.66255  0.51940  0.54195  1.0000
  Fe  Fe111     1.0  0.73423  0.46319  0.43733  1.0000
  S   S227      1.0  0.68504  0.46067  0.43330  1.0000
  S   S228      1.0  0.74879  0.50573  0.44887  1.0000
  H   H892      1.0  0.67818  0.60835  0.38712  1.0000
  H   H893      1.0  0.74097  0.59976  0.58424  1.0000
  H   H894      1.0  0.68711  0.49021  0.53292  1.0000
  C   C560      1.0  0.73427  0.61512  0.39444  1.0000
  Fe  Fe112     1.0  0.55980  0.35152  0.40820  1.0000
  S   S229      1.0  0.60723  0.35554  0.42018  1.0000
  H   H895      1.0  0.52299  0.64851  0.41966  1.0000
  S   S230      1.0  0.58813  0.62965  0.49157  1.0000
  H   H896      1.0  0.67261  0.63235  0.55139  1.0000
  Fe  Fe113     1.0  0.56313  0.62929  0.57530  1.0000
  S   S231      1.0  0.56648  0.59021  0.54980  1.0000
  C   C561      1.0  0.74320  0.53303  0.57869  1.0000
  Fe  Fe114     1.0  0.60891  0.60668  0.53106  1.0000
  S   S232      1.0  0.64956  0.57811  0.52670  1.0000
  Fe  Fe115     1.0  0.54535  0.61750  0.51280  1.0000
  H   H897      1.0  0.67169  0.63006  0.49425  1.0000
  H   H898      1.0  0.75291  0.62474  0.40390  1.0000
  H   H899      1.0  0.73760  0.62238  0.55063  1.0000
  C   C562      1.0  0.61725  0.50496  0.51266  1.0000
  C   C563      1.0  0.75469  0.51827  0.55422  1.0000
  H   H900      1.0  0.61600  0.52771  0.51737  1.0000
  H   H901      1.0  0.67391  0.59826  0.59559  1.0000
  H   H902      1.0  0.68497  0.50343  0.47953  1.0000
  S   S233      1.0  0.74517  0.55753  0.63230  1.0000
  C   C564      1.0  0.68282  0.58645  0.50786  1.0000
  C   C565      1.0  0.70482  0.56498  0.50775  1.0000
  C   C566      1.0  0.73199  0.56961  0.49406  1.0000
  C   C567      1.0  0.73805  0.59597  0.48048  1.0000
  C   C568      1.0  0.71638  0.61807  0.48078  1.0000
  C   C569      1.0  0.68851  0.61320  0.49419  1.0000
  H   H903      1.0  0.70108  0.54452  0.51861  1.0000
  H   H904      1.0  0.74084  0.51367  0.53656  1.0000
  H   H905      1.0  0.74353  0.60160  0.37675  1.0000
  S   S234      1.0  0.53118  0.37370  0.37311  1.0000
  H   H906      1.0  0.63832  0.45098  0.52085  1.0000
  C   C570      1.0  0.74778  0.54817  0.34992  1.0000
  H   H907      1.0  0.73483  0.63811  0.61801  1.0000
  Fe  Fe116     1.0  0.52319  0.33089  0.35806  1.0000
  C   C571      1.0  0.62850  0.38525  0.42278  1.0000
  C   C572      1.0  0.65831  0.38063  0.42843  1.0000
  C   C573      1.0  0.67606  0.40339  0.43119  1.0000
  C   C574      1.0  0.66415  0.43113  0.42852  1.0000
  C   C575      1.0  0.63433  0.43577  0.42293  1.0000
  C   C576      1.0  0.61661  0.41302  0.41998  1.0000
  H   H908      1.0  0.66779  0.35929  0.43063  1.0000
  H   H909      1.0  0.69889  0.39943  0.43558  1.0000
  H   H910      1.0  0.62485  0.45713  0.42077  1.0000
  H   H911      1.0  0.59377  0.41696  0.41565  1.0000
  S   S235      1.0  0.52335  0.34651  0.44322  1.0000
  C   C577      1.0  0.72504  0.61091  0.56890  1.0000
  H   H912      1.0  0.60468  0.50306  0.49229  1.0000
  H   H913      1.0  0.70737  0.56058  0.32892  1.0000
  H   H914      1.0  0.72108  0.63870  0.47077  1.0000
  H   H915      1.0  0.67032  0.62729  0.61921  1.0000
  H   H916      1.0  0.67126  0.45524  0.49840  1.0000
  C   C578      1.0  0.68636  0.61355  0.60686  1.0000
  H   H917      1.0  0.59695  0.60048  0.63579  1.0000
  H   H918      1.0  0.69985  0.60117  0.62376  1.0000
  C   C579      1.0  0.73015  0.56464  0.32973  1.0000
  H   H919      1.0  0.69623  0.61055  0.35080  1.0000
  H   H920      1.0  0.67142  0.63879  0.36168  1.0000
  N   N57       1.0  0.70454  0.63018  0.58503  1.0000
  H   H921      1.0  0.73858  0.53164  0.36453  1.0000
  H   H922      1.0  0.66028  0.53325  0.48606  1.0000
  H   H923      1.0  0.65092  0.50738  0.46150  1.0000
  H   H924      1.0  0.65446  0.48435  0.55531  1.0000
  C   C580      1.0  0.66159  0.51028  0.48282  1.0000
  H   H925      1.0  0.72038  0.53983  0.57960  1.0000
  S   S236      1.0  0.54157  0.63125  0.62132  1.0000
  H   H926      1.0  0.63677  0.46089  0.48148  1.0000
  H   H927      1.0  0.60607  0.49331  0.53178  1.0000
  H   H928      1.0  0.73690  0.64210  0.34026  1.0000
  N   N58       1.0  0.64776  0.49408  0.50837  1.0000
  C   C581      1.0  0.64850  0.46397  0.50212  1.0000
  C   C582      1.0  0.66368  0.49710  0.53583  1.0000
  H   H929      1.0  0.72459  0.60107  0.41264  1.0000
  H   H930      1.0  0.74859  0.55251  0.49420  1.0000
  S   S237      1.0  0.51142  0.60251  0.48322  1.0000
  N   N59       1.0  0.71274  0.63683  0.38236  1.0000
  C   C583      1.0  0.68852  0.62301  0.36996  1.0000
  C   C584      1.0  0.68567  0.64652  0.56342  1.0000
  S   S238      1.0  0.60721  0.64340  0.55997  1.0000
  H   H931      1.0  0.58856  0.64202  0.32605  1.0000
  H   H932      1.0  0.68986  0.64155  0.42470  1.0000
  Fe  Fe117     1.0  0.73912  0.61707  0.71694  1.0000
  S   S239      1.0  0.69963  0.64352  0.73274  1.0000
  H   H933      1.0  0.65733  0.59286  0.83098  1.0000
  H   H934      1.0  0.55959  0.61480  0.88761  1.0000
  H   H935      1.0  0.69078  0.52993  0.79460  1.0000
  S   S240      1.0  0.75611  0.46066  0.96181  1.0000
  C   C585      1.0  0.67074  0.58113  0.77350  1.0000
  Fe  Fe118     1.0  0.59481  0.63524  0.78275  1.0000
  S   S241      1.0  0.60435  0.60702  0.74440  1.0000
  C   C586      1.0  0.70536  0.54733  0.79697  1.0000
  S   S242      1.0  0.62152  0.60992  0.89101  1.0000
  H   H936      1.0  0.72404  0.59867  0.78192  1.0000
  H   H937      1.0  0.73838  0.61556  0.95604  1.0000
  C   C587      1.0  0.59415  0.61723  0.91804  1.0000
  S   S243      1.0  0.73725  0.57033  0.71619  1.0000
  H   H938      1.0  0.68421  0.58198  0.75234  1.0000
  S   S244      1.0  0.63239  0.64540  0.80976  1.0000
  C   C588      1.0  0.54297  0.62623  0.93082  1.0000
  C   C589      1.0  0.56511  0.61902  0.90997  1.0000
  C   C590      1.0  0.51912  0.57255  0.78513  1.0000
  H   H939      1.0  0.72053  0.54810  0.77699  1.0000
  C   C591      1.0  0.60143  0.60451  0.68325  1.0000
  C   C592      1.0  0.58972  0.61676  0.70908  1.0000
  C   C593      1.0  0.56472  0.63461  0.70699  1.0000
  H   H940      1.0  0.62095  0.59074  0.68463  1.0000
  H   H941      1.0  0.74419  0.57850  0.96570  1.0000
  H   H942      1.0  0.69713  0.61821  0.80316  1.0000
  C   C594      1.0  0.55010  0.63839  0.68011  1.0000
  S   S245      1.0  0.56869  0.61877  0.82301  1.0000
  H   H943      1.0  0.65897  0.60215  0.77421  1.0000
  H   H944      1.0  0.65372  0.55622  0.82637  1.0000
  H   H945      1.0  0.71880  0.54148  0.81677  1.0000
  H   H946      1.0  0.65423  0.56533  0.77164  1.0000
  Fe  Fe119     1.0  0.60423  0.63302  0.84960  1.0000
  H   H947      1.0  0.72235  0.59344  0.82209  1.0000
  C   C595      1.0  0.66978  0.57260  0.82742  1.0000
  N   N60       1.0  0.68870  0.57457  0.79996  1.0000
  H   H948      1.0  0.67387  0.51751  0.95934  1.0000
  C   C596      1.0  0.58786  0.60996  0.65560  1.0000
  C   C597      1.0  0.70899  0.59718  0.80196  1.0000
  H   H949      1.0  0.68270  0.56725  0.84771  1.0000
  H   H950      1.0  0.62352  0.62193  0.95325  1.0000
  H   H951      1.0  0.54320  0.57098  0.78113  1.0000
  C   C598      1.0  0.65060  0.52499  0.95758  1.0000
  C   C599      1.0  0.54982  0.63207  0.95972  1.0000
  H   H952      1.0  0.55614  0.64495  0.72629  1.0000
  C   C600      1.0  0.57885  0.62975  0.96807  1.0000
  H   H953      1.0  0.64776  0.53486  0.93453  1.0000
  H   H954      1.0  0.65740  0.58051  0.95373  1.0000
  C   C601      1.0  0.56176  0.62659  0.65415  1.0000
  H   H955      1.0  0.63770  0.50587  0.96014  1.0000
  H   H956      1.0  0.60677  0.56406  0.95450  1.0000
  H   H957      1.0  0.53624  0.58655  0.72856  1.0000
  C   C602      1.0  0.60106  0.62255  0.94714  1.0000
  H   H958      1.0  0.54071  0.62130  0.76779  1.0000
  H   H959      1.0  0.52958  0.65043  0.67962  1.0000
  C   C603      1.0  0.61077  0.55428  0.97738  1.0000
  C   C604      1.0  0.51662  0.62217  0.77006  1.0000
  H   H960      1.0  0.52056  0.62711  0.92446  1.0000
  C   C605      1.0  0.74197  0.59959  0.97511  1.0000
  C   C606      1.0  0.51229  0.58818  0.73331  1.0000
  N   N61       1.0  0.64172  0.54496  0.98055  1.0000
  C   C607      1.0  0.65972  0.56968  0.97646  1.0000
  H   H961      1.0  0.68313  0.56339  0.97913  1.0000
  H   H962      1.0  0.51485  0.57721  0.80899  1.0000
  H   H963      1.0  0.51090  0.55151  0.78199  1.0000
  H   H964      1.0  0.59650  0.53629  0.98128  1.0000
  H   H965      1.0  0.51024  0.62876  0.79288  1.0000
  H   H966      1.0  0.51668  0.73174  0.21567  1.0000
  S   S246      1.0  0.51763  0.76623  0.28815  1.0000
  H   H967      1.0  0.53937  0.82166  0.25549  1.0000
  H   H968      1.0  0.71455  0.73942  0.21157  1.0000
  Fe  Fe120     1.0  0.74772  0.68398  0.19977  1.0000
  Fe  Fe121     1.0  0.53600  0.72150  0.28534  1.0000
  H   H969      1.0  0.57605  0.88620  0.22585  1.0000
  H   H970      1.0  0.74594  0.77643  0.07954  1.0000
  N   N62       1.0  0.73969  0.86635  0.00929  1.0000
  H   H971      1.0  0.74506  0.74548  0.12694  1.0000
  C   C608      1.0  0.53982  0.66547  0.17267  1.0000
  C   C609      1.0  0.61017  0.72100  0.09590  1.0000
  Fe  Fe122     1.0  0.68378  0.68625  0.21940  1.0000
  S   S247      1.0  0.65051  0.71843  0.23731  1.0000
  S   S248      1.0  0.72448  0.68542  0.24496  1.0000
  H   H972      1.0  0.62366  0.72872  0.11330  1.0000
  H   H973      1.0  0.56879  0.78170  0.08201  1.0000
  S   S249      1.0  0.52715  0.68437  0.25900  1.0000
  S   S250      1.0  0.54466  0.78404  0.17096  1.0000
  H   H974      1.0  0.58186  0.85131  0.24309  1.0000
  H   H975      1.0  0.59041  0.77138  0.11378  1.0000
  H   H976      1.0  0.73000  0.82831  0.98973  1.0000
  C   C610      1.0  0.52957  0.68751  0.21970  1.0000
  H   H977      1.0  0.56091  0.72157  0.06497  1.0000
  C   C611      1.0  0.71943  0.84453  0.00398  1.0000
  C   C612      1.0  0.62008  0.76098  0.06152  1.0000
  S   S251      1.0  0.73890  0.65516  0.11217  1.0000
  H   H978      1.0  0.52232  0.87472  0.19260  1.0000
  C   C613      1.0  0.57206  0.76365  0.19075  1.0000
  C   C614      1.0  0.58137  0.77213  0.21781  1.0000
  C   C615      1.0  0.60587  0.75846  0.23120  1.0000
  C   C616      1.0  0.62094  0.73564  0.21821  1.0000
  C   C617      1.0  0.61187  0.72706  0.19106  1.0000
  C   C618      1.0  0.58775  0.74132  0.17721  1.0000
  H   H979      1.0  0.57037  0.78982  0.22805  1.0000
  H   H980      1.0  0.61322  0.76577  0.25176  1.0000
  H   H981      1.0  0.62326  0.70943  0.18083  1.0000
  H   H982      1.0  0.58088  0.73466  0.15623  1.0000
  S   S252      1.0  0.70615  0.68565  0.17425  1.0000
  H   H983      1.0  0.63370  0.77005  0.07792  1.0000
  H   H984      1.0  0.62633  0.81318  0.99700  1.0000
  H   H985      1.0  0.59488  0.68505  0.25394  1.0000
  C   C619      1.0  0.74847  0.72726  0.11275  1.0000
  H   H986      1.0  0.61072  0.77881  0.04679  1.0000
  C   C620      1.0  0.53287  0.87587  0.26709  1.0000
  H   H987      1.0  0.62670  0.68819  0.29627  1.0000
  H   H988      1.0  0.71879  0.87726  0.05114  1.0000
  C   C621      1.0  0.56799  0.86458  0.22733  1.0000
  C   C622      1.0  0.68253  0.81650  0.31238  1.0000
  S   S253      1.0  0.53584  0.69478  0.11742  1.0000
  Fe  Fe123     1.0  0.56141  0.77527  0.30511  1.0000
  H   H989      1.0  0.63464  0.74758  0.04716  1.0000
  H   H990      1.0  0.74899  0.70026  0.06297  1.0000
  H   H991      1.0  0.70303  0.73884  0.26533  1.0000
  H   H992      1.0  0.72838  0.75044  0.06046  1.0000
  Fe  Fe124     1.0  0.54705  0.65603  0.09247  1.0000
  C   C623      1.0  0.57820  0.76321  0.09564  1.0000
  H   H993      1.0  0.75973  0.71000  0.12668  1.0000
  H   H994      1.0  0.56907  0.75068  0.03935  1.0000
  N   N63       1.0  0.59691  0.74461  0.07687  1.0000
  S   S254      1.0  0.57468  0.65661  0.04989  1.0000
  H   H995      1.0  0.59328  0.70835  0.10793  1.0000
  C   C624      1.0  0.53726  0.66348  0.20407  1.0000
  H   H996      1.0  0.72734  0.81497  0.21711  1.0000
  S   S255      1.0  0.52213  0.79033  0.02371  1.0000
  H   H997      1.0  0.68724  0.76748  0.20672  1.0000
  S   S256      1.0  0.58064  0.73210  0.29718  1.0000
  C   C625      1.0  0.70152  0.76224  0.26408  1.0000
  C   C626      1.0  0.52420  0.71481  0.17240  1.0000
  H   H998      1.0  0.70894  0.76864  0.28571  1.0000
  H   H999      1.0  0.52604  0.90474  0.21404  1.0000
  Fe  Fe125     1.0  0.75273  0.84731  0.30189  1.0000
  C   C627      1.0  0.62310  0.81478  0.30005  1.0000
  H   H1000     1.0  0.69100  0.81167  0.23298  1.0000
  H   H1001     1.0  0.62247  0.66249  0.23730  1.0000
  C   C628      1.0  0.72510  0.88715  0.02876  1.0000
  C   C629      1.0  0.71434  0.80523  0.23617  1.0000
  H   H1002     1.0  0.62418  0.70632  0.08246  1.0000
  H   H1003     1.0  0.67742  0.66766  0.11344  1.0000
  H   H1004     1.0  0.57556  0.67325  0.30520  1.0000
  H   H1005     1.0  0.59226  0.71888  0.03992  1.0000
  C   C630      1.0  0.53344  0.69127  0.15678  1.0000
  C   C631      1.0  0.71078  0.76272  0.21066  1.0000
  C   C632      1.0  0.75037  0.76667  0.24359  1.0000
  H   H1006     1.0  0.72072  0.81459  0.25677  1.0000
  N   N64       1.0  0.53697  0.86463  0.23717  1.0000
  H   H1007     1.0  0.57168  0.85578  0.20500  1.0000
  H   H1008     1.0  0.54546  0.86267  0.28411  1.0000
  C   C633      1.0  0.63333  0.66540  0.29531  1.0000
  C   C634      1.0  0.57911  0.73340  0.05425  1.0000
  N   N65       1.0  0.71927  0.77421  0.23860  1.0000
  C   C635      1.0  0.74982  0.75719  0.06691  1.0000
  H   H1009     1.0  0.54000  0.89776  0.26699  1.0000
  S   S257      1.0  0.58569  0.81477  0.29298  1.0000
  H   H1010     1.0  0.71183  0.83341  0.02526  1.0000
  C   C636      1.0  0.66859  0.83892  0.29571  1.0000
  H   H1011     1.0  0.65375  0.66415  0.28116  1.0000
  H   H1012     1.0  0.62816  0.85569  0.27716  1.0000
  H   H1013     1.0  0.52087  0.79469  0.08694  1.0000
  H   H1014     1.0  0.73964  0.90420  0.03261  1.0000
  H   H1015     1.0  0.55968  0.75191  0.10666  1.0000
  S   S258      1.0  0.74650  0.89444  0.29331  1.0000
  H   H1016     1.0  0.75476  0.74338  0.24609  1.0000
  C   C637      1.0  0.52735  0.83551  0.23869  1.0000
  H   H1017     1.0  0.72372  0.77129  0.19094  1.0000
  C   C638      1.0  0.51957  0.88254  0.21544  1.0000
  S   S259      1.0  0.74929  0.95579  0.99269  1.0000
  C   C639      1.0  0.63888  0.83815  0.28981  1.0000
  H   H1018     1.0  0.68066  0.85687  0.28749  1.0000
  H   H1019     1.0  0.67806  0.76903  0.26226  1.0000
  C   C640      1.0  0.52290  0.71317  0.20382  1.0000
  C   C641      1.0  0.60314  0.66263  0.25300  1.0000
  H   H1020     1.0  0.53091  0.82590  0.21682  1.0000
  H   H1021     1.0  0.51854  0.73454  0.16005  1.0000
  H   H1022     1.0  0.72692  0.71959  0.10801  1.0000
  H   H1023     1.0  0.70519  0.89739  0.01859  1.0000
  H   H1024     1.0  0.69989  0.85369  0.99220  1.0000
  H   H1025     1.0  0.75754  0.77551  0.26426  1.0000
  Fe  Fe126     1.0  0.75126  0.82380  0.59218  1.0000
  H   H1026     1.0  0.55223  0.79525  0.58051  1.0000
  Fe  Fe127     1.0  0.58407  0.66562  0.52140  1.0000
  H   H1027     1.0  0.61763  0.74829  0.59698  1.0000
  C   C642      1.0  0.60273  0.70823  0.46552  1.0000
  H   H1028     1.0  0.73586  0.66178  0.58518  1.0000
  Fe  Fe128     1.0  0.68517  0.81905  0.60426  1.0000
  S   S260      1.0  0.69208  0.77971  0.63444  1.0000
  S   S261      1.0  0.63853  0.83681  0.59929  1.0000
  S   S262      1.0  0.71866  0.84301  0.62569  1.0000
  H   H1029     1.0  0.59525  0.78644  0.54511  1.0000
  Fe  Fe129     1.0  0.56602  0.72160  0.34432  1.0000
  S   S263      1.0  0.71636  0.80369  0.56870  1.0000
  C   C643      1.0  0.58503  0.83957  0.51466  1.0000
  C   C644      1.0  0.57150  0.84365  0.54266  1.0000
  C   C645      1.0  0.58829  0.84306  0.56828  1.0000
  C   C646      1.0  0.61861  0.83771  0.56628  1.0000
  C   C647      1.0  0.63216  0.83344  0.53831  1.0000
  C   C648      1.0  0.61545  0.83478  0.51256  1.0000
  H   H1030     1.0  0.54814  0.84755  0.54453  1.0000
  H   H1031     1.0  0.57768  0.84654  0.58982  1.0000
  H   H1032     1.0  0.65547  0.82923  0.53648  1.0000
  H   H1033     1.0  0.74254  0.88408  0.50881  1.0000
  C   C649      1.0  0.61760  0.68437  0.45463  1.0000
  H   H1034     1.0  0.62612  0.83160  0.49099  1.0000
  C   C650      1.0  0.70122  0.65441  0.40659  1.0000
  C   C651      1.0  0.61788  0.68006  0.42404  1.0000
  H   H1035     1.0  0.69805  0.94114  0.54502  1.0000
  N   N66       1.0  0.71178  0.89732  0.54319  1.0000
  H   H1036     1.0  0.56091  0.71813  0.59951  1.0000
  C   C652      1.0  0.60385  0.70001  0.40439  1.0000
  H   H1037     1.0  0.62792  0.66871  0.46997  1.0000
  C   C653      1.0  0.68509  0.88729  0.55882  1.0000
  H   H1038     1.0  0.61044  0.75131  0.54200  1.0000
  S   S264      1.0  0.59403  0.70920  0.50372  1.0000
  S   S265      1.0  0.73430  0.72353  0.58277  1.0000
  H   H1039     1.0  0.60151  0.78348  0.59913  1.0000
  S   S266      1.0  0.56496  0.84055  0.48177  1.0000
  C   C654      1.0  0.57087  0.72531  0.57743  1.0000
  H   H1040     1.0  0.72664  0.85595  0.53073  1.0000
  H   H1041     1.0  0.74462  0.66630  0.36721  1.0000
  H   H1042     1.0  0.59138  0.71205  0.57426  1.0000
  C   C655      1.0  0.72193  0.87758  0.52041  1.0000
  H   H1043     1.0  0.63842  0.65716  0.31844  1.0000
  H   H1044     1.0  0.68891  0.86568  0.56953  1.0000
  C   C656      1.0  0.52076  0.68599  0.46083  1.0000
  H   H1045     1.0  0.66711  0.88644  0.54318  1.0000
  H   H1046     1.0  0.55604  0.72062  0.55969  1.0000
  H   H1047     1.0  0.58736  0.75475  0.62222  1.0000
  C   C657      1.0  0.59116  0.72942  0.44553  1.0000
  Fe  Fe130     1.0  0.72644  0.76653  0.60052  1.0000
  H   H1048     1.0  0.67732  0.90115  0.57687  1.0000
  S   S267      1.0  0.59826  0.69148  0.36787  1.0000
  H   H1049     1.0  0.68840  0.92538  0.51172  1.0000
  H   H1050     1.0  0.67723  0.77591  0.33586  1.0000
  H   H1051     1.0  0.53737  0.76590  0.60192  1.0000
  H   H1052     1.0  0.68538  0.67142  0.39811  1.0000
  H   H1053     1.0  0.58195  0.74111  0.39958  1.0000
  C   C658      1.0  0.73466  0.89877  0.56509  1.0000
  C   C659      1.0  0.70551  0.92565  0.52843  1.0000
  H   H1054     1.0  0.57502  0.76143  0.52805  1.0000
  H   H1055     1.0  0.57988  0.74803  0.45395  1.0000
  H   H1056     1.0  0.70554  0.87629  0.50315  1.0000
  S   S268      1.0  0.54880  0.76544  0.35340  1.0000
  H   H1057     1.0  0.54736  0.67543  0.40775  1.0000
  H   H1058     1.0  0.51847  0.66405  0.47051  1.0000
  N   N67       1.0  0.60150  0.83129  0.39684  1.0000
  C   C660      1.0  0.59709  0.80772  0.41957  1.0000
  C   C661      1.0  0.58447  0.82738  0.37040  1.0000
  C   C662      1.0  0.63271  0.83177  0.38781  1.0000
  C   C663      1.0  0.59164  0.85823  0.40951  1.0000
  H   H1059     1.0  0.75551  0.90526  0.55397  1.0000
  H   H1060     1.0  0.60457  0.78708  0.41089  1.0000
  H   H1061     1.0  0.57373  0.80661  0.42673  1.0000
  H   H1062     1.0  0.74733  0.72109  0.64770  1.0000
  H   H1063     1.0  0.59146  0.80732  0.36022  1.0000
  H   H1064     1.0  0.56079  0.82678  0.37632  1.0000
  H   H1065     1.0  0.63677  0.84871  0.36994  1.0000
  H   H1066     1.0  0.64096  0.81146  0.37881  1.0000
  H   H1067     1.0  0.64617  0.83535  0.40709  1.0000
  H   H1068     1.0  0.73964  0.87797  0.57695  1.0000
  H   H1069     1.0  0.62754  0.66061  0.41597  1.0000
  H   H1070     1.0  0.60362  0.86166  0.42990  1.0000
  N   N68       1.0  0.57648  0.75563  0.57603  1.0000
  C   C664      1.0  0.54873  0.77237  0.58039  1.0000
  C   C665      1.0  0.59660  0.76084  0.59961  1.0000
  C   C666      1.0  0.58986  0.76406  0.54650  1.0000
  C   C667      1.0  0.59196  0.72534  0.41484  1.0000
  H   H1071     1.0  0.53358  0.76976  0.56219  1.0000
  H   H1072     1.0  0.60920  0.81022  0.44012  1.0000
  H   H1073     1.0  0.54433  0.68993  0.45987  1.0000
  H   H1074     1.0  0.72525  0.93371  0.51635  1.0000
  H   H1075     1.0  0.58727  0.84468  0.35265  1.0000
  S   S269      1.0  0.52254  0.70844  0.33255  1.0000
  H   H1076     1.0  0.67017  0.66152  0.57484  1.0000
  C   C668      1.0  0.63710  0.79233  0.31656  1.0000
  H   H1077     1.0  0.56809  0.85853  0.41638  1.0000
  H   H1078     1.0  0.72816  0.91367  0.58256  1.0000
  H   H1079     1.0  0.59483  0.87651  0.39307  1.0000
  H   H1080     1.0  0.71119  0.67081  0.34791  1.0000
  H   H1081     1.0  0.55971  0.97948  0.57562  1.0000
  H   H1082     1.0  0.70647  0.66543  0.61227  1.0000
  H   H1083     1.0  0.71895  0.66471  0.41697  1.0000
  H   H1084     1.0  0.53412  0.72533  0.41757  1.0000
  Fe  Fe131     1.0  0.51633  0.83447  0.48067  1.0000
  H   H1085     1.0  0.65614  0.67503  0.63622  1.0000
  C   C669      1.0  0.66657  0.79338  0.32300  1.0000
  H   H1086     1.0  0.52064  0.98175  0.57813  1.0000
  C   C670      1.0  0.72688  0.65480  0.35841  1.0000
  S   S270      1.0  0.75472  0.96711  0.56325  1.0000
  H   H1087     1.0  0.62522  0.77418  0.32451  1.0000
  S   S271      1.0  0.71998  0.81566  0.31968  1.0000
  H   H1088     1.0  0.51457  0.67263  0.38812  1.0000
  C   C671      1.0  0.52397  0.67089  0.41063  1.0000
  H   H1089     1.0  0.74937  0.68424  0.53731  1.0000
  C   C672      1.0  0.75697  0.72595  0.54998  1.0000
  H   H1090     1.0  0.69863  0.65912  0.54638  1.0000
  S   S272      1.0  0.53955  0.65572  0.53921  1.0000
  C   C673      1.0  0.51113  0.71979  0.41904  1.0000
  Fe  Fe132     1.0  0.55416  0.71154  0.67019  1.0000
  C   C674      1.0  0.72667  0.80535  0.74229  1.0000
  H   H1091     1.0  0.69894  0.93044  0.84038  1.0000
  H   H1092     1.0  0.63762  0.84757  0.89034  1.0000
  S   S273      1.0  0.54192  0.75795  0.66788  1.0000
  N   N69       1.0  0.62747  0.76306  0.72771  1.0000
  H   H1093     1.0  0.75397  0.87438  0.88038  1.0000
  C   C675      1.0  0.60837  0.74305  0.74433  1.0000
  S   S274      1.0  0.58340  0.67619  0.85415  1.0000
  H   H1094     1.0  0.67478  0.95506  0.88359  1.0000
  C   C676      1.0  0.52744  0.76379  0.84454  1.0000
  C   C677      1.0  0.72615  0.82058  0.80264  1.0000
  Fe  Fe133     1.0  0.54036  0.84541  0.92690  1.0000
  S   S275      1.0  0.58104  0.86708  0.91245  1.0000
  S   S276      1.0  0.54914  0.79975  0.94065  1.0000
  Fe  Fe134     1.0  0.72264  0.79087  0.94444  1.0000
  H   H1095     1.0  0.66448  0.93468  0.91729  1.0000
  S   S277      1.0  0.72860  0.76478  0.90480  1.0000
  C   C678      1.0  0.72697  0.72132  0.70501  1.0000
  C   C679      1.0  0.73587  0.79374  0.79518  1.0000
  H   H1096     1.0  0.69567  0.65232  0.66770  1.0000
  H   H1097     1.0  0.70887  0.89326  0.84544  1.0000
  C   C680      1.0  0.60971  0.84752  0.93007  1.0000
  C   C681      1.0  0.60643  0.83743  0.96005  1.0000
  C   C682      1.0  0.64501  0.66738  0.72236  1.0000
  C   C683      1.0  0.65481  0.81434  0.95760  1.0000
  C   C684      1.0  0.65798  0.82412  0.92753  1.0000
  C   C685      1.0  0.63546  0.84076  0.91381  1.0000
  H   H1098     1.0  0.71742  0.73858  0.68980  1.0000
  H   H1099     1.0  0.70978  0.84791  0.73177  1.0000
  H   H1100     1.0  0.67751  0.81837  0.91462  1.0000
  C   C686      1.0  0.73682  0.71734  0.80101  1.0000
  C   C687      1.0  0.72366  0.73181  0.82454  1.0000
  C   C688      1.0  0.69321  0.73374  0.82858  1.0000
  C   C689      1.0  0.67564  0.71931  0.81070  1.0000
  S   S278      1.0  0.72755  0.83037  0.84026  1.0000
  C   C690      1.0  0.71947  0.70095  0.78484  1.0000
  H   H1101     1.0  0.73691  0.74197  0.83941  1.0000
  H   H1102     1.0  0.68350  0.74669  0.84550  1.0000
  H   H1103     1.0  0.72930  0.68792  0.76801  1.0000
  S   S279      1.0  0.53536  0.78357  0.74375  1.0000
  C   C691      1.0  0.71608  0.84005  0.77960  1.0000
  H   H1104     1.0  0.65193  0.73082  0.70459  1.0000
  C   C692      1.0  0.68903  0.70194  0.78961  1.0000
  S   S280      1.0  0.73948  0.82944  0.92073  1.0000
  H   H1105     1.0  0.60193  0.68634  0.71503  1.0000
  Fe  Fe135     1.0  0.74735  0.80350  0.88060  1.0000
  H   H1106     1.0  0.57913  0.76694  0.88878  1.0000
  H   H1107     1.0  0.64112  0.71594  0.87388  1.0000
  C   C693      1.0  0.62628  0.68214  0.67348  1.0000
  H   H1108     1.0  0.65303  0.76565  0.68655  1.0000
  H   H1109     1.0  0.65605  0.88642  0.85672  1.0000
  C   C694      1.0  0.71671  0.83261  0.74942  1.0000
  H   H1110     1.0  0.60127  0.79926  0.74101  1.0000
  C   C695      1.0  0.62239  0.67935  0.70461  1.0000
  H   H1111     1.0  0.72678  0.91795  0.86566  1.0000
  H   H1112     1.0  0.64716  0.92374  0.85443  1.0000
  S   S281      1.0  0.59902  0.69891  0.65061  1.0000
  C   C696      1.0  0.67145  0.65731  0.70923  1.0000
  H   H1113     1.0  0.69428  0.86613  0.89068  1.0000
  H   H1114     1.0  0.73996  0.68601  0.66200  1.0000
  C   C697      1.0  0.65480  0.90562  0.86970  1.0000
  S   S282      1.0  0.63729  0.72546  0.81309  1.0000
  H   H1115     1.0  0.60842  0.74249  0.94475  1.0000
  S   S283      1.0  0.53737  0.70385  0.71760  1.0000
  H   H1116     1.0  0.70848  0.86109  0.78496  1.0000
  H   H1117     1.0  0.67578  0.88294  0.92147  1.0000
  H   H1118     1.0  0.62985  0.70592  0.91151  1.0000
  C   C698      1.0  0.63884  0.75093  0.69978  1.0000
  H   H1119     1.0  0.66676  0.78370  0.73462  1.0000
  C   C699      1.0  0.52628  0.74227  0.82511  1.0000
  H   H1120     1.0  0.52722  0.73134  0.77919  1.0000
  C   C700      1.0  0.65207  0.76838  0.74629  1.0000
  C   C701      1.0  0.63968  0.72305  0.89699  1.0000
  H   H1121     1.0  0.67592  0.69021  0.77601  1.0000
  Fe  Fe136     1.0  0.54934  0.66328  0.82419  1.0000
  H   H1122     1.0  0.59192  0.78655  0.70626  1.0000
  H   H1123     1.0  0.62088  0.74621  0.68536  1.0000
  H   H1124     1.0  0.75402  0.88457  0.67846  1.0000
  H   H1125     1.0  0.64232  0.75928  0.93894  1.0000
  H   H1126     1.0  0.59917  0.75159  0.76547  1.0000
  C   C702      1.0  0.53511  0.77504  0.78247  1.0000
  C   C703      1.0  0.63623  0.77240  0.87953  1.0000
  H   H1127     1.0  0.70218  0.94002  0.90825  1.0000
  N   N70       1.0  0.75643  0.71177  0.69417  1.0000
  H   H1128     1.0  0.66234  0.72490  0.90395  1.0000
  Fe  Fe137     1.0  0.52316  0.74987  0.71429  1.0000
  Fe  Fe138     1.0  0.60961  0.68782  0.81222  1.0000
  S   S284      1.0  0.57354  0.67917  0.78198  1.0000
  H   H1129     1.0  0.60878  0.77904  0.93181  1.0000
  H   H1130     1.0  0.58966  0.73851  0.73091  1.0000
  H   H1131     1.0  0.63721  0.76757  0.85556  1.0000
  C   C704      1.0  0.52962  0.74787  0.79408  1.0000
  C   C705      1.0  0.67534  0.65985  0.67803  1.0000
  C   C706      1.0  0.61058  0.78985  0.72037  1.0000
  H   H1132     1.0  0.58126  0.73031  0.90168  1.0000
  C   C707      1.0  0.69198  0.88598  0.90258  1.0000
  H   H1133     1.0  0.64434  0.77687  0.76794  1.0000
  H   H1134     1.0  0.62381  0.79310  0.88083  1.0000
  Fe  Fe139     1.0  0.72680  0.80280  0.65451  1.0000
  H   H1135     1.0  0.72743  0.72958  0.72760  1.0000
  C   C708      1.0  0.59279  0.74690  0.88798  1.0000
  C   C709      1.0  0.62031  0.75801  0.92993  1.0000
  H   H1136     1.0  0.74382  0.76514  0.76027  1.0000
  N   N71       1.0  0.62226  0.75006  0.89859  1.0000
  H   H1137     1.0  0.59354  0.74094  0.86431  1.0000
  Fe  Fe140     1.0  0.51513  0.80686  0.97661  1.0000
  H   H1138     1.0  0.62428  0.80561  0.70798  1.0000
  H   H1139     1.0  0.71190  0.70383  0.70666  1.0000
  H   H1140     1.0  0.65881  0.77506  0.88626  1.0000
  H   H1141     1.0  0.62044  0.72265  0.75052  1.0000
  N   N72       1.0  0.68326  0.91028  0.88197  1.0000
  C   C710      1.0  0.65294  0.67257  0.66027  1.0000
  H   H1142     1.0  0.54332  0.81725  0.79310  1.0000
  H   H1143     1.0  0.66549  0.74864  0.75187  1.0000
  C   C711      1.0  0.73547  0.78593  0.76551  1.0000
  H   H1144     1.0  0.53657  0.80723  0.84805  1.0000
  C   C712      1.0  0.70536  0.91316  0.85721  1.0000
  H   H1145     1.0  0.75228  0.67021  0.71507  1.0000
  S   S285      1.0  0.72987  0.79395  0.70519  1.0000
  H   H1146     1.0  0.72999  0.89267  0.96941  1.0000
  C   C713      1.0  0.68102  0.93619  0.89848  1.0000
  C   C714      1.0  0.53468  0.79065  0.83312  1.0000
  H   H1147     1.0  0.74604  0.77982  0.81201  1.0000
  H   H1148     1.0  0.63771  0.90260  0.88785  1.0000
  C   C715      1.0  0.53865  0.79624  0.80204  1.0000
  H   H1149     1.0  0.71327  0.88885  0.91239  1.0000
  H   H1150     1.0  0.75821  0.86570  0.96443  1.0000
  H   H1151     1.0  0.58643  0.84238  0.97265  1.0000
  H   H1152     1.0  0.52192  0.72138  0.83414  1.0000
  S   S286      1.0  0.51769  0.75672  0.88255  1.0000
  S   S287      1.0  0.51236  0.70119  0.65018  1.0000
  C   C716      1.0  0.74858  0.88078  0.98039  1.0000
  S   S288      1.0  0.68254  0.79304  0.97473  1.0000
  C   C717      1.0  0.62900  0.82093  0.97383  1.0000
  H   H1153     1.0  0.64172  0.66542  0.74640  1.0000
  Fe  Fe141     1.0  0.51252  0.79313  0.91165  1.0000
  C   C718      1.0  0.75513  0.70316  0.66321  1.0000
  H   H1154     1.0  0.91828  0.16149  0.00931  1.0000
  H   H1155     1.0  0.96255  0.12879  0.00425  1.0000
  Fe  Fe142     1.0  0.76561  0.99937  0.98525  1.0000
  S   S289      1.0  0.80181  0.99098  0.01847  1.0000
  C   C719      1.0  0.97307  0.14679  0.99182  1.0000
  H   H1156     1.0  0.98389  0.15856  0.00836  1.0000
  H   H1157     1.0  0.94056  0.19091  0.01155  1.0000
  C   C720      1.0  0.93007  0.17799  0.99571  1.0000
  H   H1158     1.0  0.90716  0.07278  0.99142  1.0000
  H   H1159     1.0  0.87265  0.03463  0.99193  1.0000
  H   H1160     1.0  0.91364  0.19204  0.98358  1.0000
  H   H1161     1.0  0.81955  0.09220  0.49845  1.0000
  S   S290      1.0  0.87962  0.00619  0.55100  1.0000
  N   N73       1.0  0.82698  0.08824  0.54570  1.0000
  S   S291      1.0  0.80114  0.00184  0.59816  1.0000
  S   S292      1.0  0.80261  0.00306  0.52407  1.0000
  H   H1162     1.0  0.83039  0.05722  0.51297  1.0000
  H   H1163     1.0  0.98995  0.31212  0.47293  1.0000
  H   H1164     1.0  0.79403  0.07150  0.52055  1.0000
  S   S293      1.0  0.95306  0.08925  0.62034  1.0000
  H   H1165     1.0  0.86888  0.03302  0.60798  1.0000
  H   H1166     1.0  0.95374  0.29587  0.43883  1.0000
  H   H1167     1.0  0.95715  0.27487  0.48999  1.0000
  H   H1168     1.0  0.89767  0.06598  0.63357  1.0000
  C   C721      1.0  0.90023  0.02824  0.57145  1.0000
  C   C722      1.0  0.92767  0.03588  0.55973  1.0000
  C   C723      1.0  0.94435  0.05416  0.57454  1.0000
  C   C724      1.0  0.93361  0.06526  0.60119  1.0000
  C   C725      1.0  0.90613  0.05766  0.61289  1.0000
  C   C726      1.0  0.88964  0.03909  0.59830  1.0000
  H   H1169     1.0  0.93615  0.02761  0.53902  1.0000
  H   H1170     1.0  0.96542  0.05978  0.56523  1.0000
  H   H1171     1.0  0.86660  0.10141  0.56285  1.0000
  Fe  Fe143     1.0  0.00012  0.10226  0.61257  1.0000
  C   C727      1.0  0.81730  0.07684  0.51818  1.0000
  C   C728      1.0  0.80987  0.11475  0.55122  1.0000
  H   H1172     1.0  0.78617  0.11113  0.55396  1.0000
  C   C729      1.0  0.85826  0.09357  0.54218  1.0000
  H   H1173     1.0  0.83029  0.07489  0.59241  1.0000
  H   H1174     1.0  0.86260  0.10937  0.52328  1.0000
  C   C730      1.0  0.93849  0.31296  0.44696  1.0000
  N   N74       1.0  0.94352  0.31810  0.47841  1.0000
  C   C731      1.0  0.82240  0.06755  0.57133  1.0000
  H   H1175     1.0  0.83419  0.04702  0.56737  1.0000
  H   H1176     1.0  0.98497  0.21303  0.47697  1.0000
  Fe  Fe144     1.0  0.76933  0.01116  0.56142  1.0000
  H   H1177     1.0  0.81271  0.13093  0.53233  1.0000
  H   H1178     1.0  0.87157  0.07388  0.53758  1.0000
  H   H1179     1.0  0.81647  0.12376  0.57200  1.0000
  H   H1180     1.0  0.79895  0.06353  0.57518  1.0000
  H   H1181     1.0  0.91891  0.28329  0.49595  1.0000
  H   H1182     1.0  0.94456  0.29459  0.52119  1.0000
  Fe  Fe145     1.0  0.83369  0.99136  0.56106  1.0000
  C   C732      1.0  0.94083  0.29157  0.49728  1.0000
  H   H1183     1.0  0.91601  0.30660  0.44411  1.0000
  S   S294      1.0  0.00741  0.14611  0.62588  1.0000
  H   H1184     1.0  0.00261  0.18381  0.52155  1.0000
  S   S295      1.0  0.00644  0.26105  0.44256  1.0000
  S   S296      1.0  0.98496  0.31736  0.38284  1.0000
  C   C733      1.0  0.00485  0.21795  0.48695  1.0000
  H   H1185     1.0  0.98578  0.06697  0.71788  1.0000
  Fe  Fe146     1.0  0.00910  0.08686  0.94332  1.0000
  C   C734      1.0  0.94833  0.02677  0.95048  1.0000
  H   H1186     1.0  0.97970  0.07936  0.67968  1.0000
  C   C735      1.0  0.96046  0.13236  0.69210  1.0000
  H   H1187     1.0  0.95665  0.12760  0.66864  1.0000
  H   H1188     1.0  0.98437  0.17890  0.94188  1.0000
  H   H1189     1.0  0.98165  0.14250  0.69185  1.0000
  H   H1190     1.0  0.94871  0.12851  0.75193  1.0000
  C   C736      1.0  0.98385  0.08619  0.70231  1.0000
  S   S297      1.0  0.79483  0.98912  0.94527  1.0000
  H   H1191     1.0  0.91420  0.10846  0.71943  1.0000
  C   C737      1.0  0.93230  0.09372  0.71200  1.0000
  H   H1192     1.0  0.96777  0.09468  0.75902  1.0000
  H   H1193     1.0  0.97788  0.20134  0.97221  1.0000
  H   H1194     1.0  0.00532  0.09569  0.70084  1.0000
  H   H1195     1.0  0.92773  0.08808  0.68896  1.0000
  C   C738      1.0  0.94078  0.05130  0.96516  1.0000
  H   H1196     1.0  0.93185  0.07407  0.72698  1.0000
  H   H1197     1.0  0.98701  0.12429  0.74391  1.0000
  C   C739      1.0  0.96616  0.11378  0.74319  1.0000
  N   N75       1.0  0.96067  0.10652  0.71245  1.0000
  H   H1198     1.0  0.94325  0.14824  0.69896  1.0000
  H   H1199     1.0  0.95293  0.13817  0.93819  1.0000
  C   C740      1.0  0.92891  0.00487  0.95138  1.0000
  H   H1200     1.0  0.96909  0.02460  0.93850  1.0000
  C   C741      1.0  0.93706  0.14835  0.95410  1.0000
  C   C742      1.0  0.89361  0.03234  0.98027  1.0000
  H   H1201     1.0  0.92091  0.16150  0.94067  1.0000
  H   H1202     1.0  0.95193  0.20173  0.94344  1.0000
  S   S298      1.0  0.96501  0.07888  0.96676  1.0000
  C   C743      1.0  0.96710  0.18779  0.95728  1.0000
  C   C744      1.0  0.90142  0.00751  0.96625  1.0000
  N   N76       1.0  0.95181  0.16524  0.97471  1.0000
  H   H1203     1.0  0.92547  0.13098  0.96651  1.0000
  H   H1204     1.0  0.99036  0.13762  0.97672  1.0000
  H   H1205     1.0  0.93508  0.98582  0.94030  1.0000
  C   C745      1.0  0.91328  0.05396  0.97995  1.0000
  C   C746      1.0  0.84677  0.62920  0.27339  1.0000
  H   H1206     1.0  0.95909  0.60107  0.14393  1.0000
  C   C747      1.0  0.77115  0.59135  0.31206  1.0000
  S   S299      1.0  0.97766  0.33154  0.09159  1.0000
  H   H1207     1.0  0.87188  0.51024  0.06287  1.0000
  Fe  Fe147     1.0  0.78750  0.45346  0.99984  1.0000
  S   S300      1.0  0.81898  0.41489  0.00897  1.0000
  S   S301      1.0  0.79978  0.49850  0.99687  1.0000
  Fe  Fe148     1.0  0.98484  0.36752  0.05687  1.0000
  S   S302      1.0  0.95460  0.40410  0.03753  1.0000
  H   H1208     1.0  0.99875  0.51027  0.03050  1.0000
  Fe  Fe149     1.0  0.76278  0.50508  0.03056  1.0000
  S   S303      1.0  0.84852  0.62671  0.21193  1.0000
  Fe  Fe150     1.0  0.84314  0.60235  0.10955  1.0000
  C   C748      1.0  0.78540  0.57465  0.23181  1.0000
  S   S304      1.0  0.86670  0.56146  0.09787  1.0000
  H   H1209     1.0  0.85857  0.50413  0.11770  1.0000
  H   H1210     1.0  0.96810  0.63695  0.13522  1.0000
  S   S305      1.0  0.86896  0.63607  0.12554  1.0000
  S   S306      1.0  0.80994  0.60374  0.14765  1.0000
  H   H1211     1.0  0.98779  0.63766  0.18473  1.0000
  Fe  Fe151     1.0  0.83487  0.63819  0.16329  1.0000
  C   C749      1.0  0.76091  0.56679  0.11254  1.0000
  H   H1212     1.0  0.86629  0.61543  0.27266  1.0000
  C   C750      1.0  0.83957  0.49287  0.11127  1.0000
  H   H1213     1.0  0.91440  0.61644  0.21283  1.0000
  C   C751      1.0  0.83284  0.63779  0.24659  1.0000
  C   C752      1.0  0.76176  0.53309  0.25159  1.0000
  H   H1214     1.0  0.86808  0.44241  0.10882  1.0000
  C   C753      1.0  0.82129  0.46156  0.07733  1.0000
  H   H1215     1.0  0.82143  0.50918  0.10753  1.0000
  C   C754      1.0  0.96534  0.56199  0.07965  1.0000
  C   C755      1.0  0.94873  0.58764  0.07964  1.0000
  C   C756      1.0  0.91836  0.58781  0.08500  1.0000
  C   C757      1.0  0.90465  0.56239  0.09098  1.0000
  C   C758      1.0  0.92144  0.53688  0.09116  1.0000
  C   C759      1.0  0.95155  0.53668  0.08533  1.0000
  H   H1216     1.0  0.95913  0.60727  0.07472  1.0000
  H   H1217     1.0  0.90555  0.60757  0.08369  1.0000
  H   H1218     1.0  0.91123  0.51718  0.09601  1.0000
  H   H1219     1.0  0.96427  0.51684  0.08558  1.0000
  C   C760      1.0  0.85680  0.41235  0.01648  1.0000
  C   C761      1.0  0.86904  0.38711  0.03022  1.0000
  C   C762      1.0  0.89885  0.38410  0.03672  1.0000
  C   C763      1.0  0.91694  0.40631  0.02935  1.0000
  C   C764      1.0  0.90474  0.43153  0.01544  1.0000
  C   C765      1.0  0.87490  0.43455  0.00903  1.0000
  H   H1220     1.0  0.85536  0.36969  0.03588  1.0000
  H   H1221     1.0  0.90782  0.36456  0.04734  1.0000
  H   H1222     1.0  0.78019  0.60822  0.29792  1.0000
  H   H1223     1.0  0.86078  0.47369  0.30578  1.0000
  H   H1224     1.0  0.93180  0.62720  0.13118  1.0000
  H   H1225     1.0  0.78395  0.56971  0.11022  1.0000
  H   H1226     1.0  0.80183  0.52690  0.20619  1.0000
  H   H1227     1.0  0.77677  0.56173  0.00719  1.0000
  C   C766      1.0  0.85299  0.49784  0.05862  1.0000
  H   H1228     1.0  0.91850  0.44879  0.00939  1.0000
  H   H1229     1.0  0.89172  0.46886  0.09329  1.0000
  S   S307      1.0  0.81581  0.63085  0.07845  1.0000
  H   H1230     1.0  0.83427  0.51335  0.05450  1.0000
  S   S308      1.0  0.77300  0.52994  0.06961  1.0000
  C   C767      1.0  0.95096  0.62344  0.14545  1.0000
  H   H1231     1.0  0.97802  0.60266  0.19559  1.0000
  H   H1232     1.0  0.82536  0.45055  0.05636  1.0000
  Fe  Fe152     1.0  0.78510  0.63651  0.11785  1.0000
  C   C768      1.0  0.87198  0.45758  0.08923  1.0000
  H   H1233     1.0  0.77465  0.58868  0.24834  1.0000
  H   H1234     1.0  0.86602  0.45383  0.99780  1.0000
  H   H1235     1.0  0.76154  0.65023  0.98596  1.0000
  N   N77       1.0  0.94362  0.63002  0.17674  1.0000
  H   H1236     1.0  0.79108  0.58688  0.02974  1.0000
  H   H1237     1.0  0.00611  0.46779  0.08395  1.0000
  N   N78       1.0  0.84648  0.47746  0.08412  1.0000
  H   H1238     1.0  0.81626  0.44528  0.09552  1.0000
  C   C769      1.0  0.76396  0.63296  0.00396  1.0000
  C   C770      1.0  0.83600  0.63884  0.30109  1.0000
  C   C771      1.0  0.77238  0.58293  0.01595  1.0000
  H   H1239     1.0  0.85799  0.48706  0.03764  1.0000
  H   H1240     1.0  0.83306  0.47841  0.13061  1.0000
  N   N79       1.0  0.76804  0.60502  0.99142  1.0000
  H   H1241     1.0  0.87708  0.44487  0.06960  1.0000
  H   H1242     1.0  0.79140  0.58823  0.21154  1.0000
  H   H1243     1.0  0.92842  0.58890  0.18956  1.0000
  H   H1244     1.0  0.80146  0.47576  0.07426  1.0000
  C   C772      1.0  0.96985  0.62516  0.19465  1.0000
  S   S309      1.0  0.00314  0.56045  0.07170  1.0000
  H   H1245     1.0  0.90098  0.61437  0.17631  1.0000
  H   H1246     1.0  0.98264  0.46808  0.00588  1.0000
  H   H1247     1.0  0.97551  0.47136  0.06004  1.0000
  H   H1248     1.0  0.78274  0.63734  0.01738  1.0000
  H   H1249     1.0  0.80616  0.56574  0.24132  1.0000
  C   C773      1.0  0.92095  0.61155  0.18947  1.0000
  H   H1250     1.0  0.78270  0.52319  0.25971  1.0000
  H   H1251     1.0  0.00275  0.43490  0.01129  1.0000
  H   H1252     1.0  0.99464  0.43791  0.06613  1.0000
  C   C774      1.0  0.99757  0.46094  0.06292  1.0000
  H   H1253     1.0  0.96564  0.63148  0.21796  1.0000
  C   C775      1.0  0.00483  0.45818  0.00954  1.0000
  H   H1254     1.0  0.78320  0.55052  0.17937  1.0000
  C   C776      1.0  0.78008  0.53647  0.20012  1.0000
  H   H1255     1.0  0.89865  0.47639  0.31260  1.0000
  H   H1256     1.0  0.76637  0.51938  0.19424  1.0000
  N   N80       1.0  0.76630  0.55235  0.22468  1.0000
  H   H1257     1.0  0.81393  0.60820  0.98232  1.0000
  H   H1258     1.0  0.80544  0.55064  0.50154  1.0000
  N   N81       1.0  0.87116  0.47043  0.35222  1.0000
  H   H1259     1.0  0.88112  0.52412  0.48088  1.0000
  H   H1260     1.0  0.84383  0.51506  0.48405  1.0000
  Fe  Fe153     1.0  0.79701  0.43872  0.43030  1.0000
  S   S310      1.0  0.82536  0.40124  0.41467  1.0000
  S   S311      1.0  0.81534  0.47896  0.44109  1.0000
  H   H1261     1.0  0.92359  0.36013  0.47465  1.0000
  S   S312      1.0  0.96377  0.39201  0.41727  1.0000
  H   H1262     1.0  0.98389  0.57811  0.59967  1.0000
  H   H1263     1.0  0.85950  0.50527  0.37928  1.0000
  C   C777      1.0  0.82332  0.56240  0.50984  1.0000
  C   C778      1.0  0.89531  0.45906  0.37103  1.0000
  S   S313      1.0  0.82869  0.62253  0.40240  1.0000
  Fe  Fe154     1.0  0.99599  0.35932  0.39753  1.0000
  Fe  Fe155     1.0  0.79896  0.63379  0.44148  1.0000
  Fe  Fe156     1.0  0.86262  0.64447  0.42532  1.0000
  S   S314      1.0  0.90906  0.62547  0.42486  1.0000
  H   H1264     1.0  0.89057  0.46294  0.39501  1.0000
  C   C779      1.0  0.96622  0.61533  0.50703  1.0000
  C   C780      1.0  0.97727  0.60769  0.47900  1.0000
  C   C781      1.0  0.95941  0.61075  0.45409  1.0000
  C   C782      1.0  0.93063  0.62210  0.45682  1.0000
  C   C783      1.0  0.91977  0.63026  0.48471  1.0000
  N   N82       1.0  0.85046  0.55817  0.49152  1.0000
  H   H1265     1.0  0.92863  0.63232  0.53143  1.0000
  H   H1266     1.0  0.96795  0.60426  0.43262  1.0000
  C   C784      1.0  0.87324  0.57484  0.50268  1.0000
  H   H1267     1.0  0.83757  0.59014  0.45800  1.0000
  C   C785      1.0  0.87870  0.46562  0.32053  1.0000
  C   C786      1.0  0.78882  0.57488  0.33230  1.0000
  C   C787      1.0  0.00275  0.58420  0.61203  1.0000
  C   C788      1.0  0.86615  0.50101  0.35574  1.0000
  S   S315      1.0  0.76434  0.43841  0.46935  1.0000
  C   C789      1.0  0.78406  0.50917  0.55284  1.0000
  C   C790      1.0  0.86377  0.39839  0.41627  1.0000
  C   C791      1.0  0.87975  0.37853  0.39939  1.0000
  C   C792      1.0  0.91038  0.37623  0.39939  1.0000
  C   C793      1.0  0.92530  0.39364  0.41657  1.0000
  C   C794      1.0  0.90929  0.41324  0.43374  1.0000
  C   C795      1.0  0.87868  0.41565  0.43359  1.0000
  H   H1268     1.0  0.86837  0.36505  0.38596  1.0000
  H   H1269     1.0  0.92241  0.36119  0.38587  1.0000
  H   H1270     1.0  0.92064  0.42672  0.44720  1.0000
  H   H1271     1.0  0.86663  0.43080  0.44694  1.0000
  C   C796      1.0  0.92184  0.33990  0.48859  1.0000
  H   H1272     1.0  0.84837  0.51044  0.34147  1.0000
  C   C797      1.0  0.86011  0.52796  0.49347  1.0000
  S   S316      1.0  0.77303  0.59875  0.46328  1.0000
  C   C798      1.0  0.97691  0.62768  0.62486  1.0000
  H   H1273     1.0  0.82626  0.55500  0.53366  1.0000
  S   S317      1.0  0.98700  0.60900  0.53937  1.0000
  Fe  Fe157     1.0  0.78190  0.50060  0.41102  1.0000
  H   H1274     1.0  0.81557  0.58503  0.50920  1.0000
  C   C799      1.0  0.84509  0.56754  0.46001  1.0000
  Fe  Fe158     1.0  0.78091  0.48066  0.47823  1.0000
  H   H1275     1.0  0.97588  0.34802  0.46661  1.0000
  H   H1276     1.0  0.81150  0.57924  0.33351  1.0000
  H   H1277     1.0  0.80426  0.53405  0.61848  1.0000
  H   H1278     1.0  0.95464  0.57977  0.64779  1.0000
  H   H1279     1.0  0.88599  0.51262  0.34959  1.0000
  H   H1280     1.0  0.86638  0.59770  0.50182  1.0000
  H   H1281     1.0  0.89781  0.63939  0.48703  1.0000
  C   C800      1.0  0.93734  0.62641  0.50981  1.0000
  C   C801      1.0  0.80180  0.51492  0.57623  1.0000
  H   H1282     1.0  0.86508  0.56503  0.44539  1.0000
  H   H1283     1.0  0.82775  0.55564  0.45084  1.0000
  H   H1284     1.0  0.84701  0.43295  0.35849  1.0000
  S   S318      1.0  0.76556  0.46015  0.39758  1.0000
  H   H1285     1.0  0.87815  0.56808  0.52630  1.0000
  H   H1286     1.0  0.91604  0.46892  0.36418  1.0000
  H   H1287     1.0  0.92493  0.34441  0.51224  1.0000
  H   H1288     1.0  0.88285  0.44270  0.31730  1.0000
  H   H1289     1.0  0.83887  0.45810  0.38577  1.0000
  C   C802      1.0  0.79039  0.52985  0.60062  1.0000
  S   S319      1.0  0.79977  0.53367  0.37720  1.0000
  C   C803      1.0  0.84446  0.45599  0.36164  1.0000
  H   H1290     1.0  0.86279  0.51970  0.51713  1.0000
  N   N83       1.0  0.99331  0.60195  0.63682  1.0000
  H   H1291     1.0  0.89388  0.57271  0.48894  1.0000
  C   C804      1.0  0.77716  0.55339  0.35148  1.0000
  S   S320      1.0  0.79984  0.49081  0.52240  1.0000
  H   H1292     1.0  0.82451  0.50774  0.57554  1.0000
  H   H1293     1.0  0.82536  0.46489  0.34899  1.0000
  H   H1294     1.0  0.89915  0.43585  0.36962  1.0000
  H   H1295     1.0  0.99047  0.64043  0.60857  1.0000
  H   H1296     1.0  0.84715  0.63244  0.32145  1.0000
  H   H1297     1.0  0.99933  0.59875  0.47670  1.0000
  H   H1298     1.0  0.94177  0.33220  0.43194  1.0000
  H   H1299     1.0  0.95753  0.62243  0.61279  1.0000
  H   H1300     1.0  0.89923  0.33333  0.48695  1.0000
  H   H1301     1.0  0.96924  0.64142  0.64308  1.0000
  H   H1302     1.0  0.97772  0.33203  0.50404  1.0000
  C   C805      1.0  0.76097  0.53890  0.60204  1.0000
  C   C806      1.0  0.97306  0.32802  0.48062  1.0000
  Fe  Fe159     1.0  0.80428  0.61475  0.69982  1.0000
  S   S321      1.0  0.80680  0.56745  0.69753  1.0000
  H   H1303     1.0  0.88413  0.63716  0.81455  1.0000
  C   C807      1.0  0.78003  0.53748  0.82012  1.0000
  H   H1304     1.0  0.83061  0.63200  0.82461  1.0000
  C   C808      1.0  0.77955  0.51249  0.83889  1.0000
  C   C809      1.0  0.87879  0.64775  0.79238  1.0000
  H   H1305     1.0  0.82744  0.62561  0.78587  1.0000
  N   N84       1.0  0.99913  0.61006  0.79556  1.0000
  H   H1306     1.0  0.78176  0.49233  0.82904  1.0000
  H   H1307     1.0  0.87558  0.60487  0.71914  1.0000
  S   S322      1.0  0.78387  0.53501  0.78054  1.0000
  H   H1308     1.0  0.92789  0.60490  0.73078  1.0000
  H   H1309     1.0  0.97846  0.60888  0.83960  1.0000
  C   C810      1.0  0.97445  0.58596  0.65848  1.0000
  S   S323      1.0  0.77023  0.54135  0.92323  1.0000
  C   C811      1.0  0.91784  0.62266  0.71793  1.0000
  H   H1310     1.0  0.96061  0.58681  0.79494  1.0000
  H   H1311     1.0  0.79722  0.58375  0.96050  1.0000
  C   C812      1.0  0.88820  0.62255  0.71131  1.0000
  C   C813      1.0  0.77720  0.56337  0.83329  1.0000
  C   C814      1.0  0.77372  0.53907  0.88356  1.0000
  H   H1312     1.0  0.77774  0.58277  0.81926  1.0000
  S   S324      1.0  0.76382  0.62145  0.67311  1.0000
  S   S325      1.0  0.77929  0.61454  0.74415  1.0000
  H   H1313     1.0  0.97897  0.59308  0.75900  1.0000
  C   C815      1.0  0.97302  0.60236  0.78072  1.0000
  Fe  Fe160     1.0  0.76637  0.50648  0.96125  1.0000
  Fe  Fe161     1.0  0.77899  0.56775  0.74074  1.0000
  C   C816      1.0  0.77634  0.51323  0.87035  1.0000
  Fe  Fe162     1.0  0.76456  0.57416  0.67336  1.0000
  H   H1314     1.0  0.79142  0.62099  0.95185  1.0000
  H   H1315     1.0  0.77618  0.49377  0.88435  1.0000
  C   C817      1.0  0.93445  0.64555  0.70782  1.0000
  C   C818      1.0  0.87504  0.64529  0.69438  1.0000
  H   H1316     1.0  0.95814  0.62128  0.77566  1.0000
  H   H1317     1.0  0.88000  0.63145  0.77568  1.0000
  H   H1318     1.0  0.98611  0.56643  0.66799  1.0000
  H   H1319     1.0  0.96706  0.59878  0.67750  1.0000
  H   H1320     1.0  0.97553  0.64268  0.81897  1.0000
  C   C819      1.0  0.99015  0.62350  0.82351  1.0000
  H   H1321     1.0  0.77216  0.58425  0.87468  1.0000
  S   S326      1.0  0.97174  0.64499  0.71612  1.0000
  C   C820      1.0  0.79381  0.60450  0.97062  1.0000
  H   H1322     1.0  0.00660  0.56863  0.81738  1.0000
  C   C821      1.0  0.77409  0.56412  0.86478  1.0000
  C   C822      1.0  0.82726  0.64246  0.80191  1.0000
  S   S327      1.0  0.83774  0.64700  0.68607  1.0000
  H   H1323     1.0  0.00173  0.64958  0.76952  1.0000
  H   H1324     1.0  0.00918  0.63041  0.83494  1.0000
  H   H1325     1.0  0.83643  0.91628  0.21949  1.0000
  C   C823      1.0  0.00017  0.70377  0.19295  1.0000
  H   H1326     1.0  0.00016  0.71862  0.23744  1.0000
  H   H1327     1.0  0.91025  0.70622  0.26583  1.0000
  Fe  Fe163     1.0  0.81800  0.84712  0.28812  1.0000
  S   S328      1.0  0.81644  0.89410  0.27922  1.0000
  S   S329      1.0  0.85881  0.82053  0.27652  1.0000
  H   H1328     1.0  0.86388  0.88971  0.06578  1.0000
  C   C824      1.0  0.76999  0.70930  0.06728  1.0000
  S   S330      1.0  0.94769  0.84736  0.12116  1.0000
  S   S331      1.0  0.77996  0.84179  0.25946  1.0000
  H   H1329     1.0  0.89542  0.86035  0.22839  1.0000
  H   H1330     1.0  0.90353  0.90163  0.17242  1.0000
  C   C825      1.0  0.90245  0.72353  0.28015  1.0000
  S   S332      1.0  0.77587  0.72213  0.18821  1.0000
  H   H1331     1.0  0.89957  0.74298  0.26502  1.0000
  H   H1332     1.0  0.90175  0.89723  0.22741  1.0000
  Fe  Fe164     1.0  0.93951  0.76763  0.20142  1.0000
  S   S333      1.0  0.91993  0.81189  0.19838  1.0000
  S   S334      1.0  0.91266  0.72884  0.20393  1.0000
  Fe  Fe165     1.0  0.95489  0.81916  0.16298  1.0000
  S   S335      1.0  0.78811  0.91375  0.06442  1.0000
  Fe  Fe166     1.0  0.95341  0.82097  0.23123  1.0000
  S   S336      1.0  0.94492  0.85692  0.26222  1.0000
  S   S337      1.0  0.97302  0.77445  0.16378  1.0000
  S   S338      1.0  0.97063  0.77581  0.23706  1.0000
  S   S339      1.0  0.85075  0.70154  0.06370  1.0000
  H   H1333     1.0  0.98155  0.71726  0.18631  1.0000
  C   C826      1.0  0.83793  0.70342  0.02672  1.0000
  C   C827      1.0  0.83005  0.67944  0.01330  1.0000
  C   C828      1.0  0.83488  0.72974  0.01062  1.0000
  H   H1334     1.0  0.83377  0.65888  0.02459  1.0000
  C   C829      1.0  0.96077  0.82971  0.08981  1.0000
  C   C830      1.0  0.97636  0.84413  0.06666  1.0000
  C   C831      1.0  0.98742  0.82995  0.04183  1.0000
  H   H1335     1.0  0.89896  0.86469  0.17173  1.0000
  H   H1336     1.0  0.76239  0.76309  0.04582  1.0000
  C   C832      1.0  0.81398  0.72445  0.19249  1.0000
  C   C833      1.0  0.82603  0.75096  0.19264  1.0000
  C   C834      1.0  0.85628  0.75300  0.19573  1.0000
  C   C835      1.0  0.87472  0.72849  0.19857  1.0000
  C   C836      1.0  0.86257  0.70228  0.19817  1.0000
  C   C837      1.0  0.83266  0.70038  0.19488  1.0000
  H   H1337     1.0  0.81201  0.76997  0.19043  1.0000
  H   H1338     1.0  0.86525  0.77343  0.19617  1.0000
  H   H1339     1.0  0.87629  0.68313  0.20048  1.0000
  H   H1340     1.0  0.82420  0.68012  0.19334  1.0000
  C   C838      1.0  0.78367  0.91512  0.10430  1.0000
  N   N85       1.0  0.76561  0.73443  0.08490  1.0000
  Fe  Fe167     1.0  0.77696  0.88913  0.25260  1.0000
  C   C839      1.0  0.77555  0.94032  0.14985  1.0000
  S   S340      1.0  0.81643  0.93239  0.98530  1.0000
  C   C840      1.0  0.86937  0.86386  0.01430  1.0000
  H   H1341     1.0  0.90753  0.85724  0.05854  1.0000
  H   H1342     1.0  0.92867  0.88648  0.04597  1.0000
  H   H1343     1.0  0.96278  0.76507  0.06154  1.0000
  N   N86       1.0  0.86736  0.88667  0.19972  1.0000
  H   H1344     1.0  0.76447  0.77474  0.22451  1.0000
  H   H1345     1.0  0.87901  0.91391  0.98574  1.0000
  C   C841      1.0  0.86514  0.74065  0.31500  1.0000
  C   C842      1.0  0.77686  0.91493  0.16809  1.0000
  H   H1346     1.0  0.84972  0.73150  0.25881  1.0000
  H   H1347     1.0  0.78212  0.86978  0.16758  1.0000
  H   H1348     1.0  0.77188  0.96014  0.16025  1.0000
  C   C843      1.0  0.78500  0.88969  0.12252  1.0000
  C   C844      1.0  0.81135  0.65749  0.30211  1.0000
  H   H1349     1.0  0.84944  0.87383  0.00386  1.0000
  H   H1350     1.0  0.77630  0.83612  0.01049  1.0000
  H   H1351     1.0  0.91111  0.92060  0.00438  1.0000
  H   H1352     1.0  0.88519  0.91915  0.05363  1.0000
  H   H1353     1.0  0.80663  0.72740  0.10622  1.0000
  C   C845      1.0  0.77890  0.94047  0.11828  1.0000
  C   C846      1.0  0.93272  0.65984  0.17747  1.0000
  H   H1354     1.0  0.78123  0.71436  0.04530  1.0000
  H   H1355     1.0  0.92667  0.85740  0.02281  1.0000
  C   C847      1.0  0.87168  0.90274  0.04578  1.0000
  H   H1356     1.0  0.86221  0.84939  0.03340  1.0000
  H   H1357     1.0  0.87466  0.88935  0.15186  1.0000
  H   H1358     1.0  0.97742  0.82892  0.31326  1.0000
  S   S341      1.0  0.99784  0.78288  0.01000  1.0000
  H   H1359     1.0  0.98919  0.88753  0.28205  1.0000
  H   H1360     1.0  0.95288  0.77096  0.29595  1.0000
  H   H1361     1.0  0.98047  0.86609  0.06829  1.0000
  H   H1362     1.0  0.84177  0.74834  0.02025  1.0000
  H   H1363     1.0  0.83825  0.91891  0.17951  1.0000
  H   H1364     1.0  0.94912  0.67454  0.16808  1.0000
  C   C848      1.0  0.95583  0.80123  0.08784  1.0000
  H   H1365     1.0  0.85217  0.91390  0.03570  1.0000
  H   H1366     1.0  0.91330  0.79233  0.26390  1.0000
  H   H1367     1.0  0.83056  0.86549  0.21912  1.0000
  S   S342      1.0  0.98669  0.83148  0.19500  1.0000
  H   H1368     1.0  0.86686  0.93186  0.19999  1.0000
  C   C849      1.0  0.98267  0.80140  0.03997  1.0000
  C   C850      1.0  0.78150  0.88954  0.15410  1.0000
  H   H1369     1.0  0.92721  0.66570  0.20073  1.0000
  H   H1370     1.0  0.85738  0.84302  0.20110  1.0000
  H   H1371     1.0  0.87080  0.88331  0.24768  1.0000
  C   C851      1.0  0.89779  0.90346  0.99782  1.0000
  C   C852      1.0  0.91386  0.87100  0.03846  1.0000
  Fe  Fe168     1.0  0.78700  0.94649  0.02354  1.0000
  H   H1372     1.0  0.88092  0.85071  0.99739  1.0000
  H   H1373     1.0  0.90317  0.88637  0.29832  1.0000
  C   C853      1.0  0.79412  0.74402  0.09256  1.0000
  H   H1374     1.0  0.00033  0.84094  0.02460  1.0000
  H   H1375     1.0  0.78860  0.86989  0.11212  1.0000
  C   C854      1.0  0.91171  0.79400  0.28782  1.0000
  C   C855      1.0  0.88459  0.88187  0.22686  1.0000
  S   S343      1.0  0.80840  0.67121  0.13587  1.0000
  C   C856      1.0  0.88721  0.80820  0.30048  1.0000
  H   H1376     1.0  0.92005  0.72684  0.29554  1.0000
  C   C857      1.0  0.85162  0.91467  0.19964  1.0000
  Fe  Fe169     1.0  0.83952  0.66494  0.09667  1.0000
  N   N87       1.0  0.88816  0.88529  0.02408  1.0000
  H   H1377     1.0  0.00298  0.83864  0.26289  1.0000
  C   C858      1.0  0.94036  0.85692  0.30185  1.0000
  C   C859      1.0  0.84629  0.86450  0.19963  1.0000
  C   C860      1.0  0.88695  0.88557  0.17275  1.0000
  H   H1378     1.0  0.79172  0.76290  0.10589  1.0000
  C   C861      1.0  0.96672  0.78711  0.06292  1.0000
  H   H1379     1.0  0.94343  0.79007  0.10545  1.0000
  H   H1380     1.0  0.83366  0.86671  0.17896  1.0000
  C   C862      1.0  0.79699  0.66524  0.27560  1.0000
  Fe  Fe170     1.0  0.00267  0.78596  0.19924  1.0000
  H   H1381     1.0  0.78235  0.86859  0.02628  1.0000
  H   H1382     1.0  0.91290  0.66433  0.16422  1.0000
  N   N88       1.0  0.87502  0.71703  0.29669  1.0000
  H   H1383     1.0  0.85948  0.76000  0.30054  1.0000
  H   H1384     1.0  0.83102  0.70999  0.28669  1.0000
  C   C863      1.0  0.93413  0.78195  0.30575  1.0000
  H   H1385     1.0  0.85821  0.69417  0.26207  1.0000
  H   H1386     1.0  0.77811  0.67981  0.27617  1.0000
  H   H1387     1.0  0.79594  0.66188  0.22828  1.0000
  H   H1388     1.0  0.80789  0.74919  0.07212  1.0000
  C   C864      1.0  0.80739  0.65525  0.24818  1.0000
  S   S344      1.0  0.77285  0.91641  0.20798  1.0000
  C   C865      1.0  0.85252  0.71290  0.27514  1.0000
  H   H1389     1.0  0.78352  0.69232  0.07924  1.0000
  C   C866      1.0  0.91822  0.87499  0.31334  1.0000
  H   H1390     1.0  0.77776  0.96025  0.10480  1.0000
  H   H1391     1.0  0.88707  0.67283  0.30329  1.0000
  C   C867      1.0  0.82273  0.73227  0.98215  1.0000
  S   S345      1.0  0.00114  0.68518  0.13640  1.0000
  H   H1392     1.0  0.99639  0.88081  0.22881  1.0000
  H   H1393     1.0  0.76558  0.89586  0.98316  1.0000
  H   H1394     1.0  0.00880  0.77295  0.10465  1.0000
  C   C868      1.0  0.81811  0.68198  0.98471  1.0000
  H   H1395     1.0  0.00723  0.95916  0.99140  1.0000
  C   C869      1.0  0.76571  0.85298  0.02390  1.0000
  H   H1396     1.0  0.98539  0.72094  0.98394  1.0000
  H   H1397     1.0  0.76025  0.84348  0.04665  1.0000
  C   C870      1.0  0.88620  0.79003  0.62753  1.0000
  S   S346      1.0  0.96929  0.87797  0.47665  1.0000
  C   C871      1.0  0.89183  0.91567  0.50472  1.0000
  Fe  Fe171     1.0  0.78881  0.95673  0.59744  1.0000
  H   H1398     1.0  0.82352  0.75714  0.62225  1.0000
  S   S347      1.0  0.98913  0.82001  0.51489  1.0000
  S   S348      1.0  0.91957  0.85588  0.55090  1.0000
  Fe  Fe172     1.0  0.79063  0.95794  0.52904  1.0000
  C   C872      1.0  0.97085  0.74654  0.52405  1.0000
  S   S349      1.0  0.97834  0.75082  0.48559  1.0000
  Fe  Fe173     1.0  0.95569  0.85076  0.44093  1.0000
  S   S350      1.0  0.92916  0.87074  0.40272  1.0000
  Fe  Fe174     1.0  0.94760  0.84669  0.50916  1.0000
  S   S351      1.0  0.93141  0.82182  0.47351  1.0000
  S   S352      1.0  0.81419  0.73326  0.46386  1.0000
  C   C873      1.0  0.93235  0.78380  0.33660  1.0000
  C   C874      1.0  0.82078  0.89243  0.64493  1.0000
  S   S353      1.0  0.78289  0.84087  0.55570  1.0000
  S   S354      1.0  0.96105  0.75261  0.62449  1.0000
  H   H1399     1.0  0.84534  0.73568  0.32899  1.0000
  S   S355      1.0  0.79313  0.92974  0.35231  1.0000
  C   C875      1.0  0.98869  0.72874  0.54264  1.0000
  C   C876      1.0  0.79235  0.73010  0.49708  1.0000
  C   C877      1.0  0.77816  0.70534  0.50516  1.0000
  H   H1400     1.0  0.99967  0.72746  0.39678  1.0000
  H   H1401     1.0  0.82857  0.79006  0.63826  1.0000
  C   C878      1.0  0.78898  0.75267  0.51562  1.0000
  H   H1402     1.0  0.90866  0.78381  0.63443  1.0000
  H   H1403     1.0  0.78292  0.88371  0.39796  1.0000
  C   C879      1.0  0.88181  0.85010  0.55238  1.0000
  C   C880      1.0  0.86727  0.84532  0.52661  1.0000
  C   C881      1.0  0.83707  0.84216  0.52816  1.0000
  C   C882      1.0  0.82117  0.84283  0.55560  1.0000
  C   C883      1.0  0.83578  0.84696  0.58150  1.0000
  C   C884      1.0  0.86587  0.85114  0.57977  1.0000
  H   H1404     1.0  0.87915  0.84469  0.50539  1.0000
  H   H1405     1.0  0.82585  0.83927  0.50800  1.0000
  H   H1406     1.0  0.82363  0.84797  0.60260  1.0000
  H   H1407     1.0  0.87677  0.85535  0.59974  1.0000
  C   C885      1.0  0.79232  0.95213  0.43843  1.0000
  H   H1408     1.0  0.79460  0.97131  0.44946  1.0000
  C   C886      1.0  0.91515  0.87849  0.34415  1.0000
  C   C887      1.0  0.93452  0.86445  0.36416  1.0000
  H   H1409     1.0  0.87492  0.91050  0.52246  1.0000
  H   H1410     1.0  0.89766  0.89240  0.35244  1.0000
  S   S356      1.0  0.96064  0.76842  0.35904  1.0000
  S   S357      1.0  0.79880  0.67389  0.33493  1.0000
  H   H1411     1.0  0.79828  0.97192  0.39388  1.0000
  C   C888      1.0  0.96009  0.84285  0.32173  1.0000
  H   H1412     1.0  0.84199  0.94733  0.49658  1.0000
  H   H1413     1.0  0.97411  0.68653  0.38323  1.0000
  H   H1414     1.0  0.99385  0.69413  0.47457  1.0000
  C   C889      1.0  0.78696  0.92712  0.45544  1.0000
  Fe  Fe175     1.0  0.81502  0.66515  0.38198  1.0000
  S   S358      1.0  0.77280  0.93002  0.63824  1.0000
  Fe  Fe176     1.0  0.78666  0.89554  0.32031  1.0000
  H   H1415     1.0  0.89267  0.93806  0.43090  1.0000
  H   H1416     1.0  0.85024  0.95941  0.45856  1.0000
  H   H1417     1.0  0.00788  0.73097  0.43498  1.0000
  C   C890      1.0  0.96431  0.74830  0.58616  1.0000
  C   C891      1.0  0.94577  0.76506  0.56753  1.0000
  C   C892      1.0  0.94904  0.76419  0.53657  1.0000
  C   C893      1.0  0.79084  0.92783  0.39206  1.0000
  H   H1418     1.0  0.92955  0.77961  0.57682  1.0000
  H   H1419     1.0  0.93521  0.77792  0.52232  1.0000
  C   C894      1.0  0.95716  0.84659  0.35288  1.0000
  H   H1420     1.0  0.00003  0.71683  0.58828  1.0000
  H   H1421     1.0  0.94541  0.69400  0.41035  1.0000
  C   C895      1.0  0.87954  0.74574  0.60626  1.0000
  C   C896      1.0  0.99101  0.85799  0.58768  1.0000
  H   H1422     1.0  0.91621  0.91176  0.44936  1.0000
  H   H1423     1.0  0.83669  0.78639  0.59919  1.0000
  H   H1424     1.0  0.79996  0.77184  0.50965  1.0000
  H   H1425     1.0  0.94729  0.84682  0.62642  1.0000
  H   H1426     1.0  0.88769  0.80045  0.60457  1.0000
  C   C897      1.0  0.99196  0.72286  0.42029  1.0000
  C   C898      1.0  0.96708  0.68270  0.40717  1.0000
  C   C899      1.0  0.88516  0.81002  0.33159  1.0000
  S   S359      1.0  0.82400  0.94529  0.56348  1.0000
  C   C900      1.0  0.79434  0.95242  0.40692  1.0000
  S   S360      1.0  0.78439  0.92534  0.49513  1.0000
  Fe  Fe177     1.0  0.97417  0.79736  0.47690  1.0000
  N   N89       1.0  0.99038  0.83385  0.61030  1.0000
  C   C901      1.0  0.78380  0.90241  0.44066  1.0000
  N   N90       1.0  0.84094  0.81204  0.42192  1.0000
  C   C902      1.0  0.81271  0.81870  0.43752  1.0000
  C   C903      1.0  0.85181  0.83806  0.40643  1.0000
  C   C904      1.0  0.83703  0.79106  0.39983  1.0000
  C   C905      1.0  0.86213  0.80019  0.44400  1.0000
  H   H1427     1.0  0.80412  0.79949  0.44970  1.0000
  H   H1428     1.0  0.79610  0.82737  0.42147  1.0000
  H   H1429     1.0  0.81470  0.83458  0.45428  1.0000
  H   H1430     1.0  0.85441  0.85452  0.42233  1.0000
  H   H1431     1.0  0.87351  0.83406  0.39512  1.0000
  H   H1432     1.0  0.83675  0.84724  0.38903  1.0000
  H   H1433     1.0  0.85802  0.78469  0.38841  1.0000
  H   H1434     1.0  0.82182  0.79952  0.38228  1.0000
  H   H1435     1.0  0.82807  0.77151  0.41078  1.0000
  H   H1436     1.0  0.88382  0.79520  0.43306  1.0000
  H   H1437     1.0  0.85478  0.78030  0.45579  1.0000
  H   H1438     1.0  0.86524  0.81520  0.46137  1.0000
  H   H1439     1.0  0.97107  0.73552  0.42351  1.0000
  H   H1440     1.0  0.90501  0.93209  0.51309  1.0000
  H   H1441     1.0  0.00583  0.71534  0.53290  1.0000
  H   H1442     1.0  0.95698  0.69994  0.46316  1.0000
  C   C906      1.0  0.90768  0.79769  0.34961  1.0000
  H   H1443     1.0  0.90637  0.89638  0.50243  1.0000
  H   H1444     1.0  0.90661  0.79958  0.37351  1.0000
  H   H1445     1.0  0.90231  0.73795  0.61083  1.0000
  H   H1446     1.0  0.96394  0.65977  0.41149  1.0000
  N   N91       1.0  0.87867  0.92526  0.47599  1.0000
  C   C907      1.0  0.86013  0.95126  0.47993  1.0000
  H   H1447     1.0  0.87438  0.88331  0.46270  1.0000
  H   H1448     1.0  0.87961  0.75609  0.58317  1.0000
  H   H1449     1.0  0.97933  0.87718  0.59609  1.0000
  N   N92       1.0  0.86809  0.76541  0.62862  1.0000
  Fe  Fe178     1.0  0.81982  0.69250  0.44107  1.0000
  H   H1450     1.0  0.98017  0.85332  0.56704  1.0000
  C   C908      1.0  0.86083  0.90301  0.46635  1.0000
  C   C909      1.0  0.90187  0.93101  0.45296  1.0000
  H   H1451     1.0  0.89685  0.69374  0.33285  1.0000
  S   S361      1.0  0.99732  0.82357  0.44106  1.0000
  H   H1452     1.0  0.83228  0.90646  0.62918  1.0000
  H   H1453     1.0  0.87271  0.96825  0.48810  1.0000
  H   H1454     1.0  0.97422  0.66518  0.46464  1.0000
  H   H1455     1.0  0.85968  0.68572  0.32942  1.0000
  H   H1456     1.0  0.86643  0.82105  0.34154  1.0000
  H   H1457     1.0  0.91587  0.94763  0.45946  1.0000
  S   S362      1.0  0.85105  0.68678  0.40169  1.0000
  C   C910      1.0  0.98557  0.72977  0.57390  1.0000
  C   C911      1.0  0.97787  0.68768  0.45874  1.0000
  C   C912      1.0  0.78570  0.90273  0.40912  1.0000
  H   H1458     1.0  0.84336  0.89776  0.48346  1.0000
  H   H1459     1.0  0.88229  0.74575  0.33018  1.0000
  S   S363      1.0  0.79134  0.84870  0.33110  1.0000
  H   H1460     1.0  0.97212  0.83535  0.36810  1.0000
  H   H1461     1.0  0.85010  0.90979  0.44500  1.0000
  H   H1462     1.0  0.00644  0.79044  0.61475  1.0000
  C   C913      1.0  0.83788  0.77511  0.62181  1.0000
  N   N93       1.0  0.98841  0.69244  0.42728  1.0000
  H   H1463     1.0  0.76927  0.76808  0.55616  1.0000
  S   S364      1.0  0.78255  0.67489  0.41947  1.0000
  C   C914      1.0  0.95984  0.82791  0.61843  1.0000
  H   H1464     1.0  0.77963  0.88297  0.45367  1.0000
  H   H1465     1.0  0.99405  0.80193  0.57843  1.0000
  H   H1466     1.0  0.78054  0.68787  0.49094  1.0000
  H   H1467     1.0  0.86628  0.72697  0.60638  1.0000
  H   H1468     1.0  0.94852  0.82127  0.59884  1.0000
  C   C915      1.0  0.77144  0.75057  0.54201  1.0000
  H   H1469     1.0  0.87711  0.80611  0.64278  1.0000
  Fe  Fe179     1.0  0.00547  0.75937  0.33702  1.0000
  H   H1470     1.0  0.95848  0.81064  0.63642  1.0000
  S   S365      1.0  0.83414  0.65187  0.46617  1.0000
  C   C916      1.0  0.87990  0.69115  0.31644  1.0000
  Fe  Fe180     1.0  0.00956  0.84836  0.47931  1.0000
  S   S366      1.0  0.76210  0.78570  0.62282  1.0000
  C   C917      1.0  0.00514  0.84077  0.63728  1.0000
  C   C918      1.0  0.00548  0.80872  0.59786  1.0000
  C   C919      1.0  0.76051  0.70328  0.53153  1.0000
  H   H1471     1.0  0.99426  0.85961  0.64727  1.0000
  H   H1472     1.0  0.77971  0.84138  0.70122  1.0000
  S   S367      1.0  0.97520  0.72686  0.69969  1.0000
  H   H1473     1.0  0.78896  0.67904  0.70547  1.0000
  H   H1474     1.0  0.86065  0.76509  0.67635  1.0000
  Fe  Fe181     1.0  0.99486  0.73093  0.65351  1.0000
  Fe  Fe182     1.0  0.77385  0.75436  0.92229  1.0000
  H   H1475     1.0  0.77186  0.86464  0.76868  1.0000
  N   N94       1.0  0.84975  0.66271  0.79342  1.0000
  Fe  Fe183     1.0  0.86999  0.75534  0.78033  1.0000
  S   S368      1.0  0.83470  0.75131  0.74846  1.0000
  S   S369      1.0  0.90890  0.72519  0.77179  1.0000
  Fe  Fe184     1.0  0.83718  0.80597  0.80749  1.0000
  S   S370      1.0  0.79966  0.80472  0.77721  1.0000
  S   S371      1.0  0.84829  0.84193  0.83534  1.0000
  Fe  Fe185     1.0  0.80351  0.75700  0.78794  1.0000
  Fe  Fe186     1.0  0.83330  0.79823  0.74049  1.0000
  S   S372      1.0  0.83997  0.81894  0.69363  1.0000
  S   S373      1.0  0.83950  0.75902  0.82042  1.0000
  S   S374      1.0  0.87069  0.80184  0.76979  1.0000
  Fe  Fe187     1.0  0.97801  0.84620  0.91823  1.0000
  S   S375      1.0  0.98621  0.79971  0.92691  1.0000
  H   H1476     1.0  0.88181  0.68556  0.67095  1.0000
  H   H1477     1.0  0.81809  0.85931  0.73959  1.0000
  C   C920      1.0  0.77629  0.73491  0.69485  1.0000
  C   C921      1.0  0.94784  0.79229  0.80502  1.0000
  S   S376      1.0  0.93684  0.86654  0.89970  1.0000
  H   H1478     1.0  0.00548  0.73032  0.90291  1.0000
  H   H1479     1.0  0.93377  0.68576  0.68263  1.0000
  Fe  Fe188     1.0  0.78379  0.81363  0.93522  1.0000
  S   S377      1.0  0.81354  0.83995  0.95899  1.0000
  S   S378      1.0  0.79367  0.79011  0.89406  1.0000
  H   H1480     1.0  0.95595  0.71025  0.86877  1.0000
  C   C922      1.0  0.99335  0.72258  0.92368  1.0000
  H   H1481     1.0  0.85353  0.67457  0.83854  1.0000
  C   C923      1.0  0.81340  0.70849  0.96941  1.0000
  H   H1482     1.0  0.85508  0.73227  0.66062  1.0000
  H   H1483     1.0  0.86559  0.69995  0.80990  1.0000
  Fe  Fe189     1.0  0.78048  0.94509  0.95426  1.0000
  C   C924      1.0  0.90386  0.85769  0.91822  1.0000
  C   C925      1.0  0.89545  0.82977  0.92172  1.0000
  C   C926      1.0  0.86726  0.82399  0.93314  1.0000
  C   C927      1.0  0.84804  0.84603  0.94218  1.0000
  C   C928      1.0  0.85730  0.87352  0.94024  1.0000
  C   C929      1.0  0.88467  0.87946  0.92752  1.0000
  H   H1484     1.0  0.91028  0.81276  0.91494  1.0000
  C   C930      1.0  0.84909  0.68419  0.81572  1.0000
  S   S379      1.0  0.87855  0.97856  0.96814  1.0000
  H   H1485     1.0  0.89078  0.90111  0.92456  1.0000
  C   C931      1.0  0.93812  0.71660  0.79556  1.0000
  C   C932      1.0  0.96498  0.70713  0.78293  1.0000
  C   C933      1.0  0.98886  0.69991  0.80089  1.0000
  C   C934      1.0  0.98576  0.70093  0.83188  1.0000
  H   H1486     1.0  0.84269  0.89054  0.94735  1.0000
  C   C935      1.0  0.93491  0.71773  0.82662  1.0000
  H   H1487     1.0  0.96737  0.70541  0.75908  1.0000
  H   H1488     1.0  0.79380  0.86187  0.80074  1.0000
  H   H1489     1.0  0.91399  0.72401  0.83665  1.0000
  H   H1490     1.0  0.86105  0.69108  0.75578  1.0000
  C   C936      1.0  0.82078  0.84967  0.67858  1.0000
  C   C937      1.0  0.79137  0.85571  0.68590  1.0000
  H   H1491     1.0  0.84022  0.86101  0.77110  1.0000
  H   H1492     1.0  0.77672  0.74264  0.71775  1.0000
  C   C938      1.0  0.99684  0.70208  0.97441  1.0000
  C   C939      1.0  0.78830  0.89886  0.89392  1.0000
  C   C940      1.0  0.81791  0.90342  0.88974  1.0000
  C   C941      1.0  0.83599  0.88590  0.87168  1.0000
  C   C942      1.0  0.82475  0.86345  0.85794  1.0000
  C   C943      1.0  0.79502  0.85961  0.86126  1.0000
  C   C944      1.0  0.77687  0.87758  0.87852  1.0000
  H   H1493     1.0  0.82707  0.92017  0.90074  1.0000
  H   H1494     1.0  0.85895  0.88939  0.86898  1.0000
  H   H1495     1.0  0.78603  0.84259  0.85065  1.0000
  C   C945      1.0  0.95869  0.70981  0.84475  1.0000
  C   C946      1.0  0.95897  0.80741  0.85330  1.0000
  C   C947      1.0  0.86877  0.75079  0.65885  1.0000
  H   H1496     1.0  0.98027  0.68679  0.97067  1.0000
  C   C948      1.0  0.92126  0.66813  0.69080  1.0000
  C   C949      1.0  0.89174  0.66798  0.68416  1.0000
  H   H1497     1.0  0.95873  0.77128  0.81112  1.0000
  C   C950      1.0  0.91200  0.78994  0.84609  1.0000
  H   H1498     1.0  0.86051  0.80255  0.93530  1.0000
  N   N95       1.0  0.93579  0.80616  0.83177  1.0000
  C   C951      1.0  0.78374  0.87715  0.78378  1.0000
  H   H1499     1.0  0.93067  0.78888  0.78919  1.0000
  H   H1500     1.0  0.84302  0.66074  0.74655  1.0000
  H   H1501     1.0  0.92022  0.76893  0.85557  1.0000
  H   H1502     1.0  0.97824  0.70697  0.91711  1.0000
  H   H1503     1.0  0.96990  0.78624  0.85867  1.0000
  H   H1504     1.0  0.95000  0.81551  0.87462  1.0000
  H   H1505     1.0  0.96427  0.80510  0.79247  1.0000
  H   H1506     1.0  0.82746  0.69588  0.81712  1.0000
  H   H1507     1.0  0.97586  0.82178  0.84446  1.0000
  H   H1508     1.0  0.77688  0.69533  0.65444  1.0000
  C   C952      1.0  0.82819  0.87411  0.75357  1.0000
  S   S380      1.0  0.77466  0.71877  0.79139  1.0000
  Fe  Fe190     1.0  0.99691  0.68357  0.70130  1.0000
  H   H1509     1.0  0.97987  0.74060  0.93228  1.0000
  H   H1510     1.0  0.80400  0.92541  0.79908  1.0000
  H   H1511     1.0  0.77583  0.92761  0.75258  1.0000
  S   S381      1.0  0.76553  0.77793  0.96342  1.0000
  H   H1512     1.0  0.89134  0.74313  0.66454  1.0000
  H   H1513     1.0  0.89510  0.78677  0.82993  1.0000
  H   H1514     1.0  0.90070  0.80124  0.86462  1.0000
  H   H1515     1.0  0.78045  0.89957  0.72790  1.0000
  H   H1516     1.0  0.80832  0.92396  0.72908  1.0000
  H   H1517     1.0  0.89608  0.66266  0.78574  1.0000
  H   H1518     1.0  0.82121  0.75260  0.96984  1.0000
  H   H1519     1.0  0.83144  0.89769  0.80544  1.0000
  C   C953      1.0  0.83533  0.86803  0.65797  1.0000
  H   H1520     1.0  0.83668  0.92413  0.77556  1.0000
  S   S382      1.0  0.99492  0.85729  0.96173  1.0000
  H   H1521     1.0  0.76927  0.75332  0.67975  1.0000
  N   N96       1.0  0.80602  0.89364  0.76703  1.0000
  S   S383      1.0  0.79555  0.71121  0.93481  1.0000
  H   H1522     1.0  0.84442  0.88555  0.73906  1.0000
  C   C954      1.0  0.77681  0.88009  0.67281  1.0000
  H   H1523     1.0  0.79892  0.72808  0.68794  1.0000
  C   C955      1.0  0.84385  0.67650  0.76355  1.0000
  C   C956      1.0  0.92436  0.83512  0.82298  1.0000
  H   H1524     1.0  0.90683  0.83504  0.80673  1.0000
  H   H1525     1.0  0.82265  0.68892  0.76362  1.0000
  H   H1526     1.0  0.91486  0.84597  0.84276  1.0000
  H   H1527     1.0  0.81248  0.66339  0.97435  1.0000
  C   C957      1.0  0.79207  0.91207  0.74315  1.0000
  C   C958      1.0  0.82011  0.91107  0.78762  1.0000
  H   H1528     1.0  0.94169  0.84828  0.81261  1.0000
  Fe  Fe191     1.0  0.00666  0.81092  0.96860  1.0000
  H   H1529     1.0  0.00493  0.82295  0.65484  1.0000
  C   C959      1.0  0.76740  0.68757  0.71373  1.0000
  S   S384      1.0  0.76455  0.91967  0.91717  1.0000
  H   H1530     1.0  0.77005  0.69371  0.73685  1.0000
  C   C960      1.0  0.79147  0.89864  0.65243  1.0000
  H   H1531     1.0  0.00960  0.69327  0.79076  1.0000
  Fe  Fe192     1.0  0.82951  0.97730  0.97869  1.0000
  H   H1532     1.0  0.99806  0.97243  0.95427  1.0000
  H   H1533     1.0  0.80508  0.65326  0.80219  1.0000
  H   H1534     1.0  0.85801  0.86342  0.65203  1.0000
  H   H1535     1.0  0.76744  0.89084  0.79580  1.0000
  H   H1536     1.0  0.91106  0.89113  0.98139  1.0000
