data_image0
_chemical_formula_structural       HCFeS2HCHCH4CH3C6H4NHCH2NSCH2CH3CH2NCHCH4C2H2NH2CHCH7CH7C2HSFeS2FeCFeHSFe2S2HCH2SH7SHC2HC2HC6SH2FeSH3CHC2H4NC4H2CH5NSCHCHCHSH2CHC3H2S2HSHCH3CH2C2HCH2C2H2NH3CHC2SH2SC2SH2CHCH2CHC2HNFeHFeCH2C2H3CHSNCH4NHCH3CH3CH2CH3CH9FeS2H2SHC2HCNHFeCHSH2CFeH2CFeHSC6HCHNC3H2CH3SH3C2H5C2S2HSHCSCH2SCHSH2CH4SH2C4HCHC2HFe2CHSCHSH6NHCHC3SFeS2FeCHFeHFeCS2FeCS2H2CHC6H6CH2NC4H9NH2NCHCH3SCH3SH2C2H4SH3FeH2FeHSC2HS2HCH2CHC2SHCFeS2FeHSFeHFeS3FeS2HSH3C3HCH2CHC6H4CSH5CH2CH2CNHCFeCHCHFeSHNC2HC2H2CHSCH2CH4CH3SCH3SHSHFeCH3CFeHSCH2CH2CHNCH2C2HCHSNCFeS2H4SC6HSH2CHC3HCH2NH3CHCH5C2H2CHCHC2H2C2H2SHFeHFeS2FeSHFeSFeS3CH2CFeS2FeS2CH3C4H2C2HCH4C8H5CH5CH4CHSH2NC3H2FeC2NHC2HCHCHCH3SH2CSH2FeS2FeS2FeSFeS3HC2H2FeS2HCH2C2H2C2H2C3H3C6H4C3H6SH3CNC2NC3H2CH5NH5C2H5CHCH4S2FeCHSHFeS2HSH7C3HC2H2CSCNHC2H4CHNCH6C2H5CH2FeCH3CNCHC2H3CHC2HCH2CH2SHSC3SH3CH3CHCHCHC2FeHNH3SHCHSH5CHNC2HSHSH3CSFeSCFeSNFeSFeS3CFeS2CH3SH4C5HSC6H6C2H3NC3HCH2CH4SH2SH3CH3FeCHCSCH5C2H5NHNFeHCHCH2CH2FeS2FeSHFeSFeS3FeSH3SFeS2CH3CHCH2C6H8CSH3CH2C2HNC2HC2H4C2NFeC2H3CHC2H2CH4C2HCH2SHS2HCH4NHC2H4CHFeHFeCH2C3HNCH3CH2CHCH7SHSCFeS2FeSCFeSHFeHFeS3HCSH2C6H5NC2FeH4CH2SH2C2SHNSH2CH2CH3CH2FeH5C2H4CH2SCH3CHCHFeH2SNH5CH3NH3CH3SC2SH2FeHCH4C2H3C3H2FeS2FeS2FeS2FeCFeHS2CH2SHC6H4CH2SHNSH2CH3FeHCHCH2CHSFeHFeSFeSHFeS2HFeS2CH2SHCHC5HNHC2H4FeSH2CSCHCH2NH2CH2NH5CHC3HC5H7CFeH3FeCHFeS2FeS2FeSFeS3CSCH3CHC6H4C2H2C2H3NCH2C3H3CH6CNHC2H3C2H2C2HCH5NCHCH8CH2FeS2FeS2FeSFeS3CHNHC2NH4CSC4H4C2HC4H3C2SC2H5CHCH2CH3CH2CHCHCH4SHFeSFeSFeS2FeSHFeS2HC4HC3HCFeH2CHCH2CH2SNH2FeCHCHCSHC2H2CFeCHC3H2NH4SFeSH3SH2CSFeH4CHC2HC2HCHC2HC3H2C3HN2SC2HCH6CH4C2H4CH2S2CH3CHCHC2SFeS2FeS2FeSFeS3FeS2H2NHCH7CHC6H4C6H4CHNC4H6CH5SCH6FeHFeCHCHCS2NCHCHCHCH5CH6C2HSC4HFeS2FeS2FeSFeS4CFeS2H3C4H2C6H3C6H4CNC4H16SFeH3CH2CHCSCH2CHNCNCNH5CH3CH6FeC2H4SH2SCSH3CH2CSHC3FeC2H3CHCHSCH2FeHNCH2FeC3SCHSH2FeCS2HFeS2FeHFeCS2HCFeS2C4HCH2CHC2H3CHNSCH2CHC2HC2H3CH2CH4C3HCH2C3H4CN2H3CSHC2H3SH2CFeH4NFeS2FeS2FeHFeS3H2SH2C6H6C6H4CHNC2HC2HC2H2CH2CH4SHCNHSHCH3C2FeS2FeS2FeSFeS3HSHCHC2H2CHC7H3C6H4CH2CH2NH2C3H4CHCH2NH8CH4FeC3H2SH2CFeSHCFeHFeSCHC3H3S2CNHCH2NCHC2H2CH2CHSH2FeCHNS2CHC3HCHCH2CH4C3H3CHC2HSH3CHCH2FeSCFeSHFeS2H2C2HSHC2H3C3H3CHCH2SHCHSHCHFeC2H5CFeH2FeS3HFeCSH2C2H3NSH3C2SH2CH3C2SCH2CFe2HS2C2H4NSCH2C2NHC2HC2HC3H4CH2CH8Fe2CHS2H4CFeS2C2HFeS2HCSNHCFeS2HFeHNHC2H2FeSHFeC4HSHCHCSH4CSH2CFeHSH2C2HCH2CH
_chemical_formula_sum              "H1280 C800 Fe160 S320 N80"
_cell_length_a       60.0971
_cell_length_b       57.5478
_cell_length_c       61.9663
_cell_angle_alpha    90.7747
_cell_angle_beta     91.1014
_cell_angle_gamma    121.422

_space_group_name_H-M_alt    "P 1"
_space_group_IT_number       1

loop_
  _space_group_symop_operation_xyz
  'x, y, z'

loop_
  _atom_site_type_symbol
  _atom_site_label
  _atom_site_symmetry_multiplicity
  _atom_site_fract_x
  _atom_site_fract_y
  _atom_site_fract_z
  _atom_site_occupancy
  H   H1        1.0  0.20996  0.99961  0.05558  1.0000
  C   C1        1.0  0.18266  0.24382  0.04052  1.0000
  Fe  Fe1       1.0  0.23571  0.22700  0.02001  1.0000
  S   S1        1.0  0.20057  0.18444  0.01544  1.0000
  S   S2        1.0  0.24503  0.23729  0.05658  1.0000
  H   H2        1.0  0.13083  0.20861  0.03927  1.0000
  C   C2        1.0  0.22237  0.06272  0.00507  1.0000
  H   H3        1.0  0.27477  0.02508  0.09953  1.0000
  C   C3        1.0  0.02129  0.29816  0.15383  1.0000
  H   H4        1.0  0.20325  0.24888  0.04165  1.0000
  H   H5        1.0  0.15554  0.18487  0.06796  1.0000
  H   H6        1.0  0.24709  0.02665  0.10787  1.0000
  H   H7        1.0  0.19877  0.24310  0.08094  1.0000
  C   C4        1.0  0.17818  0.23803  0.07894  1.0000
  H   H8        1.0  0.18299  0.26330  0.04167  1.0000
  H   H9        1.0  0.15894  0.18925  0.03940  1.0000
  H   H10       1.0  0.16693  0.22441  0.09225  1.0000
  C   C5        1.0  0.31054  0.30025  0.10415  1.0000
  C   C6        1.0  0.31365  0.30282  0.08162  1.0000
  C   C7        1.0  0.29400  0.28394  0.06683  1.0000
  C   C8        1.0  0.27075  0.26206  0.07434  1.0000
  C   C9        1.0  0.26768  0.25933  0.09685  1.0000
  C   C10       1.0  0.28734  0.27820  0.11164  1.0000
  H   H11       1.0  0.17464  0.23472  0.02415  1.0000
  H   H12       1.0  0.29682  0.28658  0.04965  1.0000
  H   H13       1.0  0.24989  0.24254  0.10299  1.0000
  H   H14       1.0  0.20913  0.01148  0.08233  1.0000
  N   N1        1.0  0.28518  0.19707  0.04654  1.0000
  H   H15       1.0  0.21277  0.07263  0.03584  1.0000
  C   C11       1.0  0.16724  0.19958  0.05539  1.0000
  H   H16       1.0  0.02099  0.28043  0.14610  1.0000
  H   H17       1.0  0.23062  0.03486  0.06274  1.0000
  N   N2        1.0  0.04660  0.32372  0.15126  1.0000
  S   S3        1.0  0.22124  0.03280  0.01501  1.0000
  C   C12       1.0  0.25875  0.18021  0.03655  1.0000
  H   H18       1.0  0.18747  0.20366  0.05689  1.0000
  H   H19       1.0  0.12724  0.20452  0.06787  1.0000
  C   C13       1.0  0.21756  0.07886  0.01935  1.0000
  H   H20       1.0  0.30263  0.21375  0.07797  1.0000
  H   H21       1.0  0.05245  0.31132  0.12000  1.0000
  H   H22       1.0  0.26794  0.03269  0.05061  1.0000
  C   C14       1.0  0.25966  0.01231  0.05787  1.0000
  H   H23       1.0  0.99579  0.29083  0.05157  1.0000
  H   H24       1.0  0.30132  0.22212  0.01887  1.0000
  N   N3        1.0  0.16692  0.22502  0.05756  1.0000
  C   C15       1.0  0.13974  0.21864  0.05527  1.0000
  H   H25       1.0  0.26861  0.04989  0.08824  1.0000
  C   C16       1.0  0.22226  0.01395  0.06901  1.0000
  H   H26       1.0  0.31876  0.23752  0.04395  1.0000
  H   H27       1.0  0.30156  0.18009  0.02565  1.0000
  H   H28       1.0  0.28451  0.27580  0.12883  1.0000
  H   H29       1.0  0.21430  0.11448  0.02365  1.0000
  C   C17       1.0  0.28308  0.20077  0.06992  1.0000
  C   C18       1.0  0.29898  0.22402  0.03646  1.0000
  H   H30       1.0  0.28997  0.16286  0.05055  1.0000
  H   H31       1.0  0.13872  0.23737  0.05647  1.0000
  N   N4        1.0  0.24296  0.00892  0.07620  1.0000
  H   H32       1.0  0.00499  0.29939  0.14626  1.0000
  H   H33       1.0  0.06868  0.30426  0.15542  1.0000
  C   C19       1.0  0.29987  0.18329  0.04319  1.0000
  H   H34       1.0  0.25951  0.17685  0.01889  1.0000
  C   C20       1.0  0.25906  0.02855  0.09376  1.0000
  H   H35       1.0  0.24773  0.15975  0.04376  1.0000
  H   H36       1.0  0.01683  0.29368  0.17118  1.0000
  H   H37       1.0  0.17835  0.25735  0.08113  1.0000
  H   H38       1.0  0.27284  0.18092  0.07813  1.0000
  H   H39       1.0  0.27608  0.00967  0.06282  1.0000
  H   H40       1.0  0.24712  0.19001  0.03870  1.0000
  H   H41       1.0  0.27191  0.21098  0.07289  1.0000
  C   C21       1.0  0.21850  0.10278  0.01249  1.0000
  H   H42       1.0  0.28814  0.23477  0.03832  1.0000
  H   H43       1.0  0.06416  0.31840  0.17984  1.0000
  H   H44       1.0  0.05226  0.17300  0.00202  1.0000
  H   H45       1.0  0.00269  0.32800  0.07699  1.0000
  H   H46       1.0  0.03648  0.33029  0.11941  1.0000
  H   H47       1.0  0.02884  0.32816  0.23719  1.0000
  H   H48       1.0  0.31998  0.19546  0.05041  1.0000
  C   C22       1.0  0.05191  0.32843  0.12802  1.0000
  C   C23       1.0  0.06752  0.32160  0.16220  1.0000
  H   H49       1.0  0.08622  0.16072  0.00508  1.0000
  S   S4        1.0  0.01117  0.25043  0.99977  1.0000
  Fe  Fe2       1.0  0.11040  0.25475  0.46088  1.0000
  S   S5        1.0  0.09504  0.20979  0.46082  1.0000
  S   S6        1.0  0.10672  0.27313  0.42943  1.0000
  Fe  Fe3       1.0  0.13061  0.21998  0.48118  1.0000
  C   C24       1.0  0.16488  0.32086  0.37619  1.0000
  Fe  Fe4       1.0  0.23046  0.06447  0.48957  1.0000
  H   H50       1.0  0.31766  0.13341  0.43654  1.0000
  S   S7        1.0  0.14693  0.26505  0.47911  1.0000
  Fe  Fe5       1.0  0.07616  0.20973  0.49195  1.0000
  Fe  Fe6       1.0  0.25660  0.11211  0.45817  1.0000
  S   S8        1.0  0.21466  0.08184  0.46575  1.0000
  S   S9        1.0  0.26439  0.11665  0.42189  1.0000
  H   H51       1.0  0.22637  0.02554  0.38923  1.0000
  C   C25       1.0  0.29247  0.12411  0.38538  1.0000
  H   H52       1.0  0.25115  0.05982  0.39718  1.0000
  H   H53       1.0  0.14395  0.20303  0.37691  1.0000
  S   S10       1.0  0.27205  0.09342  0.48067  1.0000
  H   H54       1.0  0.25794  0.04379  0.45380  1.0000
  H   H55       1.0  0.13166  0.31764  0.35944  1.0000
  H   H56       1.0  0.19907  0.02417  0.41939  1.0000
  H   H57       1.0  0.30974  0.18358  0.38070  1.0000
  H   H58       1.0  0.16318  0.29630  0.42671  1.0000
  H   H59       1.0  0.31571  0.17114  0.34401  1.0000
  H   H60       1.0  0.19385  0.32074  0.39721  1.0000
  S   S11       1.0  0.26088  0.14324  0.48325  1.0000
  H   H61       1.0  0.31381  0.12931  0.35626  1.0000
  C   C26       1.0  0.16807  0.18427  0.48047  1.0000
  C   C27       1.0  0.29325  0.12506  0.40812  1.0000
  H   H62       1.0  0.27772  0.04513  0.43193  1.0000
  C   C28       1.0  0.26172  0.04842  0.43641  1.0000
  C   C29       1.0  0.00405  0.17067  0.49675  1.0000
  H   H63       1.0  0.10093  0.29241  0.38858  1.0000
  C   C30       1.0  0.13867  0.31307  0.37403  1.0000
  C   C31       1.0  0.15622  0.30062  0.41199  1.0000
  C   C32       1.0  0.12986  0.29226  0.40959  1.0000
  C   C33       1.0  0.31672  0.13262  0.41907  1.0000
  C   C34       1.0  0.17356  0.31463  0.39530  1.0000
  C   C35       1.0  0.19641  0.16531  0.47871  1.0000
  S   S12       1.0  0.22435  0.02168  0.49067  1.0000
  H   H64       1.0  0.10866  0.20914  0.39135  1.0000
  H   H65       1.0  0.16669  0.23906  0.37991  1.0000
  Fe  Fe7       1.0  0.21992  0.11176  0.49227  1.0000
  S   S13       1.0  0.16164  0.20991  0.47236  1.0000
  H   H66       1.0  0.17383  0.21556  0.39244  1.0000
  H   H67       1.0  0.15446  0.24393  0.43763  1.0000
  H   H68       1.0  0.21259  0.03240  0.44642  1.0000
  C   C36       1.0  0.19022  0.18491  0.47260  1.0000
  H   H69       1.0  0.27432  0.11796  0.37674  1.0000
  C   C37       1.0  0.12128  0.29874  0.39059  1.0000
  C   C38       1.0  0.22847  0.00226  0.42618  1.0000
  H   H70       1.0  0.26908  0.07050  0.43462  1.0000
  H   H71       1.0  0.22381  0.05860  0.42670  1.0000
  H   H72       1.0  0.20275  0.20068  0.46172  1.0000
  H   H73       1.0  0.21350  0.16610  0.47251  1.0000
  N   N5        1.0  0.14475  0.22021  0.40813  1.0000
  C   C39       1.0  0.12392  0.22558  0.40213  1.0000
  C   C40       1.0  0.13331  0.19378  0.41891  1.0000
  C   C41       1.0  0.16397  0.24214  0.42300  1.0000
  C   C42       1.0  0.15790  0.21942  0.38847  1.0000
  H   H74       1.0  0.13183  0.24514  0.39359  1.0000
  H   H75       1.0  0.11404  0.22716  0.41660  1.0000
  C   C43       1.0  0.31490  0.13084  0.37371  1.0000
  H   H76       1.0  0.12351  0.19377  0.43395  1.0000
  H   H77       1.0  0.11856  0.17667  0.40830  1.0000
  H   H78       1.0  0.14854  0.18921  0.42381  1.0000
  H   H79       1.0  0.17377  0.26224  0.41515  1.0000
  H   H80       1.0  0.17932  0.23814  0.42871  1.0000
  N   N6        1.0  0.23788  0.03133  0.42289  1.0000
  S   S14       1.0  0.08967  0.25437  0.49112  1.0000
  C   C44       1.0  0.21744  0.03687  0.42912  1.0000
  H   H81       1.0  0.05234  0.31257  0.26064  1.0000
  C   C45       1.0  0.24392  0.03790  0.39996  1.0000
  H   H82       1.0  0.30324  0.20580  0.34883  1.0000
  C   C46       1.0  0.18052  0.14476  0.49283  1.0000
  H   H83       1.0  0.16838  0.00290  0.48996  1.0000
  S   S15       1.0  0.03499  0.17327  0.49726  1.0000
  H   H84       1.0  0.25933  0.03404  0.39467  1.0000
  H   H85       1.0  0.32642  0.23879  0.36050  1.0000
  C   C47       1.0  0.32436  0.22172  0.35024  1.0000
  H   H86       1.0  0.01889  0.21345  0.49364  1.0000
  C   C48       1.0  0.06325  0.33172  0.25253  1.0000
  C   C49       1.0  0.15212  0.16370  0.49455  1.0000
  C   C50       1.0  0.00158  0.19345  0.49494  1.0000
  H   H87       1.0  0.27084  0.33074  0.26617  1.0000
  H   H88       1.0  0.28066  0.04873  0.50328  1.0000
  S   S16       1.0  0.11088  0.21640  0.51251  1.0000
  S   S17       1.0  0.15271  0.29406  0.53462  1.0000
  H   H89       1.0  0.22401  0.25172  0.54102  1.0000
  S   S18       1.0  0.23254  0.09177  0.51705  1.0000
  H   H90       1.0  0.26230  0.14637  0.64693  1.0000
  C   C51       1.0  0.31440  0.13968  0.55622  1.0000
  H   H91       1.0  0.15346  0.20744  0.52708  1.0000
  H   H92       1.0  0.26304  0.10029  0.67050  1.0000
  H   H93       1.0  0.16905  0.25404  0.51519  1.0000
  C   C52       1.0  0.07497  0.26747  0.66934  1.0000
  H   H94       1.0  0.20026  0.25838  0.51064  1.0000
  H   H95       1.0  0.12607  0.29213  0.67967  1.0000
  C   C53       1.0  0.31165  0.16482  0.66003  1.0000
  C   C54       1.0  0.29333  0.12361  0.56934  1.0000
  H   H96       1.0  0.06851  0.24687  0.67547  1.0000
  C   C55       1.0  0.29214  0.14659  0.69418  1.0000
  H   H97       1.0  0.27361  0.11415  0.56277  1.0000
  H   H98       1.0  0.32426  0.06649  0.55235  1.0000
  C   C56       1.0  0.14948  0.29929  0.56251  1.0000
  C   C57       1.0  0.12816  0.28042  0.57427  1.0000
  H   H99       1.0  0.11259  0.26215  0.56624  1.0000
  H   H100      1.0  0.10756  0.26831  0.70006  1.0000
  N   N7        1.0  0.08957  0.28889  0.68622  1.0000
  H   H101      1.0  0.30849  0.14371  0.69901  1.0000
  H   H102      1.0  0.17703  0.26888  0.56308  1.0000
  H   H103      1.0  0.19737  0.28258  0.52748  1.0000
  C   C58       1.0  0.16954  0.32289  0.57331  1.0000
  H   H104      1.0  0.08364  0.30021  0.71783  1.0000
  C   C59       1.0  0.28100  0.11656  0.66299  1.0000
  C   C60       1.0  0.29778  0.11964  0.59104  1.0000
  S   S19       1.0  0.32758  0.12540  0.62721  1.0000
  H   H105      1.0  0.25026  0.05118  0.52905  1.0000
  H   H106      1.0  0.27454  0.13124  0.70268  1.0000
  S   S20       1.0  0.18741  0.11956  0.50129  1.0000
  C   C61       1.0  0.16835  0.24720  0.55770  1.0000
  C   C62       1.0  0.12696  0.28525  0.59651  1.0000
  S   S21       1.0  0.31017  0.14308  0.52817  1.0000
  H   H107      1.0  0.29703  0.11284  0.66697  1.0000
  H   H108      1.0  0.14879  0.24059  0.55040  1.0000
  C   C63       1.0  0.26606  0.14818  0.66473  1.0000
  H   H109      1.0  0.27057  0.16876  0.67014  1.0000
  C   C64       1.0  0.27492  0.02681  0.54240  1.0000
  H   H110      1.0  0.12434  0.30421  0.70617  1.0000
  H   H111      1.0  0.30289  0.07048  0.56988  1.0000
  C   C65       1.0  0.18824  0.26056  0.52303  1.0000
  H   H112      1.0  0.08731  0.27068  0.65512  1.0000
  C   C66       1.0  0.32326  0.13220  0.60006  1.0000
  C   C67       1.0  0.30945  0.07252  0.55295  1.0000
  H   H113      1.0  0.28135  0.10675  0.60089  1.0000
  N   N8        1.0  0.18506  0.24413  0.54213  1.0000
  Fe  Fe8       1.0  0.27310  0.12165  0.50663  1.0000
  H   H114      1.0  0.16532  0.23501  0.57232  1.0000
  Fe  Fe9       1.0  0.12550  0.26107  0.50966  1.0000
  C   C68       1.0  0.11289  0.28833  0.69335  1.0000
  H   H115      1.0  0.06636  0.26417  0.71214  1.0000
  H   H116      1.0  0.28894  0.01978  0.54107  1.0000
  C   C69       1.0  0.17280  0.21518  0.53529  1.0000
  C   C70       1.0  0.21091  0.25367  0.55240  1.0000
  H   H117      1.0  0.16975  0.20196  0.54924  1.0000
  H   H118      1.0  0.22066  0.27548  0.55772  1.0000
  H   H119      1.0  0.27784  0.11401  0.64512  1.0000
  C   C71       1.0  0.14693  0.30898  0.60727  1.0000
  H   H120      1.0  0.05736  0.26745  0.66341  1.0000
  S   S22       1.0  0.14442  0.31393  0.63538  1.0000
  N   N9        1.0  0.28733  0.05601  0.53757  1.0000
  C   C72       1.0  0.09774  0.31574  0.67725  1.0000
  H   H121      1.0  0.11036  0.27052  0.60541  1.0000
  H   H122      1.0  0.31760  0.18582  0.66554  1.0000
  H   H123      1.0  0.08069  0.31726  0.67220  1.0000
  H   H124      1.0  0.24764  0.13285  0.67234  1.0000
  N   N10       1.0  0.28770  0.14403  0.67049  1.0000
  H   H125      1.0  0.29753  0.16719  0.70041  1.0000
  C   C73       1.0  0.07290  0.28424  0.70489  1.0000
  H   H126      1.0  0.18501  0.21218  0.52359  1.0000
  H   H127      1.0  0.31152  0.05441  0.51317  1.0000
  H   H128      1.0  0.05524  0.28482  0.70020  1.0000
  C   C74       1.0  0.29695  0.06057  0.51532  1.0000
  H   H129      1.0  0.26135  0.06278  0.55635  1.0000
  H   H130      1.0  0.20924  0.24166  0.56686  1.0000
  H   H131      1.0  0.27608  0.08555  0.53445  1.0000
  C   C75       1.0  0.26790  0.06422  0.53949  1.0000
  H   H132      1.0  0.30651  0.08250  0.51125  1.0000
  H   H133      1.0  0.10989  0.31971  0.66283  1.0000
  C   C76       1.0  0.15838  0.14416  0.50070  1.0000
  H   H134      1.0  0.30917  0.16341  0.64210  1.0000
  H   H135      1.0  0.26731  0.02270  0.55903  1.0000
  H   H136      1.0  0.31955  0.09458  0.54927  1.0000
  C   C77       1.0  0.16826  0.32779  0.59551  1.0000
  H   H137      1.0  0.13489  0.16269  0.50061  1.0000
  H   H138      1.0  0.14585  0.12830  0.51155  1.0000
  H   H139      1.0  0.25812  0.01395  0.53098  1.0000
  H   H140      1.0  0.32826  0.16212  0.66393  1.0000
  H   H141      1.0  0.28743  0.31531  0.91852  1.0000
  H   H142      1.0  0.04142  0.28870  0.96405  1.0000
  H   H143      1.0  0.25886  0.27641  0.86403  1.0000
  H   H144      1.0  0.05999  0.27460  0.97426  1.0000
  H   H145      1.0  0.24603  0.25604  0.81729  1.0000
  Fe  Fe10      1.0  0.23855  0.23511  0.97037  1.0000
  S   S23       1.0  0.20317  0.19309  0.96366  1.0000
  S   S24       1.0  0.26011  0.26860  0.94524  1.0000
  H   H146      1.0  0.08438  0.26281  0.94937  1.0000
  H   H147      1.0  0.23040  0.30906  0.83109  1.0000
  S   S25       1.0  0.22675  0.14183  0.98151  1.0000
  H   H148      1.0  0.23427  0.10144  0.96044  1.0000
  C   C78       1.0  0.08348  0.27664  0.93739  1.0000
  C   C79       1.0  0.27909  0.32038  0.83886  1.0000
  H   H149      1.0  0.08421  0.26887  0.92104  1.0000
  C   C80       1.0  0.26313  0.27669  0.82116  1.0000
  N   N11       1.0  0.25574  0.29323  0.83416  1.0000
  H   H150      1.0  0.07644  0.30883  0.96482  1.0000
  Fe  Fe11      1.0  0.01147  0.21209  0.99165  1.0000
  C   C81       1.0  0.23620  0.29642  0.82186  1.0000
  H   H151      1.0  0.23992  0.32150  0.76098  1.0000
  S   S26       1.0  0.05431  0.22284  0.98684  1.0000
  H   H152      1.0  0.24411  0.30666  0.80626  1.0000
  H   H153      1.0  0.01816  0.24974  0.93888  1.0000
  C   C82       1.0  0.10417  0.23118  0.98408  1.0000
  Fe  Fe12      1.0  0.22157  0.17860  0.98830  1.0000
  H   H154      1.0  0.14336  0.23864  0.98123  1.0000
  H   H155      1.0  0.10134  0.29713  0.94001  1.0000
  C   C83       1.0  0.12362  0.22426  0.98583  1.0000
  Fe  Fe13      1.0  0.18469  0.20218  0.99164  1.0000
  H   H156      1.0  0.23955  0.29178  0.86517  1.0000
  S   S27       1.0  0.32778  0.30002  0.79826  1.0000
  C   C84       1.0  0.30663  0.28429  0.88234  1.0000
  C   C85       1.0  0.30366  0.30461  0.89204  1.0000
  C   C86       1.0  0.28938  0.29934  0.91114  1.0000
  C   C87       1.0  0.27794  0.27382  0.92103  1.0000
  C   C88       1.0  0.28092  0.25352  0.91130  1.0000
  C   C89       1.0  0.29511  0.25874  0.89215  1.0000
  H   H157      1.0  0.10941  0.25094  0.97820  1.0000
  C   C90       1.0  0.22459  0.11130  0.99118  1.0000
  H   H158      1.0  0.27229  0.23378  0.91857  1.0000
  N   N12       1.0  0.05956  0.27764  0.93975  1.0000
  C   C91       1.0  0.03651  0.24993  0.93639  1.0000
  C   C92       1.0  0.05870  0.29588  0.92362  1.0000
  C   C93       1.0  0.05938  0.28793  0.96168  1.0000
  H   H159      1.0  0.03689  0.23546  0.94791  1.0000
  H   H160      1.0  0.03544  0.24174  0.91980  1.0000
  C   C94       1.0  0.22954  0.09525  0.97695  1.0000
  H   H161      1.0  0.32509  0.22769  0.81142  1.0000
  H   H162      1.0  0.22678  0.25916  0.85175  1.0000
  H   H163      1.0  0.23218  0.05927  0.97247  1.0000
  S   S28       1.0  0.32397  0.28928  0.85788  1.0000
  H   H164      1.0  0.27154  0.28648  0.80559  1.0000
  H   H165      1.0  0.29716  0.24277  0.88493  1.0000
  H   H166      1.0  0.05800  0.28836  0.90683  1.0000
  C   C95       1.0  0.22833  0.07117  0.98375  1.0000
  C   C96       1.0  0.07814  0.21286  0.98981  1.0000
  H   H167      1.0  0.31264  0.32452  0.88507  1.0000
  H   H168      1.0  0.04105  0.29736  0.92544  1.0000
  H   H169      1.0  0.21829  0.27636  0.81793  1.0000
  H   H170      1.0  0.07601  0.31690  0.92541  1.0000
  H   H171      1.0  0.27807  0.27415  0.82988  1.0000
  C   C97       1.0  0.24469  0.27954  0.85465  1.0000
  C   C98       1.0  0.11742  0.19874  0.99332  1.0000
  S   S29       1.0  0.25771  0.22045  0.99378  1.0000
  S   S30       1.0  0.21907  0.24480  0.99725  1.0000
  H   H172      1.0  0.29481  0.31876  0.84717  1.0000
  S   S31       1.0  0.14115  0.18864  0.99622  1.0000
  H   H173      1.0  0.28713  0.33167  0.82373  1.0000
  C   C99       1.0  0.07204  0.18747  0.99754  1.0000
  S   S32       1.0  0.28940  0.33008  0.77560  1.0000
  C   C100      1.0  0.09147  0.18054  0.99925  1.0000
  H   H174      1.0  0.03032  0.34924  0.15298  1.0000
  H   H175      1.0  0.29186  0.37570  0.20776  1.0000
  S   S33       1.0  0.02160  0.64778  0.23214  1.0000
  C   C101      1.0  0.04562  0.34672  0.16104  1.0000
  H   H176      1.0  0.08692  0.34052  0.16051  1.0000
  S   S34       1.0  0.04774  0.37893  0.21366  1.0000
  H   H177      1.0  0.06697  0.65462  0.20916  1.0000
  H   H178      1.0  0.00559  0.52547  0.10248  1.0000
  C   C102      1.0  0.04065  0.59405  0.22305  1.0000
  H   H179      1.0  0.12535  0.38466  0.24708  1.0000
  H   H180      1.0  0.06105  0.60862  0.21842  1.0000
  H   H181      1.0  0.01543  0.55657  0.13433  1.0000
  H   H182      1.0  0.02095  0.50107  0.18246  1.0000
  S   S35       1.0  0.00956  0.60441  0.17599  1.0000
  H   H183      1.0  0.04535  0.55183  0.23355  1.0000
  H   H184      1.0  0.00559  0.63671  0.07925  1.0000
  C   C103      1.0  0.06360  0.36561  0.22917  1.0000
  C   C104      1.0  0.04985  0.34051  0.23922  1.0000
  C   C105      1.0  0.09091  0.38137  0.23211  1.0000
  C   C106      1.0  0.26733  0.38228  0.22907  1.0000
  H   H185      1.0  0.07083  0.34756  0.12543  1.0000
  C   C107      1.0  0.10433  0.37239  0.24515  1.0000
  H   H186      1.0  0.10178  0.40071  0.22425  1.0000
  C   C108      1.0  0.05404  0.56932  0.24542  1.0000
  C   C109      1.0  0.28204  0.37063  0.22294  1.0000
  H   H187      1.0  0.26624  0.39656  0.21858  1.0000
  Fe  Fe14      1.0  0.00596  0.35876  0.19958  1.0000
  Fe  Fe15      1.0  0.99652  0.61734  0.20493  1.0000
  C   C110      1.0  0.00013  0.48671  0.18234  1.0000
  H   H188      1.0  0.06449  0.36635  0.15981  1.0000
  S   S36       1.0  0.00352  0.37864  0.16915  1.0000
  C   C111      1.0  0.28367  0.35217  0.23637  1.0000
  H   H189      1.0  0.02983  0.60485  0.22206  1.0000
  S   S37       1.0  0.30271  0.33749  0.23006  1.0000
  H   H190      1.0  0.01326  0.58039  0.11695  1.0000
  H   H191      1.0  0.07485  0.58315  0.24135  1.0000
  H   H192      1.0  0.03175  0.57721  0.21066  1.0000
  H   H193      1.0  0.00420  0.45138  0.18197  1.0000
  H   H194      1.0  0.32162  0.42575  0.22004  1.0000
  H   H195      1.0  0.04117  0.34358  0.17847  1.0000
  N   N13       1.0  0.03966  0.58374  0.24493  1.0000
  H   H196      1.0  0.00316  0.54909  0.08535  1.0000
  C   C112      1.0  0.25368  0.37535  0.24847  1.0000
  H   H197      1.0  0.00204  0.54776  0.23807  1.0000
  C   C113      1.0  0.00182  0.56204  0.12686  1.0000
  C   C114      1.0  0.07357  0.66487  0.22479  1.0000
  C   C115      1.0  0.05563  0.66526  0.23861  1.0000
  S   S38       1.0  0.99629  0.53257  0.18246  1.0000
  Fe  Fe16      1.0  0.18909  0.41211  0.31267  1.0000
  S   S39       1.0  0.15450  0.37275  0.32309  1.0000
  S   S40       1.0  0.19073  0.44901  0.32855  1.0000
  Fe  Fe17      1.0  0.20653  0.38219  0.28208  1.0000
  C   C116      1.0  0.12806  0.41155  0.29087  1.0000
  H   H198      1.0  0.25846  0.55678  0.28390  1.0000
  Fe  Fe18      1.0  0.14822  0.35979  0.28796  1.0000
  H   H199      1.0  0.24459  0.35093  0.27665  1.0000
  Fe  Fe19      1.0  0.18173  0.35725  0.32529  1.0000
  C   C117      1.0  0.28763  0.60504  0.30512  1.0000
  S   S41       1.0  0.18100  0.40018  0.27734  1.0000
  S   S42       1.0  0.21703  0.39758  0.31673  1.0000
  Fe  Fe20      1.0  0.30289  0.59803  0.37429  1.0000
  C   C118      1.0  0.25445  0.58374  0.33171  1.0000
  S   S43       1.0  0.29542  0.55760  0.36012  1.0000
  S   S44       1.0  0.27458  0.61005  0.38510  1.0000
  H   H200      1.0  0.14751  0.42699  0.29801  1.0000
  H   H201      1.0  0.10560  0.44134  0.29205  1.0000
  C   C119      1.0  0.25471  0.55725  0.30136  1.0000
  H   H202      1.0  0.10799  0.37751  0.32421  1.0000
  C   C120      1.0  0.21999  0.47943  0.33670  1.0000
  C   C121      1.0  0.24447  0.48369  0.33198  1.0000
  C   C122      1.0  0.26729  0.50768  0.33941  1.0000
  C   C123      1.0  0.26593  0.52776  0.35147  1.0000
  C   C124      1.0  0.24143  0.52357  0.35610  1.0000
  C   C125      1.0  0.21857  0.49953  0.34870  1.0000
  H   H203      1.0  0.24588  0.46849  0.32265  1.0000
  H   H204      1.0  0.28617  0.51077  0.33572  1.0000
  H   H205      1.0  0.24009  0.53862  0.36569  1.0000
  H   H206      1.0  0.19971  0.49632  0.35257  1.0000
  H   H207      1.0  0.12801  0.39234  0.28851  1.0000
  H   H208      1.0  0.20911  0.40185  0.41883  1.0000
  C   C126      1.0  0.25495  0.35653  0.26170  1.0000
  H   H209      1.0  0.22210  0.57632  0.29854  1.0000
  H   H210      1.0  0.26787  0.58015  0.34168  1.0000
  N   N14       1.0  0.21708  0.41405  0.38588  1.0000
  C   C127      1.0  0.22923  0.43943  0.37360  1.0000
  C   C128      1.0  0.23129  0.39980  0.38223  1.0000
  C   C129      1.0  0.18958  0.39626  0.37847  1.0000
  C   C130      1.0  0.21813  0.42064  0.40915  1.0000
  H   H211      1.0  0.21899  0.45074  0.37590  1.0000
  H   H212      1.0  0.22848  0.43506  0.35597  1.0000
  H   H213      1.0  0.25009  0.45341  0.37854  1.0000
  H   H214      1.0  0.23110  0.39477  0.36477  1.0000
  H   H215      1.0  0.25205  0.41239  0.38787  1.0000
  H   H216      1.0  0.22215  0.38011  0.39074  1.0000
  H   H217      1.0  0.17961  0.37699  0.38754  1.0000
  H   H218      1.0  0.18825  0.39036  0.36114  1.0000
  H   H219      1.0  0.17835  0.40655  0.38034  1.0000
  N   N15       1.0  0.25996  0.58432  0.30854  1.0000
  H   H220      1.0  0.20748  0.43131  0.41243  1.0000
  H   H221      1.0  0.23862  0.43414  0.41526  1.0000
  N   N16       1.0  0.10668  0.40742  0.30479  1.0000
  C   C131      1.0  0.10782  0.43353  0.30780  1.0000
  H   H222      1.0  0.09439  0.39515  0.33720  1.0000
  C   C132      1.0  0.08132  0.38692  0.29451  1.0000
  H   H223      1.0  0.12912  0.41210  0.33377  1.0000
  H   H224      1.0  0.24692  0.61181  0.30132  1.0000
  H   H225      1.0  0.12633  0.41856  0.27462  1.0000
  S   S45       1.0  0.27944  0.65940  0.33828  1.0000
  C   C133      1.0  0.31435  0.61760  0.47351  1.0000
  H   H226      1.0  0.09202  0.43128  0.31830  1.0000
  H   H227      1.0  0.00112  0.57536  0.25105  1.0000
  H   H228      1.0  0.07953  0.36671  0.29281  1.0000
  S   S46       1.0  0.18752  0.33833  0.35561  1.0000
  H   H229      1.0  0.07218  0.62224  0.25672  1.0000
  H   H230      1.0  0.07885  0.39287  0.27800  1.0000
  C   C134      1.0  0.10967  0.39768  0.32597  1.0000
  C   C135      1.0  0.09051  0.34775  0.25583  1.0000
  H   H231      1.0  0.29250  0.62561  0.31102  1.0000
  H   H232      1.0  0.30088  0.60001  0.31391  1.0000
  H   H233      1.0  0.28895  0.65562  0.48909  1.0000
  H   H234      1.0  0.25701  0.60336  0.33751  1.0000
  S   S47       1.0  0.10599  0.33707  0.27462  1.0000
  H   H235      1.0  0.29237  0.60658  0.28774  1.0000
  H   H236      1.0  0.26742  0.55171  0.31045  1.0000
  H   H237      1.0  0.24667  0.59200  0.27853  1.0000
  Fe  Fe21      1.0  0.30453  0.63428  0.41185  1.0000
  H   H238      1.0  0.23415  0.54095  0.30411  1.0000
  H   H239      1.0  0.05194  0.59999  0.27740  1.0000
  Fe  Fe22      1.0  0.29783  0.64719  0.36505  1.0000
  H   H240      1.0  0.12683  0.44938  0.31545  1.0000
  S   S48       1.0  0.29536  0.64176  0.44600  1.0000
  C   C136      1.0  0.30302  0.63344  0.47153  1.0000
  C   C137      1.0  0.24312  0.59135  0.29613  1.0000
  H   H241      1.0  0.23414  0.56744  0.33514  1.0000
  S   S49       1.0  0.17301  0.34081  0.29081  1.0000
  S   S50       1.0  0.23621  0.39150  0.25566  1.0000
  H   H242      1.0  0.04077  0.61763  0.26111  1.0000
  C   C138      1.0  0.26991  0.34513  0.25570  1.0000
  H   H243      1.0  0.06465  0.38394  0.30417  1.0000
  H   H244      1.0  0.31837  0.60966  0.45916  1.0000
  C   C139      1.0  0.29778  0.64340  0.49042  1.0000
  H   H245      1.0  0.01064  0.55561  0.26638  1.0000
  C   C140      1.0  0.05171  0.60685  0.26075  1.0000
  C   C141      1.0  0.32021  0.61173  0.49415  1.0000
  S   S51       1.0  0.32484  0.63398  0.35295  1.0000
  H   H246      1.0  0.05369  0.56116  0.26167  1.0000
  C   C142      1.0  0.01217  0.56472  0.25036  1.0000
  Fe  Fe23      1.0  0.19751  0.41226  0.66918  1.0000
  S   S52       1.0  0.15584  0.37690  0.66866  1.0000
  S   S53       1.0  0.20183  0.45238  0.65890  1.0000
  Fe  Fe24      1.0  0.21813  0.37889  0.68998  1.0000
  H   H247      1.0  0.26689  0.54384  0.59778  1.0000
  S   S54       1.0  0.25727  0.38423  0.70087  1.0000
  Fe  Fe25      1.0  0.17157  0.35104  0.65728  1.0000
  H   H248      1.0  0.29942  0.64529  0.52542  1.0000
  Fe  Fe26      1.0  0.16436  0.36919  0.70221  1.0000
  S   S55       1.0  0.13672  0.35698  0.73057  1.0000
  S   S56       1.0  0.21272  0.38702  0.65506  1.0000
  S   S57       1.0  0.20506  0.40617  0.70371  1.0000
  Fe  Fe27      1.0  0.30804  0.59915  0.61730  1.0000
  S   S58       1.0  0.30521  0.56274  0.63419  1.0000
  S   S59       1.0  0.28184  0.60049  0.59169  1.0000
  H   H249      1.0  0.19727  0.46936  0.73809  1.0000
  S   S60       1.0  0.25685  0.64556  0.61334  1.0000
  H   H250      1.0  0.24295  0.48310  0.56145  1.0000
  H   H251      1.0  0.24448  0.53504  0.57534  1.0000
  H   H252      1.0  0.27356  0.49530  0.59349  1.0000
  C   C143      1.0  0.14995  0.42446  0.70263  1.0000
  C   C144      1.0  0.10801  0.35793  0.73519  1.0000
  C   C145      1.0  0.09575  0.36453  0.71906  1.0000
  H   H253      1.0  0.10332  0.36869  0.70300  1.0000
  C   C146      1.0  0.26568  0.36910  0.72198  1.0000
  H   H254      1.0  0.14067  0.46473  0.70886  1.0000
  H   H255      1.0  0.30438  0.56564  0.57374  1.0000
  C   C147      1.0  0.25749  0.50286  0.55436  1.0000
  H   H256      1.0  0.05245  0.58098  0.74205  1.0000
  C   C148      1.0  0.23088  0.48277  0.65207  1.0000
  C   C149      1.0  0.22937  0.50536  0.64589  1.0000
  C   C150      1.0  0.25191  0.53002  0.64049  1.0000
  C   C151      1.0  0.27625  0.53231  0.64117  1.0000
  C   C152      1.0  0.27779  0.50975  0.64738  1.0000
  C   C153      1.0  0.25523  0.48507  0.65277  1.0000
  H   H257      1.0  0.21063  0.50381  0.64535  1.0000
  H   H258      1.0  0.25043  0.54727  0.63595  1.0000
  H   H259      1.0  0.29653  0.51132  0.64804  1.0000
  H   H260      1.0  0.25669  0.46789  0.65756  1.0000
  C   C154      1.0  0.30369  0.63759  0.51106  1.0000
  S   S61       1.0  0.31531  0.63699  0.63484  1.0000
  H   H261      1.0  0.21357  0.64686  0.63033  1.0000
  H   H262      1.0  0.28210  0.55758  0.55131  1.0000
  H   H263      1.0  0.18382  0.34608  0.60352  1.0000
  H   H264      1.0  0.18852  0.43505  0.73183  1.0000
  H   H265      1.0  0.04375  0.63674  0.74230  1.0000
  C   C155      1.0  0.24696  0.34885  0.73492  1.0000
  H   H266      1.0  0.30676  0.39323  0.71579  1.0000
  H   H267      1.0  0.12408  0.42790  0.73601  1.0000
  C   C156      1.0  0.16079  0.46970  0.71315  1.0000
  H   H268      1.0  0.24133  0.50910  0.59324  1.0000
  H   H269      1.0  0.06815  0.65361  0.70848  1.0000
  C   C157      1.0  0.31486  0.62160  0.51305  1.0000
  N   N17       1.0  0.27311  0.52365  0.57140  1.0000
  H   H270      1.0  0.20025  0.45981  0.71099  1.0000
  C   C158      1.0  0.25560  0.52802  0.58498  1.0000
  Fe  Fe28      1.0  0.29156  0.64035  0.60794  1.0000
  C   C159      1.0  0.18793  0.45277  0.72553  1.0000
  H   H271      1.0  0.30549  0.54717  0.55073  1.0000
  C   C160      1.0  0.29205  0.54953  0.56135  1.0000
  H   H272      1.0  0.17282  0.47838  0.69859  1.0000
  Fe  Fe29      1.0  0.31798  0.62585  0.57271  1.0000
  S   S62       1.0  0.17814  0.34140  0.69118  1.0000
  H   H273      1.0  0.29979  0.52982  0.59758  1.0000
  N   N18       1.0  0.16086  0.44532  0.72024  1.0000
  C   C161      1.0  0.07344  0.36568  0.72371  1.0000
  C   C162      1.0  0.29978  0.36610  0.74204  1.0000
  H   H274      1.0  0.06424  0.37103  0.71118  1.0000
  C   C163      1.0  0.14478  0.43422  0.73951  1.0000
  C   C164      1.0  0.28726  0.51423  0.58495  1.0000
  H   H275      1.0  0.15031  0.40606  0.70727  1.0000
  H   H276      1.0  0.32016  0.37291  0.74462  1.0000
  C   C165      1.0  0.07824  0.66175  0.72391  1.0000
  H   H277      1.0  0.16890  0.48596  0.72601  1.0000
  S   S63       1.0  0.32223  0.61304  0.53861  1.0000
  C   C166      1.0  0.29210  0.37761  0.72568  1.0000
  H   H278      1.0  0.24661  0.50943  0.54387  1.0000
  H   H279      1.0  0.27010  0.49908  0.54377  1.0000
  C   C167      1.0  0.06434  0.65206  0.74311  1.0000
  H   H280      1.0  0.14459  0.41582  0.74521  1.0000
  H   H281      1.0  0.12943  0.41805  0.69838  1.0000
  H   H282      1.0  0.30020  0.51007  0.57518  1.0000
  H   H283      1.0  0.16129  0.43215  0.68772  1.0000
  C   C168      1.0  0.06278  0.35983  0.74439  1.0000
  H   H284      1.0  0.22659  0.34203  0.73228  1.0000
  H   H285      1.0  0.10953  0.33238  0.68935  1.0000
  H   H286      1.0  0.18617  0.33759  0.56442  1.0000
  S   S64       1.0  0.03496  0.36230  0.74929  1.0000
  C   C169      1.0  0.23111  0.66500  0.63644  1.0000
  H   H287      1.0  0.09326  0.62405  0.77314  1.0000
  H   H288      1.0  0.99674  0.43893  0.78027  1.0000
  H   H289      1.0  0.04645  0.59986  0.76185  1.0000
  S   S65       1.0  0.01854  0.36934  0.81227  1.0000
  H   H290      1.0  0.08044  0.55421  0.78188  1.0000
  S   S66       1.0  0.06087  0.64990  0.78802  1.0000
  H   H291      1.0  0.10639  0.34654  0.76840  1.0000
  Fe  Fe30      1.0  0.01810  0.61736  0.79376  1.0000
  C   C170      1.0  0.07708  0.66234  0.76320  1.0000
  H   H292      1.0  0.00437  0.65640  0.86776  1.0000
  H   H293      1.0  0.03947  0.56494  0.80012  1.0000
  H   H294      1.0  0.00018  0.48179  0.76844  1.0000
  C   C171      1.0  0.09271  0.60454  0.77043  1.0000
  Fe  Fe31      1.0  0.00834  0.35089  0.77837  1.0000
  H   H295      1.0  0.10773  0.60496  0.78146  1.0000
  S   S67       1.0  0.00989  0.58946  0.82177  1.0000
  C   C172      1.0  0.07474  0.35272  0.76039  1.0000
  H   H296      1.0  0.15229  0.44940  0.75316  1.0000
  H   H297      1.0  0.04656  0.53714  0.77373  1.0000
  C   C173      1.0  0.05935  0.58230  0.79674  1.0000
  H   H298      1.0  0.07319  0.58181  0.80861  1.0000
  H   H299      1.0  0.05942  0.60140  0.80000  1.0000
  C   C174      1.0  0.04734  0.58122  0.75917  1.0000
  H   H300      1.0  0.06680  0.34815  0.77637  1.0000
  N   N19       1.0  0.06645  0.58083  0.77427  1.0000
  C   C175      1.0  0.06624  0.55526  0.77077  1.0000
  H   H301      1.0  0.02737  0.56328  0.76126  1.0000
  H   H302      1.0  0.07123  0.55330  0.75391  1.0000
  C   C176      1.0  0.09722  0.35184  0.75580  1.0000
  C   C177      1.0  0.28105  0.34576  0.75490  1.0000
  H   H303      1.0  0.09857  0.60443  0.75351  1.0000
  C   C178      1.0  0.25462  0.33724  0.75122  1.0000
  H   H304      1.0  0.27461  0.33313  0.84941  1.0000
  S   S68       1.0  0.30340  0.88068  0.20180  1.0000
  N   N20       1.0  0.01495  0.74955  0.07400  1.0000
  C   C179      1.0  0.09431  0.83260  0.01425  1.0000
  Fe  Fe32      1.0  0.23709  0.95528  0.01892  1.0000
  S   S69       1.0  0.20071  0.95749  0.02137  1.0000
  S   S70       1.0  0.24875  0.94358  0.05102  1.0000
  H   H305      1.0  0.13370  0.86762  0.01844  1.0000
  H   H306      1.0  0.05285  0.76474  0.08883  1.0000
  H   H307      1.0  0.01972  0.78929  0.07654  1.0000
  H   H308      1.0  0.29192  0.90622  0.23773  1.0000
  S   S71       1.0  0.25891  0.99378  0.99978  1.0000
  C   C180      1.0  0.31360  0.97124  0.10488  1.0000
  C   C181      1.0  0.28892  0.94772  0.10680  1.0000
  C   C182      1.0  0.26960  0.93956  0.09011  1.0000
  C   C183      1.0  0.27449  0.95465  0.07118  1.0000
  C   C184      1.0  0.29918  0.97816  0.06925  1.0000
  C   C185      1.0  0.14722  0.76789  0.23627  1.0000
  H   H309      1.0  0.09439  0.82502  0.03011  1.0000
  S   S72       1.0  0.31894  0.95771  0.18706  1.0000
  H   H310      1.0  0.02990  0.76668  0.10581  1.0000
  H   H311      1.0  0.21894  0.96547  0.07115  1.0000
  C   C186      1.0  0.27336  0.83985  0.22987  1.0000
  H   H312      1.0  0.17991  0.75099  0.22811  1.0000
  C   C187      1.0  0.25885  0.82882  0.24863  1.0000
  C   C188      1.0  0.18684  0.81170  0.24261  1.0000
  C   C189      1.0  0.31846  0.98636  0.08596  1.0000
  H   H313      1.0  0.17654  0.82266  0.23905  1.0000
  C   C190      1.0  0.28539  0.86783  0.22573  1.0000
  H   H314      1.0  0.27540  0.82665  0.21855  1.0000
  H   H315      1.0  0.16587  0.80054  0.20232  1.0000
  N   N21       1.0  0.17488  0.78534  0.23055  1.0000
  H   H316      1.0  0.19713  0.80345  0.20233  1.0000
  H   H317      1.0  0.20770  0.82537  0.23862  1.0000
  H   H318      1.0  0.30359  0.98988  0.05477  1.0000
  C   C191      1.0  0.28279  0.88467  0.24062  1.0000
  H   H319      1.0  0.25069  0.92131  0.09190  1.0000
  C   C192      1.0  0.23094  0.98087  0.08411  1.0000
  H   H320      1.0  0.16785  0.77076  0.19755  1.0000
  H   H321      1.0  0.00519  0.72826  0.04337  1.0000
  H   H322      1.0  0.28472  0.93576  0.12113  1.0000
  H   H323      1.0  0.04269  0.78734  0.05952  1.0000
  H   H324      1.0  0.00974  0.77332  0.05018  1.0000
  C   C193      1.0  0.17648  0.79023  0.20712  1.0000
  C   C194      1.0  0.07185  0.81816  0.00064  1.0000
  H   H325      1.0  0.13585  0.77768  0.23253  1.0000
  H   H326      1.0  0.20974  0.78356  0.23132  1.0000
  C   C195      1.0  0.11677  0.85689  0.00766  1.0000
  H   H327      1.0  0.01359  0.71282  0.06419  1.0000
  C   C196      1.0  0.02209  0.77605  0.06475  1.0000
  H   H328      1.0  0.03867  0.74333  0.05185  1.0000
  C   C197      1.0  0.01836  0.73280  0.05768  1.0000
  C   C198      1.0  0.18907  0.77151  0.23613  1.0000
  H   H329      1.0  0.24603  0.97637  0.08959  1.0000
  H   H330      1.0  0.13765  0.74780  0.22748  1.0000
  C   C199      1.0  0.03194  0.75408  0.09314  1.0000
  C   C200      1.0  0.10019  0.67800  0.23115  1.0000
  H   H331      1.0  0.02694  0.73440  0.10046  1.0000
  H   H332      1.0  0.11389  0.67752  0.22036  1.0000
  S   S73       1.0  0.04422  0.78720  0.00995  1.0000
  H   H333      1.0  0.21808  0.97743  0.09788  1.0000
  Fe  Fe33      1.0  0.22208  0.99538  0.00146  1.0000
  H   H334      1.0  0.24843  0.99686  0.04486  1.0000
  Fe  Fe34      1.0  0.20367  0.74158  0.32592  1.0000
  S   S74       1.0  0.20941  0.78243  0.33559  1.0000
  S   S75       1.0  0.22123  0.72517  0.35006  1.0000
  Fe  Fe35      1.0  0.16442  0.73295  0.28919  1.0000
  S   S76       1.0  0.16694  0.77242  0.29730  1.0000
  H   H335      1.0  0.19371  0.75547  0.42535  1.0000
  Fe  Fe36      1.0  0.21036  0.79011  0.29985  1.0000
  S   S77       1.0  0.23649  0.83276  0.28657  1.0000
  Fe  Fe37      1.0  0.16587  0.76162  0.33227  1.0000
  S   S78       1.0  0.13774  0.76245  0.35636  1.0000
  S   S79       1.0  0.20820  0.75106  0.29044  1.0000
  S   S80       1.0  0.15980  0.72037  0.32383  1.0000
  C   C201      1.0  0.15020  0.93565  0.49196  1.0000
  H   H336      1.0  0.14119  0.70105  0.37575  1.0000
  H   H337      1.0  0.03294  0.88612  0.48785  1.0000
  C   C202      1.0  0.26353  0.67794  0.34185  1.0000
  Fe  Fe38      1.0  0.12795  0.81822  0.47504  1.0000
  S   S81       1.0  0.10073  0.83246  0.46596  1.0000
  S   S82       1.0  0.15573  0.81594  0.45131  1.0000
  Fe  Fe39      1.0  0.07256  0.80151  0.48906  1.0000
  S   S83       1.0  0.02943  0.77596  0.47758  1.0000
  S   S84       1.0  0.09865  0.78481  0.49609  1.0000
  C   C203      1.0  0.01083  0.83551  0.47005  1.0000
  H   H338      1.0  0.14531  0.76340  0.25377  1.0000
  H   H339      1.0  0.99826  0.83661  0.48248  1.0000
  H   H340      1.0  0.25677  0.67888  0.30765  1.0000
  C   C204      1.0  0.25403  0.68475  0.32357  1.0000
  C   C205      1.0  0.04440  0.88309  0.47543  1.0000
  C   C206      1.0  0.26798  0.87357  0.25920  1.0000
  C   C207      1.0  0.09135  0.69247  0.26501  1.0000
  H   H341      1.0  0.21658  0.96814  0.49238  1.0000
  H   H342      1.0  0.18056  0.76169  0.37921  1.0000
  C   C208      1.0  0.23753  0.70709  0.34619  1.0000
  C   C209      1.0  0.24113  0.69928  0.32569  1.0000
  H   H343      1.0  0.26585  0.88678  0.27046  1.0000
  C   C210      1.0  0.25992  0.68574  0.36232  1.0000
  H   H344      1.0  0.24433  0.70614  0.38037  1.0000
  H   H345      1.0  0.03962  0.88839  0.45951  1.0000
  H   H346      1.0  0.23400  0.70445  0.31151  1.0000
  H   H347      1.0  0.05105  0.67979  0.26948  1.0000
  C   C211      1.0  0.24697  0.70019  0.36445  1.0000
  C   C212      1.0  0.17511  0.93926  0.49241  1.0000
  C   C213      1.0  0.14313  0.77928  0.38206  1.0000
  C   C214      1.0  0.12162  0.77194  0.39511  1.0000
  C   C215      1.0  0.12496  0.78353  0.41606  1.0000
  C   C216      1.0  0.14998  0.80249  0.42434  1.0000
  C   C217      1.0  0.17146  0.81008  0.41119  1.0000
  C   C218      1.0  0.16808  0.79886  0.39011  1.0000
  H   H348      1.0  0.10219  0.75700  0.38905  1.0000
  H   H349      1.0  0.10824  0.77743  0.42595  1.0000
  H   H350      1.0  0.19089  0.82486  0.41735  1.0000
  H   H351      1.0  0.18481  0.80534  0.38015  1.0000
  H   H352      1.0  0.00632  0.81410  0.46939  1.0000
  C   C219      1.0  0.99914  0.76692  0.48939  1.0000
  H   H353      1.0  0.06549  0.89799  0.47926  1.0000
  H   H354      1.0  0.20128  0.72033  0.40870  1.0000
  H   H355      1.0  0.13074  0.69664  0.40325  1.0000
  H   H356      1.0  0.20800  0.75914  0.38749  1.0000
  H   H357      1.0  0.17710  0.92165  0.49311  1.0000
  C   C220      1.0  0.14340  0.71193  0.39138  1.0000
  H   H358      1.0  0.05021  0.85632  0.44223  1.0000
  H   H359      1.0  0.13559  0.72549  0.38859  1.0000
  H   H360      1.0  0.18524  0.73646  0.36707  1.0000
  H   H361      1.0  0.17953  0.69781  0.38777  1.0000
  C   C221      1.0  0.17309  0.74274  0.41936  1.0000
  H   H362      1.0  0.05084  0.83073  0.45796  1.0000
  S   S85       1.0  0.14296  0.70783  0.25849  1.0000
  H   H363      1.0  0.04256  0.82815  0.49664  1.0000
  H   H364      1.0  0.16882  0.69369  0.41519  1.0000
  N   N22       1.0  0.17096  0.72769  0.39913  1.0000
  C   C222      1.0  0.18694  0.74717  0.38259  1.0000
  C   C223      1.0  0.18048  0.70899  0.40295  1.0000
  C   C224      1.0  0.06473  0.67927  0.25867  1.0000
  H   H365      1.0  0.09798  0.70306  0.28053  1.0000
  H   H366      1.0  0.16563  0.75669  0.41695  1.0000
  Fe  Fe40      1.0  0.11805  0.86130  0.49473  1.0000
  C   C225      1.0  0.17043  0.98532  0.49058  1.0000
  C   C226      1.0  0.19531  0.98889  0.49114  1.0000
  N   N23       1.0  0.03883  0.85486  0.47514  1.0000
  H   H367      1.0  0.07591  0.86596  0.46214  1.0000
  C   C227      1.0  0.19748  0.96571  0.49198  1.0000
  C   C228      1.0  0.25580  0.84560  0.26329  1.0000
  H   H368      1.0  0.16154  0.72867  0.43233  1.0000
  C   C229      1.0  0.05463  0.85187  0.45861  1.0000
  H   H369      1.0  0.00487  0.83954  0.45410  1.0000
  C   C230      1.0  0.14804  0.95886  0.49099  1.0000
  H   H370      1.0  0.18644  0.80893  0.26038  1.0000
  C   C231      1.0  0.04562  0.84893  0.49655  1.0000
  H   H371      1.0  0.26709  0.68065  0.37653  1.0000
  H   H372      1.0  0.18908  0.76845  0.25380  1.0000
  H   H373      1.0  0.21048  0.98871  0.41624  1.0000
  S   S86       1.0  0.12126  0.90277  0.49248  1.0000
  H   H374      1.0  0.12891  0.95635  0.49065  1.0000
  H   H375      1.0  0.25017  0.80742  0.25183  1.0000
  C   C232      1.0  0.10923  0.69180  0.25131  1.0000
  S   S87       1.0  0.32556  0.67234  0.39238  1.0000
  H   H376      1.0  0.24342  0.99728  0.42182  1.0000
  H   H377      1.0  0.22362  0.99682  0.44340  1.0000
  Fe  Fe41      1.0  0.18430  0.75724  0.64711  1.0000
  S   S88       1.0  0.17583  0.71653  0.65861  1.0000
  S   S89       1.0  0.18425  0.76625  0.61123  1.0000
  Fe  Fe42      1.0  0.20841  0.78517  0.69178  1.0000
  S   S90       1.0  0.20124  0.74628  0.70649  1.0000
  S   S91       1.0  0.23182  0.82976  0.70353  1.0000
  Fe  Fe43      1.0  0.21542  0.73878  0.67508  1.0000
  S   S92       1.0  0.25017  0.73298  0.67297  1.0000
  Fe  Fe44      1.0  0.16179  0.72660  0.68907  1.0000
  S   S93       1.0  0.12134  0.69297  0.69953  1.0000
  S   S94       1.0  0.22476  0.77872  0.66170  1.0000
  S   S95       1.0  0.16806  0.76624  0.67629  1.0000
  H   H378      1.0  0.24755  0.70998  0.59560  1.0000
  C   C233      1.0  0.30773  0.83351  0.70685  1.0000
  C   C234      1.0  0.26983  0.78832  0.70887  1.0000
  H   H379      1.0  0.30852  0.79324  0.68484  1.0000
  H   H380      1.0  0.22479  0.75777  0.58173  1.0000
  Fe  Fe45      1.0  0.11636  0.81649  0.52324  1.0000
  S   S96       1.0  0.08841  0.83102  0.51726  1.0000
  S   S97       1.0  0.11963  0.80838  0.55904  1.0000
  H   H381      1.0  0.26166  0.76706  0.71427  1.0000
  C   C235      1.0  0.18912  0.70583  0.58996  1.0000
  H   H382      1.0  0.03354  0.85007  0.50941  1.0000
  H   H383      1.0  0.21163  0.88672  0.66445  1.0000
  C   C236      1.0  0.11769  0.69242  0.74454  1.0000
  C   C237      1.0  0.25167  0.84445  0.72740  1.0000
  H   H384      1.0  0.17814  0.68879  0.60117  1.0000
  H   H385      1.0  0.24459  0.74033  0.62133  1.0000
  C   C238      1.0  0.25161  0.70772  0.65728  1.0000
  C   C239      1.0  0.22909  0.68409  0.64942  1.0000
  H   H386      1.0  0.23653  0.80704  0.74443  1.0000
  H   H387      1.0  0.21009  0.68039  0.65345  1.0000
  C   C240      1.0  0.27813  0.69244  0.63958  1.0000
  C   C241      1.0  0.27611  0.71160  0.65253  1.0000
  C   C242      1.0  0.25038  0.82877  0.74494  1.0000
  H   H388      1.0  0.01533  0.78911  0.51951  1.0000
  H   H389      1.0  0.22719  0.73564  0.56244  1.0000
  H   H390      1.0  0.22343  0.69297  0.57416  1.0000
  C   C243      1.0  0.16541  0.77702  0.59681  1.0000
  C   C244      1.0  0.14581  0.77932  0.60654  1.0000
  C   C245      1.0  0.13193  0.78873  0.59464  1.0000
  C   C246      1.0  0.13718  0.79564  0.57283  1.0000
  C   C247      1.0  0.15655  0.79298  0.56303  1.0000
  C   C248      1.0  0.17061  0.78379  0.57498  1.0000
  H   H391      1.0  0.14119  0.77369  0.62316  1.0000
  H   H392      1.0  0.11682  0.79048  0.60230  1.0000
  H   H393      1.0  0.16083  0.79824  0.54629  1.0000
  H   H394      1.0  0.18566  0.78204  0.56724  1.0000
  C   C249      1.0  0.26927  0.87280  0.72871  1.0000
  C   C250      1.0  0.21748  0.87221  0.65899  1.0000
  C   C251      1.0  0.20340  0.82745  0.64437  1.0000
  H   H395      1.0  0.18592  0.82970  0.68334  1.0000
  H   H396      1.0  0.23174  0.88197  0.64596  1.0000
  H   H397      1.0  0.22789  0.86942  0.67288  1.0000
  H   H398      1.0  0.18658  0.80706  0.63945  1.0000
  H   H399      1.0  0.21442  0.82444  0.65754  1.0000
  H   H400      1.0  0.21625  0.83539  0.63025  1.0000
  S   S98       1.0  0.14726  0.84919  0.50280  1.0000
  H   H401      1.0  0.25271  0.75402  0.58265  1.0000
  H   H402      1.0  0.13821  0.70797  0.74527  1.0000
  H   H403      1.0  0.29778  0.84272  0.71523  1.0000
  C   C252      1.0  0.22347  0.73063  0.61694  1.0000
  N   N24       1.0  0.19461  0.84591  0.65144  1.0000
  C   C253      1.0  0.17642  0.83352  0.66933  1.0000
  C   C254      1.0  0.23121  0.74285  0.57963  1.0000
  N   N25       1.0  0.29805  0.80549  0.71401  1.0000
  C   C255      1.0  0.31178  0.79402  0.70267  1.0000
  C   C256      1.0  0.30268  0.80599  0.73757  1.0000
  C   C257      1.0  0.99768  0.77660  0.50985  1.0000
  H   H404      1.0  0.15892  0.81360  0.66420  1.0000
  H   H405      1.0  0.19412  0.85906  0.61914  1.0000
  C   C258      1.0  0.18118  0.85032  0.63314  1.0000
  H   H406      1.0  0.16948  0.84694  0.67522  1.0000
  H   H407      1.0  0.16367  0.83085  0.62727  1.0000
  H   H408      1.0  0.30452  0.77268  0.70749  1.0000
  H   H409      1.0  0.29368  0.72965  0.65868  1.0000
  H   H410      1.0  0.21253  0.71415  0.62850  1.0000
  N   N26       1.0  0.21757  0.71995  0.59442  1.0000
  H   H411      1.0  0.17449  0.86440  0.63777  1.0000
  H   H412      1.0  0.30412  0.83383  0.68919  1.0000
  H   H413      1.0  0.21557  0.68244  0.60142  1.0000
  H   H414      1.0  0.27038  0.88520  0.71532  1.0000
  H   H415      1.0  0.29710  0.69590  0.63575  1.0000
  C   C259      1.0  0.10497  0.68204  0.72444  1.0000
  C   C260      1.0  0.22644  0.70055  0.59121  1.0000
  H   H416      1.0  0.21798  0.74610  0.61970  1.0000
  H   H417      1.0  0.18178  0.71993  0.59200  1.0000
  H   H418      1.0  0.25871  0.79654  0.71655  1.0000
  H   H419      1.0  0.18388  0.69724  0.57316  1.0000
  H   H420      1.0  0.26584  0.78710  0.69118  1.0000
  C   C261      1.0  0.25559  0.66915  0.63127  1.0000
  H   H421      1.0  0.29547  0.78514  0.74354  1.0000
  C   C262      1.0  0.28558  0.88536  0.74721  1.0000
  H   H422      1.0  0.29904  0.90719  0.74795  1.0000
  H   H423      1.0  0.29251  0.81451  0.74654  1.0000
  H   H424      1.0  0.06648  0.86358  0.50115  1.0000
  H   H425      1.0  0.32383  0.81883  0.74204  1.0000
  S   S99       1.0  0.32612  0.66592  0.58711  1.0000
  S   S100      1.0  0.30449  0.88422  0.78842  1.0000
  Fe  Fe46      1.0  0.00340  0.75183  0.99801  1.0000
  C   C263      1.0  0.05350  0.71991  0.95308  1.0000
  H   H426      1.0  0.20400  0.96612  0.92410  1.0000
  S   S101      1.0  0.32079  0.95606  0.81161  1.0000
  H   H427      1.0  0.15597  0.91570  0.88375  1.0000
  Fe  Fe47      1.0  0.24040  0.96606  0.96994  1.0000
  S   S102      1.0  0.20498  0.97032  0.97084  1.0000
  S   S103      1.0  0.25390  0.96829  0.93471  1.0000
  H   H428      1.0  0.32162  0.90392  0.85978  1.0000
  S   S104      1.0  0.14516  0.89783  0.97770  1.0000
  H   H429      1.0  0.02793  0.74584  0.96025  1.0000
  H   H430      1.0  0.04547  0.71151  0.93652  1.0000
  H   H431      1.0  0.20330  0.91275  0.92162  1.0000
  H   H432      1.0  0.05525  0.81803  0.96954  1.0000
  H   H433      1.0  0.09472  0.86044  0.95777  1.0000
  H   H434      1.0  0.03568  0.74795  0.93245  1.0000
  H   H435      1.0  0.14471  0.93361  0.91574  1.0000
  C   C264      1.0  0.31277  0.96066  0.89169  1.0000
  C   C265      1.0  0.28438  0.86968  0.76470  1.0000
  C   C266      1.0  0.29527  0.96743  0.88293  1.0000
  H   H436      1.0  0.29561  0.97136  0.86588  1.0000
  C   C267      1.0  0.27691  0.96512  0.91871  1.0000
  C   C268      1.0  0.29419  0.95802  0.92741  1.0000
  H   H437      1.0  0.26166  0.83540  0.85387  1.0000
  H   H438      1.0  0.26542  0.82902  0.77693  1.0000
  C   C269      1.0  0.19555  0.95268  0.90941  1.0000
  S   S105      1.0  0.22114  0.92746  0.98896  1.0000
  C   C270      1.0  0.09484  0.85268  0.97354  1.0000
  N   N27       1.0  0.17530  0.92462  0.91495  1.0000
  H   H439      1.0  0.25889  0.89709  0.84221  1.0000
  C   C271      1.0  0.16485  0.90759  0.89497  1.0000
  C   C272      1.0  0.18686  0.91308  0.92930  1.0000
  H   H440      1.0  0.17211  0.89206  0.93409  1.0000
  H   H441      1.0  0.18054  0.90691  0.88624  1.0000
  H   H442      1.0  0.14953  0.88629  0.89858  1.0000
  H   H443      1.0  0.31166  0.88230  0.83592  1.0000
  C   C273      1.0  0.31189  0.95579  0.91401  1.0000
  H   H444      1.0  0.19499  0.92540  0.94450  1.0000
  N   N28       1.0  0.06472  0.74968  0.95448  1.0000
  C   C274      1.0  0.15392  0.92503  0.92602  1.0000
  H   H445      1.0  0.25480  0.87823  0.87863  1.0000
  H   H446      1.0  0.28307  0.89908  0.82447  1.0000
  H   H447      1.0  0.16106  0.93758  0.94124  1.0000
  H   H448      1.0  0.29412  0.95447  0.94452  1.0000
  H   H449      1.0  0.05919  0.75036  0.98862  1.0000
  H   H450      1.0  0.09495  0.78575  0.93987  1.0000
  C   C275      1.0  0.04427  0.75574  0.94897  1.0000
  C   C276      1.0  0.08610  0.76325  0.93916  1.0000
  H   H451      1.0  0.08363  0.78230  0.97831  1.0000
  H   H452      1.0  0.27541  0.86564  0.88696  1.0000
  H   H453      1.0  0.05189  0.77798  0.94989  1.0000
  H   H454      1.0  0.10187  0.75907  0.94281  1.0000
  H   H455      1.0  0.09027  0.75547  0.98156  1.0000
  C   C277      1.0  0.07235  0.82845  0.98016  1.0000
  H   H456      1.0  0.03698  0.70899  0.96419  1.0000
  H   H457      1.0  0.07890  0.75603  0.92225  1.0000
  Fe  Fe48      1.0  0.18621  0.93213  0.99051  1.0000
  C   C278      1.0  0.07496  0.75987  0.97669  1.0000
  H   H458      1.0  0.13842  0.90422  0.93066  1.0000
  H   H459      1.0  0.24074  0.84759  0.84557  1.0000
  H   H460      1.0  0.28890  0.90150  0.88431  1.0000
  C   C279      1.0  0.30663  0.88350  0.85295  1.0000
  N   N29       1.0  0.28014  0.87901  0.85420  1.0000
  C   C280      1.0  0.26667  0.84133  0.76343  1.0000
  H   H461      1.0  0.30853  0.86813  0.86213  1.0000
  C   C281      1.0  0.26098  0.85171  0.84499  1.0000
  C   C282      1.0  0.27861  0.89986  0.84173  1.0000
  H   H462      1.0  0.06824  0.71442  0.95726  1.0000
  H   H463      1.0  0.29275  0.92073  0.84826  1.0000
  H   H464      1.0  0.26498  0.84985  0.82772  1.0000
  C   C283      1.0  0.27447  0.88107  0.87702  1.0000
  H   H465      1.0  0.18761  0.96209  0.89860  1.0000
  C   C284      1.0  0.10384  0.68254  0.76377  1.0000
  C   C285      1.0  0.27754  0.96962  0.89633  1.0000
  H   H466      1.0  0.21216  0.95318  0.90127  1.0000
  C   C286      1.0  0.11726  0.86724  0.98722  1.0000
  H   H467      1.0  0.11392  0.69066  0.77919  1.0000
  H   H468      1.0  0.01469  0.69091  0.89703  1.0000
  C   C287      1.0  0.99702  0.67111  0.89764  1.0000
  H   H469      1.0  0.26449  0.97528  0.88930  1.0000
  H   H470      1.0  0.32524  0.95053  0.92109  1.0000
  S   S106      1.0  0.00026  0.71104  0.99757  1.0000
  H   H471      1.0  0.37967  0.10324  0.21836  1.0000
  S   S107      1.0  0.39089  0.30118  0.21010  1.0000
  C   C288      1.0  0.37742  0.08977  0.23125  1.0000
  C   C289      1.0  0.38388  0.28118  0.23349  1.0000
  C   C290      1.0  0.45333  0.04059  0.20634  1.0000
  S   S108      1.0  0.63376  0.03815  0.22384  1.0000
  H   H472      1.0  0.36003  0.13995  0.22188  1.0000
  H   H473      1.0  0.33222  0.14153  0.21318  1.0000
  H   H474      1.0  0.36281  0.21570  0.22549  1.0000
  C   C291      1.0  0.37147  0.06310  0.22612  1.0000
  H   H475      1.0  0.43269  0.00491  0.23813  1.0000
  H   H476      1.0  0.44303  0.07975  0.21546  1.0000
  H   H477      1.0  0.46322  0.02895  0.20898  1.0000
  C   C292      1.0  0.42371  0.01731  0.23501  1.0000
  H   H478      1.0  0.36915  0.05623  0.20944  1.0000
  C   C293      1.0  0.42955  0.05949  0.22228  1.0000
  H   H479      1.0  0.46768  0.06045  0.19937  1.0000
  C   C294      1.0  0.36848  0.04542  0.24262  1.0000
  H   H480      1.0  0.43759  0.02885  0.19388  1.0000
  C   C295      1.0  0.39297  0.19370  0.22797  1.0000
  C   C296      1.0  0.35392  0.15328  0.21421  1.0000
  Fe  Fe49      1.0  0.37016  0.32282  0.19818  1.0000
  H   H481      1.0  0.41770  0.27769  0.23034  1.0000
  N   N30       1.0  0.36416  0.17909  0.22674  1.0000
  H   H482      1.0  0.33140  0.31976  0.07554  1.0000
  H   H483      1.0  0.39991  0.18133  0.23603  1.0000
  H   H484      1.0  0.47447  0.04854  0.24635  1.0000
  S   S109      1.0  0.60152  0.00165  0.17147  1.0000
  H   H485      1.0  0.47884  0.08006  0.23694  1.0000
  C   C297      1.0  0.40064  0.27202  0.23965  1.0000
  H   H486      1.0  0.41268  0.04810  0.21067  1.0000
  S   S110      1.0  0.36210  0.01198  0.23731  1.0000
  H   H487      1.0  0.40138  0.21320  0.23741  1.0000
  H   H488      1.0  0.36360  0.20182  0.19963  1.0000
  H   H489      1.0  0.36120  0.15699  0.19748  1.0000
  H   H490      1.0  0.40140  0.19853  0.21166  1.0000
  H   H491      1.0  0.40725  0.00552  0.22324  1.0000
  C   C298      1.0  0.36204  0.27390  0.24583  1.0000
  H   H492      1.0  0.42164  0.06289  0.23732  1.0000
  N   N31       1.0  0.44272  0.04426  0.22658  1.0000
  C   C299      1.0  0.35582  0.19631  0.21614  1.0000
  C   C300      1.0  0.46418  0.05954  0.24274  1.0000
  H   H493      1.0  0.34896  0.28079  0.24133  1.0000
  S   S111      1.0  0.32869  0.30620  0.18629  1.0000
  H   H494      1.0  0.33746  0.00447  0.08413  1.0000
  S   S112      1.0  0.33619  0.32511  0.12194  1.0000
  H   H495      1.0  0.33418  0.18582  0.21473  1.0000
  H   H496      1.0  0.66120  0.02649  0.17025  1.0000
  H   H497      1.0  0.33231  0.16271  0.24860  1.0000
  C   C301      1.0  0.35394  0.17305  0.24877  1.0000
  S   S113      1.0  0.38198  0.99949  0.17818  1.0000
  Fe  Fe50      1.0  0.38239  0.16416  0.33710  1.0000
  S   S114      1.0  0.40505  0.20971  0.33480  1.0000
  C   C302      1.0  0.33918  0.13948  0.40738  1.0000
  Fe  Fe51      1.0  0.39380  0.15655  0.29015  1.0000
  S   S115      1.0  0.41750  0.20201  0.28526  1.0000
  N   N32       1.0  0.33975  0.21064  0.35936  1.0000
  Fe  Fe52      1.0  0.43544  0.20498  0.31827  1.0000
  S   S116      1.0  0.47748  0.23854  0.32681  1.0000
  Fe  Fe53      1.0  0.38567  0.20345  0.30214  1.0000
  S   S117      1.0  0.36604  0.22705  0.29281  1.0000
  S   S118      1.0  0.41414  0.15953  0.32214  1.0000
  S   S119      1.0  0.36061  0.15791  0.30543  1.0000
  C   C303      1.0  0.35695  0.25747  0.26399  1.0000
  Fe  Fe54      1.0  0.61101  0.26538  0.37755  1.0000
  S   S120      1.0  0.61801  0.30509  0.39058  1.0000
  S   S121      1.0  0.57111  0.22956  0.36681  1.0000
  C   C304      1.0  0.37163  0.05480  0.26422  1.0000
  H   H498      1.0  0.45671  0.06251  0.25822  1.0000
  H   H499      1.0  0.36195  0.19196  0.25889  1.0000
  H   H500      1.0  0.41504  0.01915  0.25020  1.0000
  S   S122      1.0  0.63384  0.26070  0.40468  1.0000
  H   H501      1.0  0.35930  0.15954  0.25704  1.0000
  H   H502      1.0  0.59183  0.26788  0.32736  1.0000
  H   H503      1.0  0.57249  0.30696  0.33430  1.0000
  H   H504      1.0  0.58547  0.26231  0.29875  1.0000
  C   C305      1.0  0.59321  0.31482  0.33054  1.0000
  C   C306      1.0  0.37362  0.24820  0.27007  1.0000
  C   C307      1.0  0.39565  0.25577  0.25790  1.0000
  C   C308      1.0  0.62333  0.31412  0.30572  1.0000
  C   C309      1.0  0.58314  0.27243  0.31320  1.0000
  H   H505      1.0  0.35728  0.14544  0.41603  1.0000
  S   S123      1.0  0.64488  0.28464  0.35533  1.0000
  C   C310      1.0  0.50207  0.23487  0.33968  1.0000
  C   C311      1.0  0.50101  0.21002  0.33966  1.0000
  C   C312      1.0  0.52211  0.20861  0.34838  1.0000
  C   C313      1.0  0.54434  0.23193  0.35736  1.0000
  C   C314      1.0  0.54497  0.25656  0.35816  1.0000
  C   C315      1.0  0.52406  0.25806  0.34913  1.0000
  H   H506      1.0  0.48422  0.19202  0.33244  1.0000
  H   H507      1.0  0.52135  0.18940  0.34786  1.0000
  H   H508      1.0  0.56171  0.27450  0.36543  1.0000
  H   H509      1.0  0.52490  0.27731  0.34939  1.0000
  H   H510      1.0  0.37086  0.25000  0.37095  1.0000
  H   H511      1.0  0.34256  0.19508  0.32848  1.0000
  C   C316      1.0  0.33066  0.20023  0.38115  1.0000
  C   C317      1.0  0.63907  0.30148  0.47577  1.0000
  H   H512      1.0  0.57434  0.22570  0.44412  1.0000
  H   H513      1.0  0.34837  0.17987  0.35115  1.0000
  H   H514      1.0  0.37977  0.08825  0.28604  1.0000
  N   N33       1.0  0.56055  0.25324  0.43977  1.0000
  C   C318      1.0  0.53730  0.23752  0.45294  1.0000
  C   C319      1.0  0.57068  0.28268  0.44276  1.0000
  C   C320      1.0  0.55344  0.24523  0.41674  1.0000
  H   H515      1.0  0.52147  0.24118  0.44807  1.0000
  C   C321      1.0  0.38042  0.09908  0.25288  1.0000
  H   H516      1.0  0.36943  0.04132  0.27711  1.0000
  H   H517      1.0  0.58764  0.29506  0.43239  1.0000
  C   C322      1.0  0.63332  0.09098  0.30094  1.0000
  H   H518      1.0  0.57767  0.28982  0.45973  1.0000
  H   H519      1.0  0.57062  0.25664  0.40643  1.0000
  H   H520      1.0  0.53823  0.24930  0.41082  1.0000
  H   H521      1.0  0.54593  0.22319  0.41372  1.0000
  S   S124      1.0  0.38787  0.13291  0.25827  1.0000
  H   H522      1.0  0.59898  0.25971  0.43751  1.0000
  H   H523      1.0  0.65790  0.10473  0.34001  1.0000
  S   S125      1.0  0.63903  0.31524  0.45027  1.0000
  H   H524      1.0  0.37971  0.22480  0.36804  1.0000
  H   H525      1.0  0.33089  0.22965  0.33376  1.0000
  H   H526      1.0  0.37530  0.24007  0.34448  1.0000
  C   C323      1.0  0.33641  0.18817  0.34514  1.0000
  H   H527      1.0  0.33286  0.21658  0.39239  1.0000
  H   H528      1.0  0.56184  0.26250  0.31584  1.0000
  H   H529      1.0  0.52933  0.21524  0.45116  1.0000
  Fe  Fe55      1.0  0.64337  0.30215  0.41634  1.0000
  C   C324      1.0  0.36762  0.23237  0.36078  1.0000
  H   H530      1.0  0.54205  0.24325  0.47041  1.0000
  C   C325      1.0  0.33854  0.13896  0.38465  1.0000
  S   S126      1.0  0.36768  0.14831  0.37087  1.0000
  C   C326      1.0  0.58089  0.24755  0.44668  1.0000
  H   H531      1.0  0.64303  0.26868  0.46354  1.0000
  H   H532      1.0  0.58646  0.25296  0.46409  1.0000
  H   H533      1.0  0.55561  0.28769  0.43854  1.0000
  H   H534      1.0  0.34193  0.19167  0.38835  1.0000
  H   H535      1.0  0.40901  0.24939  0.26272  1.0000
  C   C327      1.0  0.37752  0.08143  0.26935  1.0000
  C   C328      1.0  0.64084  0.27831  0.47779  1.0000
  H   H536      1.0  0.62311  0.07473  0.31291  1.0000
  H   H537      1.0  0.33991  0.25189  0.27332  1.0000
  H   H538      1.0  0.62864  0.08085  0.28462  1.0000
  H   H539      1.0  0.60246  0.31084  0.34459  1.0000
  H   H540      1.0  0.62489  0.10421  0.30146  1.0000
  N   N34       1.0  0.66178  0.10693  0.30549  1.0000
  H   H541      1.0  0.65987  0.13427  0.32840  1.0000
  N   N35       1.0  0.59546  0.30211  0.31047  1.0000
  Fe  Fe56      1.0  0.65359  0.32467  0.37021  1.0000
  H   H542      1.0  0.56110  0.29838  0.29560  1.0000
  C   C329      1.0  0.63633  0.31375  0.49451  1.0000
  H   H543      1.0  0.58346  0.29785  0.27704  1.0000
  C   C330      1.0  0.58218  0.30716  0.29246  1.0000
  H   H544      1.0  0.62592  0.30537  0.29055  1.0000
  H   H545      1.0  0.63387  0.31053  0.31897  1.0000
  C   C331      1.0  0.63961  0.26745  0.49832  1.0000
  H   H546      1.0  0.59105  0.32940  0.29006  1.0000
  H   H547      1.0  0.63497  0.33170  0.49314  1.0000
  Fe  Fe57      1.0  0.39138  0.13711  0.68821  1.0000
  S   S127      1.0  0.41437  0.18174  0.69867  1.0000
  S   S128      1.0  0.39595  0.10265  0.70122  1.0000
  Fe  Fe58      1.0  0.36366  0.14696  0.64994  1.0000
  S   S129      1.0  0.38508  0.19172  0.65751  1.0000
  H   H548      1.0  0.56121  0.27992  0.67034  1.0000
  Fe  Fe59      1.0  0.42112  0.18948  0.66306  1.0000
  S   S130      1.0  0.45773  0.22539  0.64902  1.0000
  Fe  Fe60      1.0  0.37683  0.18105  0.69230  1.0000
  S   S131      1.0  0.35526  0.19983  0.70779  1.0000
  S   S132      1.0  0.40016  0.14512  0.65273  1.0000
  S   S133      1.0  0.35358  0.13594  0.68464  1.0000
  Fe  Fe61      1.0  0.63441  0.28027  0.57652  1.0000
  S   S134      1.0  0.62700  0.24902  0.60160  1.0000
  H   H549      1.0  0.46281  0.31220  0.67200  1.0000
  H   H550      1.0  0.65165  0.03765  0.71489  1.0000
  H   H551      1.0  0.66150  0.22232  0.62619  1.0000
  S   S135      1.0  0.64083  0.29602  0.63830  1.0000
  Fe  Fe62      1.0  0.60486  0.26481  0.61931  1.0000
  S   S136      1.0  0.56884  0.23696  0.63889  1.0000
  S   S137      1.0  0.60918  0.29325  0.59293  1.0000
  C   C332      1.0  0.38255  0.08106  0.72366  1.0000
  H   H552      1.0  0.64108  0.14663  0.70623  1.0000
  H   H553      1.0  0.40138  0.23049  0.73688  1.0000
  H   H554      1.0  0.39796  0.24906  0.66357  1.0000
  C   C333      1.0  0.36510  0.22682  0.72712  1.0000
  H   H555      1.0  0.56508  0.30644  0.68856  1.0000
  C   C334      1.0  0.61040  0.32239  0.66936  1.0000
  H   H556      1.0  0.39102  0.05162  0.71078  1.0000
  H   H557      1.0  0.39912  0.27051  0.69842  1.0000
  C   C335      1.0  0.48767  0.22674  0.64513  1.0000
  C   C336      1.0  0.50529  0.24489  0.63017  1.0000
  C   C337      1.0  0.52975  0.24749  0.62736  1.0000
  C   C338      1.0  0.53731  0.23269  0.64009  1.0000
  C   C339      1.0  0.51963  0.21451  0.65500  1.0000
  C   C340      1.0  0.49489  0.21134  0.65738  1.0000
  H   H558      1.0  0.49980  0.25666  0.62041  1.0000
  H   H559      1.0  0.54262  0.26075  0.61524  1.0000
  H   H560      1.0  0.52513  0.20278  0.66482  1.0000
  H   H561      1.0  0.48161  0.19729  0.66896  1.0000
  H   H562      1.0  0.47111  0.30153  0.69643  1.0000
  H   H563      1.0  0.65357  0.13002  0.73843  1.0000
  H   H564      1.0  0.43991  0.24099  0.68584  1.0000
  H   H565      1.0  0.42950  0.29239  0.71265  1.0000
  C   C341      1.0  0.63687  0.27974  0.51707  1.0000
  S   S138      1.0  0.63510  0.26488  0.54244  1.0000
  H   H566      1.0  0.43980  0.25627  0.71124  1.0000
  H   H567      1.0  0.58353  0.29219  0.63504  1.0000
  H   H568      1.0  0.42751  0.25446  0.65215  1.0000
  C   C342      1.0  0.43039  0.25021  0.69483  1.0000
  H   H569      1.0  0.35630  0.16505  0.55536  1.0000
  H   H570      1.0  0.40965  0.23395  0.69672  1.0000
  C   C343      1.0  0.33985  0.15250  0.56533  1.0000
  C   C344      1.0  0.64917  0.13693  0.69597  1.0000
  H   H571      1.0  0.60035  0.32683  0.62706  1.0000
  N   N36       1.0  0.43253  0.27362  0.68342  1.0000
  C   C345      1.0  0.42022  0.28559  0.69621  1.0000
  C   C346      1.0  0.41912  0.26429  0.66201  1.0000
  H   H572      1.0  0.47001  0.28554  0.67095  1.0000
  C   C347      1.0  0.46037  0.29419  0.68059  1.0000
  C   C348      1.0  0.34429  0.14892  0.58715  1.0000
  H   H573      1.0  0.42166  0.30351  0.68823  1.0000
  H   H574      1.0  0.37163  0.10609  0.74094  1.0000
  H   H575      1.0  0.42083  0.28150  0.65268  1.0000
  H   H576      1.0  0.64592  0.09933  0.72383  1.0000
  C   C349      1.0  0.63536  0.30305  0.51507  1.0000
  C   C350      1.0  0.38334  0.05704  0.72431  1.0000
  N   N37       1.0  0.58690  0.32058  0.65956  1.0000
  Fe  Fe63      1.0  0.64620  0.32410  0.61146  1.0000
  C   C351      1.0  0.34856  0.23695  0.73056  1.0000
  C   C352      1.0  0.38875  0.23848  0.73890  1.0000
  H   H577      1.0  0.36400  0.15867  0.59382  1.0000
  H   H578      1.0  0.37415  0.02112  0.74206  1.0000
  H   H579      1.0  0.60855  0.30209  0.66926  1.0000
  C   C353      1.0  0.66150  0.12095  0.72730  1.0000
  H   H580      1.0  0.63296  0.11598  0.69138  1.0000
  C   C354      1.0  0.37403  0.03983  0.74215  1.0000
  C   C355      1.0  0.37230  0.08767  0.74114  1.0000
  H   H581      1.0  0.63324  0.31273  0.52931  1.0000
  H   H582      1.0  0.65588  0.14871  0.68084  1.0000
  C   C356      1.0  0.58394  0.31165  0.63669  1.0000
  H   H583      1.0  0.33018  0.22806  0.72160  1.0000
  H   H584      1.0  0.56570  0.30863  0.62904  1.0000
  H   H585      1.0  0.34283  0.26640  0.74775  1.0000
  H   H586      1.0  0.54545  0.29824  0.66405  1.0000
  C   C357      1.0  0.56363  0.30051  0.67120  1.0000
  C   C358      1.0  0.35566  0.25870  0.74539  1.0000
  H   H587      1.0  0.64077  0.24939  0.49968  1.0000
  C   C359      1.0  0.65918  0.04459  0.74925  1.0000
  H   H588      1.0  0.61379  0.33000  0.68642  1.0000
  H   H589      1.0  0.48191  0.07997  0.77966  1.0000
  S   S139      1.0  0.38972  0.29823  0.77567  1.0000
  H   H590      1.0  0.41431  0.26930  0.76261  1.0000
  S   S140      1.0  0.62927  0.01445  0.75528  1.0000
  S   S141      1.0  0.35466  0.02738  0.78378  1.0000
  H   H591      1.0  0.37083  0.28856  0.84546  1.0000
  C   C360      1.0  0.37999  0.27863  0.83691  1.0000
  H   H592      1.0  0.35604  0.07633  0.77278  1.0000
  H   H593      1.0  0.38958  0.29076  0.82244  1.0000
  H   H594      1.0  0.48948  0.00824  0.79214  1.0000
  H   H595      1.0  0.35938  0.21629  0.81423  1.0000
  N   N38       1.0  0.44000  0.05574  0.77830  1.0000
  H   H596      1.0  0.45334  0.07548  0.80962  1.0000
  C   C361      1.0  0.43776  0.05592  0.80201  1.0000
  C   C362      1.0  0.37347  0.23790  0.81916  1.0000
  H   H597      1.0  0.41788  0.07501  0.77329  1.0000
  H   H598      1.0  0.46794  0.05976  0.75520  1.0000
  H   H599      1.0  0.43925  0.03919  0.80938  1.0000
  H   H600      1.0  0.38924  0.23850  0.82932  1.0000
  C   C363      1.0  0.41932  0.02914  0.76910  1.0000
  H   H601      1.0  0.41941  0.02863  0.75115  1.0000
  Fe  Fe64      1.0  0.34311  0.32064  0.83087  1.0000
  H   H602      1.0  0.42171  0.01230  0.77479  1.0000
  Fe  Fe65      1.0  0.36928  0.31992  0.78821  1.0000
  C   C364      1.0  0.36349  0.07074  0.75919  1.0000
  H   H603      1.0  0.38252  0.24920  0.80419  1.0000
  H   H604      1.0  0.34828  0.26071  0.80171  1.0000
  C   C365      1.0  0.46575  0.06008  0.77299  1.0000
  C   C366      1.0  0.39593  0.26035  0.75362  1.0000
  C   C367      1.0  0.43700  0.07760  0.76914  1.0000
  H   H605      1.0  0.41863  0.05306  0.80652  1.0000
  N   N39       1.0  0.36051  0.25000  0.83080  1.0000
  C   C368      1.0  0.36449  0.04685  0.75992  1.0000
  H   H606      1.0  0.39565  0.28023  0.84785  1.0000
  H   H607      1.0  0.39972  0.02445  0.77393  1.0000
  H   H608      1.0  0.45254  0.09807  0.77540  1.0000
  C   C369      1.0  0.37948  0.27062  0.75693  1.0000
  H   H609      1.0  0.46840  0.04378  0.77980  1.0000
  H   H610      1.0  0.36352  0.23504  0.86167  1.0000
  C   C370      1.0  0.34860  0.23468  0.85051  1.0000
  H   H611      1.0  0.43773  0.07758  0.75119  1.0000
  C   C371      1.0  0.33996  0.24895  0.81657  1.0000
  H   H612      1.0  0.33882  0.24364  0.85957  1.0000
  H   H613      1.0  0.58869  0.99945  0.86404  1.0000
  H   H614      1.0  0.56977  0.01413  0.87115  1.0000
  H   H615      1.0  0.33363  0.21300  0.84657  1.0000
  H   H616      1.0  0.32965  0.25774  0.82488  1.0000
  H   H617      1.0  0.64998  0.00859  0.91298  1.0000
  H   H618      1.0  0.57216  0.00307  0.90939  1.0000
  S   S142      1.0  0.59790  0.99950  0.81716  1.0000
  H   H619      1.0  0.50121  0.38883  0.21723  1.0000
  S   S143      1.0  0.34704  0.37040  0.17599  1.0000
  C   C372      1.0  0.64179  0.62439  0.09045  1.0000
  Fe  Fe66      1.0  0.38753  0.38259  0.18842  1.0000
  S   S144      1.0  0.42122  0.42623  0.19793  1.0000
  S   S145      1.0  0.37198  0.35671  0.21775  1.0000
  Fe  Fe67      1.0  0.59341  0.61521  0.19709  1.0000
  S   S146      1.0  0.58105  0.59637  0.16351  1.0000
  C   C373      1.0  0.45449  0.35468  0.19796  1.0000
  Fe  Fe68      1.0  0.62331  0.58565  0.20628  1.0000
  S   S147      1.0  0.61348  0.56559  0.17307  1.0000
  H   H620      1.0  0.49149  0.40899  0.23204  1.0000
  Fe  Fe69      1.0  0.62224  0.60598  0.15972  1.0000
  H   H621      1.0  0.42584  0.37728  0.20585  1.0000
  Fe  Fe70      1.0  0.57250  0.55709  0.17890  1.0000
  S   S148      1.0  0.53659  0.51562  0.16751  1.0000
  S   S149      1.0  0.63462  0.62620  0.19274  1.0000
  S   S150      1.0  0.58219  0.57551  0.21277  1.0000
  H   H622      1.0  0.44740  0.40156  0.22592  1.0000
  C   C374      1.0  0.35697  0.41093  0.22683  1.0000
  S   S151      1.0  0.58964  0.65197  0.20581  1.0000
  H   H623      1.0  0.62448  0.60543  0.09452  1.0000
  H   H624      1.0  0.37296  0.40770  0.22220  1.0000
  C   C375      1.0  0.45302  0.45102  0.18884  1.0000
  C   C376      1.0  0.46229  0.44867  0.16886  1.0000
  C   C377      1.0  0.48778  0.46856  0.16273  1.0000
  C   C378      1.0  0.50442  0.49133  0.17627  1.0000
  C   C379      1.0  0.49505  0.49376  0.19618  1.0000
  C   C380      1.0  0.46960  0.47379  0.20237  1.0000
  H   H625      1.0  0.44982  0.43163  0.15803  1.0000
  H   H626      1.0  0.49463  0.46644  0.14723  1.0000
  H   H627      1.0  0.50744  0.51105  0.20683  1.0000
  H   H628      1.0  0.46280  0.47605  0.21784  1.0000
  H   H629      1.0  0.48091  0.42327  0.19789  1.0000
  N   N40       1.0  0.46353  0.38182  0.20784  1.0000
  C   C381      1.0  0.64782  0.63085  0.06853  1.0000
  C   C382      1.0  0.47391  0.40252  0.19098  1.0000
  Fe  Fe71      1.0  0.33172  0.34246  0.20424  1.0000
  H   H630      1.0  0.33851  0.39380  0.21952  1.0000
  H   H631      1.0  0.62274  0.65651  0.16203  1.0000
  H   H632      1.0  0.63497  0.61662  0.05598  1.0000
  H   H633      1.0  0.43233  0.36548  0.23036  1.0000
  C   C383      1.0  0.36248  0.43804  0.19574  1.0000
  H   H634      1.0  0.34360  0.42168  0.18829  1.0000
  H   H635      1.0  0.61345  0.63457  0.23782  1.0000
  S   S152      1.0  0.64998  0.58861  0.23473  1.0000
  H   H636      1.0  0.49061  0.40336  0.18277  1.0000
  H   H637      1.0  0.37803  0.43485  0.18960  1.0000
  C   C384      1.0  0.65825  0.64232  0.10699  1.0000
  C   C385      1.0  0.48421  0.38854  0.22438  1.0000
  S   S153      1.0  0.38775  0.34923  0.16932  1.0000
  H   H638      1.0  0.44695  0.33863  0.21032  1.0000
  N   N41       1.0  0.36194  0.43755  0.21959  1.0000
  S   S154      1.0  0.65173  0.63560  0.13511  1.0000
  H   H639      1.0  0.45865  0.39814  0.17836  1.0000
  H   H640      1.0  0.47044  0.35423  0.18954  1.0000
  C   C386      1.0  0.44138  0.38153  0.21805  1.0000
  H   H641      1.0  0.43820  0.34858  0.18594  1.0000
  H   H642      1.0  0.60152  0.63726  0.12666  1.0000
  C   C387      1.0  0.60802  0.65821  0.12131  1.0000
  H   H643      1.0  0.57727  0.64483  0.15567  1.0000
  H   H644      1.0  0.39182  0.47989  0.22363  1.0000
  H   H645      1.0  0.36633  0.45787  0.18965  1.0000
  C   C388      1.0  0.34097  0.44166  0.22702  1.0000
  H   H646      1.0  0.35527  0.40917  0.24466  1.0000
  H   H647      1.0  0.47689  0.37339  0.23744  1.0000
  Fe  Fe72      1.0  0.34610  0.33479  0.15853  1.0000
  H   H648      1.0  0.59365  0.65654  0.10885  1.0000
  H   H649      1.0  0.57152  0.62770  0.24838  1.0000
  H   H650      1.0  0.38776  0.45947  0.24670  1.0000
  H   H651      1.0  0.34431  0.46178  0.22222  1.0000
  H   H652      1.0  0.62276  0.61179  0.24773  1.0000
  C   C389      1.0  0.38738  0.45947  0.22873  1.0000
  C   C390      1.0  0.58341  0.66386  0.23041  1.0000
  H   H653      1.0  0.66068  0.55153  0.20991  1.0000
  H   H654      1.0  0.33945  0.44057  0.24491  1.0000
  H   H655      1.0  0.40360  0.45696  0.22326  1.0000
  H   H656      1.0  0.57040  0.66480  0.13784  1.0000
  C   C391      1.0  0.57551  0.64831  0.24900  1.0000
  H   H657      1.0  0.55278  0.65750  0.35877  1.0000
  H   H658      1.0  0.32882  0.59931  0.49549  1.0000
  S   S155      1.0  0.33087  0.61915  0.40265  1.0000
  C   C392      1.0  0.65695  0.64459  0.27800  1.0000
  H   H659      1.0  0.60628  0.62263  0.26499  1.0000
  H   H660      1.0  0.65999  0.62783  0.27275  1.0000
  H   H661      1.0  0.36097  0.66016  0.45633  1.0000
  C   C393      1.0  0.57229  0.65926  0.26840  1.0000
  H   H662      1.0  0.56644  0.64710  0.28269  1.0000
  C   C394      1.0  0.62112  0.62952  0.25232  1.0000
  H   H663      1.0  0.60323  0.33738  0.32939  1.0000
  Fe  Fe73      1.0  0.35065  0.65606  0.38188  1.0000
  H   H664      1.0  0.64333  0.63694  0.29163  1.0000
  H   H665      1.0  0.63344  0.33664  0.30413  1.0000
  S   S156      1.0  0.65658  0.35798  0.34862  1.0000
  N   N42       1.0  0.64648  0.65301  0.25995  1.0000
  H   H666      1.0  0.35909  0.60291  0.64406  1.0000
  H   H667      1.0  0.37104  0.63835  0.64053  1.0000
  H   H668      1.0  0.40700  0.66081  0.61079  1.0000
  H   H669      1.0  0.36623  0.58743  0.67913  1.0000
  H   H670      1.0  0.53283  0.63884  0.74838  1.0000
  C   C395      1.0  0.37497  0.62388  0.64899  1.0000
  H   H671      1.0  0.40071  0.61168  0.67806  1.0000
  H   H672      1.0  0.34711  0.63904  0.67259  1.0000
  H   H673      1.0  0.63563  0.55151  0.74342  1.0000
  N   N43       1.0  0.37643  0.62835  0.67263  1.0000
  H   H674      1.0  0.59191  0.35510  0.67787  1.0000
  H   H675      1.0  0.60733  0.36306  0.65222  1.0000
  H   H676      1.0  0.33471  0.60331  0.67502  1.0000
  C   C396      1.0  0.39757  0.65655  0.67827  1.0000
  H   H677      1.0  0.38298  0.61157  0.70112  1.0000
  H   H678      1.0  0.39353  0.62678  0.64291  1.0000
  H   H679      1.0  0.35129  0.62642  0.69770  1.0000
  S   S157      1.0  0.34375  0.62178  0.59738  1.0000
  C   C397      1.0  0.65595  0.55783  0.74225  1.0000
  C   C398      1.0  0.38183  0.60888  0.68323  1.0000
  S   S158      1.0  0.65113  0.36525  0.62028  1.0000
  H   H680      1.0  0.64926  0.53128  0.71472  1.0000
  H   H681      1.0  0.62821  0.33652  0.66038  1.0000
  Fe  Fe74      1.0  0.34940  0.65975  0.61310  1.0000
  H   H682      1.0  0.51614  0.53255  0.73190  1.0000
  C   C399      1.0  0.35127  0.62405  0.67986  1.0000
  H   H683      1.0  0.66043  0.41685  0.63579  1.0000
  H   H684      1.0  0.39982  0.66053  0.69603  1.0000
  H   H685      1.0  0.47111  0.49703  0.74288  1.0000
  H   H686      1.0  0.57252  0.34715  0.65327  1.0000
  C   C400      1.0  0.55317  0.65211  0.74474  1.0000
  C   C401      1.0  0.58971  0.34765  0.66084  1.0000
  H   H687      1.0  0.44834  0.66179  0.61801  1.0000
  H   H688      1.0  0.41671  0.66094  0.67224  1.0000
  H   H689      1.0  0.48103  0.54305  0.73349  1.0000
  C   C402      1.0  0.59795  0.66359  0.74785  1.0000
  C   C403      1.0  0.52090  0.53911  0.74919  1.0000
  C   C404      1.0  0.64012  0.62863  0.90466  1.0000
  H   H690      1.0  0.64445  0.57816  0.85544  1.0000
  H   H691      1.0  0.52947  0.52774  0.75640  1.0000
  Fe  Fe75      1.0  0.38391  0.37486  0.80894  1.0000
  S   S159      1.0  0.41542  0.41962  0.81717  1.0000
  S   S160      1.0  0.36990  0.35687  0.77522  1.0000
  Fe  Fe76      1.0  0.56827  0.54354  0.79947  1.0000
  S   S161      1.0  0.58691  0.56700  0.76943  1.0000
  S   S162      1.0  0.53579  0.49858  0.79349  1.0000
  Fe  Fe77      1.0  0.60544  0.59388  0.82929  1.0000
  S   S163      1.0  0.62484  0.62054  0.80109  1.0000
  S   S164      1.0  0.61489  0.60583  0.86536  1.0000
  Fe  Fe78      1.0  0.58458  0.60101  0.78543  1.0000
  C   C405      1.0  0.57172  0.64613  0.75259  1.0000
  Fe  Fe79      1.0  0.62560  0.58425  0.78729  1.0000
  H   H692      1.0  0.46033  0.49969  0.76921  1.0000
  S   S165      1.0  0.56483  0.57700  0.81490  1.0000
  S   S166      1.0  0.60734  0.55824  0.81613  1.0000
  C   C406      1.0  0.64105  0.63159  0.88210  1.0000
  H   H693      1.0  0.65931  0.64546  0.93589  1.0000
  H   H694      1.0  0.48574  0.49247  0.76659  1.0000
  S   S167      1.0  0.34304  0.35822  0.82124  1.0000
  H   H695      1.0  0.62350  0.61107  0.91147  1.0000
  C   C407      1.0  0.44912  0.44079  0.81090  1.0000
  C   C408      1.0  0.46162  0.43227  0.79684  1.0000
  C   C409      1.0  0.48817  0.45005  0.79209  1.0000
  C   C410      1.0  0.50275  0.47657  0.80133  1.0000
  C   C411      1.0  0.49030  0.48502  0.81553  1.0000
  C   C412      1.0  0.46371  0.46732  0.82014  1.0000
  H   H696      1.0  0.45080  0.41200  0.78957  1.0000
  H   H697      1.0  0.49747  0.44317  0.78110  1.0000
  H   H698      1.0  0.50115  0.50509  0.82313  1.0000
  H   H699      1.0  0.45437  0.47412  0.83116  1.0000
  C   C413      1.0  0.47778  0.50456  0.75978  1.0000
  H   H700      1.0  0.56485  0.66033  0.83535  1.0000
  H   H701      1.0  0.51903  0.56562  0.78500  1.0000
  S   S168      1.0  0.56126  0.61771  0.76946  1.0000
  H   H702      1.0  0.65909  0.56529  0.82221  1.0000
  N   N44       1.0  0.49759  0.53405  0.76081  1.0000
  S   S169      1.0  0.38499  0.33889  0.82135  1.0000
  H   H703      1.0  0.51461  0.53326  0.79131  1.0000
  H   H704      1.0  0.46930  0.54615  0.75922  1.0000
  C   C414      1.0  0.50501  0.54325  0.78359  1.0000
  H   H705      1.0  0.56061  0.66460  0.79536  1.0000
  H   H706      1.0  0.58638  0.64587  0.80977  1.0000
  H   H707      1.0  0.61245  0.65923  0.75363  1.0000
  Fe  Fe80      1.0  0.32916  0.33826  0.78817  1.0000
  H   H708      1.0  0.48775  0.53839  0.79325  1.0000
  C   C415      1.0  0.66045  0.64813  0.91861  1.0000
  H   H709      1.0  0.53636  0.56115  0.74983  1.0000
  C   C416      1.0  0.48682  0.54939  0.75073  1.0000
  H   H710      1.0  0.50149  0.57172  0.75124  1.0000
  H   H711      1.0  0.66140  0.60971  0.82565  1.0000
  C   C417      1.0  0.56605  0.84764  0.23052  1.0000
  H   H712      1.0  0.34793  0.89670  0.23376  1.0000
  S   S170      1.0  0.35385  0.93506  0.16349  1.0000
  Fe  Fe81      1.0  0.38821  0.96478  0.18501  1.0000
  H   H713      1.0  0.54854  0.92708  0.07073  1.0000
  Fe  Fe82      1.0  0.34548  0.96882  0.15859  1.0000
  S   S171      1.0  0.36343  0.95311  0.21432  1.0000
  Fe  Fe83      1.0  0.61466  0.97309  0.16109  1.0000
  S   S172      1.0  0.62737  0.96995  0.19495  1.0000
  H   H714      1.0  0.60677  0.70412  0.11954  1.0000
  Fe  Fe84      1.0  0.56158  0.96537  0.17704  1.0000
  S   S173      1.0  0.57133  0.96205  0.21171  1.0000
  S   S174      1.0  0.52451  0.96180  0.16152  1.0000
  H   H715      1.0  0.53060  0.92631  0.09392  1.0000
  Fe  Fe85      1.0  0.58568  0.93527  0.19886  1.0000
  S   S175      1.0  0.57048  0.89134  0.20897  1.0000
  S   S176      1.0  0.57395  0.93696  0.16423  1.0000
  C   C418      1.0  0.59424  0.97146  0.08357  1.0000
  H   H716      1.0  0.55363  0.83568  0.21687  1.0000
  H   H717      1.0  0.57941  0.92074  0.09412  1.0000
  S   S177      1.0  0.42770  0.96974  0.19560  1.0000
  H   H718      1.0  0.63976  0.71257  0.12444  1.0000
  C   C419      1.0  0.45420  0.96707  0.18563  1.0000
  H   H719      1.0  0.59279  0.70225  0.21706  1.0000
  C   C420      1.0  0.49593  0.96971  0.19321  1.0000
  C   C421      1.0  0.49761  0.96378  0.17150  1.0000
  C   C422      1.0  0.47729  0.95940  0.15700  1.0000
  C   C423      1.0  0.45576  0.96096  0.16397  1.0000
  C   C424      1.0  0.47446  0.97137  0.20016  1.0000
  H   H720      1.0  0.39278  0.86497  0.20844  1.0000
  N   N45       1.0  0.61072  0.67627  0.13969  1.0000
  H   H721      1.0  0.47824  0.95483  0.14018  1.0000
  C   C425      1.0  0.39725  0.90993  0.22649  1.0000
  C   C426      1.0  0.57762  0.87615  0.23081  1.0000
  H   H722      1.0  0.59709  0.95966  0.07067  1.0000
  H   H723      1.0  0.59418  0.94237  0.11762  1.0000
  H   H724      1.0  0.36252  0.90556  0.19635  1.0000
  H   H725      1.0  0.38154  0.89278  0.18546  1.0000
  Fe  Fe86      1.0  0.35583  0.98644  0.20657  1.0000
  S   S178      1.0  0.64297  0.98965  0.13266  1.0000
  H   H726      1.0  0.35880  0.84241  0.21368  1.0000
  H   H727      1.0  0.33289  0.86096  0.22849  1.0000
  C   C427      1.0  0.65410  0.97846  0.11034  1.0000
  S   S179      1.0  0.33896  0.98293  0.12546  1.0000
  C   C428      1.0  0.62945  0.67716  0.15597  1.0000
  H   H728      1.0  0.41356  0.91498  0.21550  1.0000
  C   C429      1.0  0.37683  0.86158  0.21928  1.0000
  H   H729      1.0  0.51127  0.97316  0.20463  1.0000
  H   H730      1.0  0.44051  0.95762  0.15249  1.0000
  N   N46       1.0  0.37289  0.88487  0.21912  1.0000
  H   H731      1.0  0.55979  0.91827  0.11659  1.0000
  H   H732      1.0  0.55375  0.95707  0.12559  1.0000
  C   C430      1.0  0.65322  0.94327  0.08713  1.0000
  H   H733      1.0  0.62266  0.71818  0.14540  1.0000
  H   H734      1.0  0.63083  0.93545  0.11600  1.0000
  N   N47       1.0  0.57212  0.95352  0.09725  1.0000
  H   H735      1.0  0.38208  0.85827  0.23580  1.0000
  H   H736      1.0  0.65777  0.66917  0.22828  1.0000
  H   H737      1.0  0.39479  0.92781  0.22682  1.0000
  H   H738      1.0  0.34743  0.86995  0.19081  1.0000
  H   H739      1.0  0.64567  0.92191  0.08362  1.0000
  C   C431      1.0  0.58693  0.69005  0.23133  1.0000
  H   H740      1.0  0.58828  0.98080  0.12491  1.0000
  C   C432      1.0  0.57080  0.83450  0.24748  1.0000
  C   C433      1.0  0.64464  0.95093  0.10554  1.0000
  C   C434      1.0  0.54767  0.93983  0.08397  1.0000
  H   H741      1.0  0.56639  0.98567  0.10825  1.0000
  C   C435      1.0  0.36585  0.88836  0.19693  1.0000
  C   C436      1.0  0.57003  0.96998  0.11473  1.0000
  C   C437      1.0  0.35163  0.87963  0.23369  1.0000
  C   C438      1.0  0.62040  0.70403  0.13193  1.0000
  C   C439      1.0  0.57650  0.93277  0.10676  1.0000
  H   H742      1.0  0.58652  0.67865  0.16372  1.0000
  H   H743      1.0  0.63178  0.69029  0.17024  1.0000
  H   H744      1.0  0.64900  0.68480  0.14909  1.0000
  H   H745      1.0  0.54377  0.95489  0.07650  1.0000
  H   H746      1.0  0.47363  0.97610  0.21696  1.0000
  H   H747      1.0  0.60305  0.91330  0.24889  1.0000
  H   H748      1.0  0.61285  0.98267  0.09325  1.0000
  C   C440      1.0  0.59397  0.89138  0.24841  1.0000
  Fe  Fe87      1.0  0.61234  0.99693  0.20540  1.0000
  H   H749      1.0  0.56241  0.81270  0.24661  1.0000
  H   H750      1.0  0.40348  0.90797  0.24304  1.0000
  H   H751      1.0  0.59135  0.98699  0.07570  1.0000
  Fe  Fe88      1.0  0.32903  0.92554  0.19295  1.0000
  C   C441      1.0  0.58509  0.66573  0.14958  1.0000
  H   H752      1.0  0.62697  0.66584  0.11332  1.0000
  Fe  Fe89      1.0  0.57007  0.76517  0.34395  1.0000
  S   S180      1.0  0.53991  0.72330  0.33112  1.0000
  S   S181      1.0  0.57958  0.77067  0.38023  1.0000
  Fe  Fe90      1.0  0.57343  0.79067  0.29984  1.0000
  S   S182      1.0  0.54427  0.75009  0.28385  1.0000
  S   S183      1.0  0.59306  0.83425  0.28746  1.0000
  Fe  Fe91      1.0  0.52111  0.74297  0.31403  1.0000
  S   S184      1.0  0.47747  0.72691  0.31045  1.0000
  Fe  Fe92      1.0  0.56545  0.73326  0.30222  1.0000
  S   S185      1.0  0.57315  0.69882  0.29464  1.0000
  S   S186      1.0  0.54913  0.78413  0.32891  1.0000
  S   S187      1.0  0.59661  0.77448  0.31614  1.0000
  C   C442      1.0  0.56558  0.67580  0.34927  1.0000
  S   S188      1.0  0.39497  0.68288  0.38586  1.0000
  C   C443      1.0  0.59855  0.87820  0.26546  1.0000
  H   H753      1.0  0.61123  0.89022  0.27898  1.0000
  H   H754      1.0  0.61803  0.70595  0.38424  1.0000
  H   H755      1.0  0.46711  0.80064  0.28487  1.0000
  C   C444      1.0  0.57599  0.68553  0.26935  1.0000
  H   H756      1.0  0.46643  0.76905  0.28537  1.0000
  C   C445      1.0  0.45483  0.71390  0.33164  1.0000
  C   C446      1.0  0.42797  0.70105  0.32652  1.0000
  C   C447      1.0  0.64278  0.67531  0.26726  1.0000
  C   C448      1.0  0.41749  0.69406  0.36457  1.0000
  C   C449      1.0  0.44435  0.70701  0.36969  1.0000
  C   C450      1.0  0.46293  0.71673  0.35334  1.0000
  H   H757      1.0  0.40755  0.71903  0.42448  1.0000
  H   H758      1.0  0.42148  0.69876  0.30980  1.0000
  H   H759      1.0  0.53909  0.84403  0.27946  1.0000
  H   H760      1.0  0.48350  0.72664  0.35755  1.0000
  C   C451      1.0  0.60931  0.78093  0.39455  1.0000
  C   C452      1.0  0.63198  0.78685  0.38402  1.0000
  H   H761      1.0  0.50626  0.76842  0.28129  1.0000
  H   H762      1.0  0.51607  0.83128  0.25717  1.0000
  C   C453      1.0  0.63265  0.78903  0.42938  1.0000
  C   C454      1.0  0.60983  0.78221  0.41726  1.0000
  H   H763      1.0  0.63203  0.78648  0.36657  1.0000
  H   H764      1.0  0.34084  0.69775  0.44194  1.0000
  H   H765      1.0  0.59238  0.77768  0.42556  1.0000
  N   N48       1.0  0.37824  0.70237  0.44861  1.0000
  C   C455      1.0  0.39042  0.71989  0.42992  1.0000
  H   H766      1.0  0.61238  0.68372  0.36141  1.0000
  H   H767      1.0  0.61087  0.71667  0.33614  1.0000
  C   C456      1.0  0.60232  0.72201  0.34970  1.0000
  C   C457      1.0  0.36917  0.67385  0.44241  1.0000
  C   C458      1.0  0.50841  0.80726  0.30807  1.0000
  H   H768      1.0  0.53729  0.79949  0.28060  1.0000
  H   H769      1.0  0.45087  0.70950  0.38641  1.0000
  H   H770      1.0  0.59085  0.67144  0.38379  1.0000
  C   C459      1.0  0.40938  0.69102  0.34285  1.0000
  H   H771      1.0  0.41456  0.70974  0.46219  1.0000
  H   H772      1.0  0.59068  0.72996  0.34238  1.0000
  H   H773      1.0  0.39712  0.74154  0.43378  1.0000
  H   H774      1.0  0.52951  0.81884  0.31295  1.0000
  H   H775      1.0  0.38518  0.67176  0.43582  1.0000
  H   H776      1.0  0.58846  0.72316  0.39040  1.0000
  C   C460      1.0  0.39754  0.71131  0.46672  1.0000
  N   N49       1.0  0.58599  0.69827  0.36311  1.0000
  H   H777      1.0  0.56122  0.68865  0.39039  1.0000
  C   C461      1.0  0.58692  0.84968  0.26520  1.0000
  C   C462      1.0  0.57361  0.70597  0.37985  1.0000
  H   H778      1.0  0.56095  0.71278  0.37254  1.0000
  H   H779      1.0  0.37652  0.71318  0.41578  1.0000
  H   H780      1.0  0.61857  0.73898  0.35940  1.0000
  C   C463      1.0  0.60254  0.68941  0.37359  1.0000
  C   C464      1.0  0.65466  0.79320  0.39613  1.0000
  H   H781      1.0  0.63268  0.78974  0.44684  1.0000
  H   H782      1.0  0.38881  0.69853  0.48110  1.0000
  C   C465      1.0  0.51638  0.78964  0.27553  1.0000
  C   C466      1.0  0.47662  0.78986  0.27853  1.0000
  H   H783      1.0  0.38882  0.68121  0.33865  1.0000
  C   C467      1.0  0.35574  0.70426  0.45532  1.0000
  H   H784      1.0  0.36176  0.72541  0.46037  1.0000
  H   H785      1.0  0.34570  0.69075  0.46906  1.0000
  H   H786      1.0  0.49938  0.81804  0.31536  1.0000
  H   H787      1.0  0.40499  0.73285  0.47173  1.0000
  H   H788      1.0  0.49942  0.78683  0.31545  1.0000
  N   N50       1.0  0.50479  0.80480  0.28431  1.0000
  C   C468      1.0  0.58310  0.70077  0.25060  1.0000
  H   H789      1.0  0.55288  0.68193  0.34102  1.0000
  C   C469      1.0  0.51782  0.83229  0.27514  1.0000
  H   H790      1.0  0.50945  0.84432  0.28119  1.0000
  H   H791      1.0  0.51517  0.78844  0.25757  1.0000
  H   H792      1.0  0.57422  0.66972  0.33625  1.0000
  H   H793      1.0  0.63477  0.68189  0.25389  1.0000
  H   H794      1.0  0.47321  0.78736  0.26071  1.0000
  H   H795      1.0  0.62873  0.66884  0.28058  1.0000
  H   H796      1.0  0.35618  0.87697  0.25063  1.0000
  H   H797      1.0  0.58611  0.72102  0.25102  1.0000
  C   C470      1.0  0.65512  0.79428  0.41886  1.0000
  H   H798      1.0  0.35349  0.66610  0.42973  1.0000
  H   H799      1.0  0.66149  0.69347  0.27313  1.0000
  Fe  Fe93      1.0  0.58531  0.77427  0.65405  1.0000
  S   S189      1.0  0.56714  0.72935  0.65846  1.0000
  S   S190      1.0  0.60956  0.80024  0.62597  1.0000
  Fe  Fe94      1.0  0.55738  0.77998  0.69371  1.0000
  S   S191      1.0  0.53675  0.73488  0.70042  1.0000
  S   S192      1.0  0.54712  0.80984  0.70845  1.0000
  Fe  Fe95      1.0  0.57570  0.73928  0.69411  1.0000
  S   S193      1.0  0.59796  0.72345  0.71335  1.0000
  Fe  Fe96      1.0  0.52970  0.72845  0.66429  1.0000
  S   S194      1.0  0.49373  0.69622  0.64472  1.0000
  S   S195      1.0  0.59670  0.78492  0.68934  1.0000
  S   S196      1.0  0.54748  0.77273  0.65809  1.0000
  C   C471      1.0  0.64628  0.78438  0.56699  1.0000
  H   H800      1.0  0.63050  0.74402  0.57927  1.0000
  N   N51       1.0  0.63222  0.94621  0.73242  1.0000
  H   H801      1.0  0.62358  0.90598  0.73965  1.0000
  C   C472      1.0  0.58177  0.83598  0.74351  1.0000
  C   C473      1.0  0.56138  0.83368  0.73051  1.0000
  N   N52       1.0  0.53864  0.74228  0.59039  1.0000
  H   H802      1.0  0.52277  0.76812  0.59338  1.0000
  H   H803      1.0  0.32905  0.84707  0.71030  1.0000
  H   H804      1.0  0.56338  0.74690  0.56404  1.0000
  H   H805      1.0  0.63178  0.95752  0.69959  1.0000
  C   C474      1.0  0.46495  0.69694  0.63961  1.0000
  S   S197      1.0  0.65929  0.77728  0.54398  1.0000
  C   C475      1.0  0.64889  0.80973  0.57065  1.0000
  C   C476      1.0  0.41757  0.69541  0.63169  1.0000
  C   C477      1.0  0.43736  0.71571  0.64533  1.0000
  C   C478      1.0  0.46095  0.71651  0.64927  1.0000
  H   H806      1.0  0.50509  0.72754  0.56903  1.0000
  H   H807      1.0  0.62588  0.70052  0.73222  1.0000
  H   H808      1.0  0.50011  0.70695  0.59210  1.0000
  H   H809      1.0  0.47587  0.73207  0.66001  1.0000
  C   C479      1.0  0.62413  0.79358  0.60384  1.0000
  C   C480      1.0  0.55749  0.75902  0.57391  1.0000
  H   H810      1.0  0.53583  0.84903  0.72528  1.0000
  C   C481      1.0  0.56071  0.67537  0.73238  1.0000
  C   C482      1.0  0.63261  0.76370  0.58191  1.0000
  C   C483      1.0  0.62173  0.76828  0.60029  1.0000
  C   C484      1.0  0.51459  0.71974  0.57985  1.0000
  H   H811      1.0  0.63975  0.83385  0.59146  1.0000
  H   H812      1.0  0.61886  0.91062  0.71180  1.0000
  H   H813      1.0  0.61159  0.75228  0.61172  1.0000
  C   C485      1.0  0.53212  0.75949  0.60343  1.0000
  C   C486      1.0  0.63777  0.81421  0.58890  1.0000
  S   S198      1.0  0.38741  0.69399  0.62877  1.0000
  C   C487      1.0  0.60551  0.68700  0.73568  1.0000
  C   C488      1.0  0.58699  0.69306  0.72785  1.0000
  H   H814      1.0  0.59224  0.92929  0.72174  1.0000
  H   H815      1.0  0.43432  0.73073  0.65314  1.0000
  H   H816      1.0  0.54928  0.76786  0.56279  1.0000
  H   H817      1.0  0.56788  0.74730  0.61355  1.0000
  H   H818      1.0  0.57568  0.77631  0.58158  1.0000
  C   C489      1.0  0.63153  0.92087  0.72643  1.0000
  H   H819      1.0  0.51836  0.74762  0.61637  1.0000
  C   C490      1.0  0.55042  0.73087  0.60457  1.0000
  H   H820      1.0  0.53649  0.71738  0.61676  1.0000
  H   H821      1.0  0.51876  0.70618  0.57004  1.0000
  C   C491      1.0  0.60541  0.93988  0.73602  1.0000
  H   H822      1.0  0.58937  0.82295  0.74017  1.0000
  H   H823      1.0  0.55669  0.71871  0.59526  1.0000
  H   H824      1.0  0.54996  0.77695  0.61136  1.0000
  C   C492      1.0  0.55171  0.85077  0.73516  1.0000
  H   H825      1.0  0.64440  0.98522  0.71915  1.0000
  H   H826      1.0  0.54628  0.67983  0.72654  1.0000
  C   C493      1.0  0.42185  0.67625  0.62161  1.0000
  H   H827      1.0  0.39363  0.67172  0.67100  1.0000
  C   C494      1.0  0.44535  0.67692  0.62567  1.0000
  H   H828      1.0  0.60504  0.95869  0.73953  1.0000
  C   C495      1.0  0.64358  0.96587  0.71488  1.0000
  H   H829      1.0  0.65135  0.92485  0.72321  1.0000
  H   H830      1.0  0.33319  0.80626  0.70617  1.0000
  H   H831      1.0  0.65930  0.82584  0.55935  1.0000
  H   H832      1.0  0.56128  0.96854  0.91641  1.0000
  S   S199      1.0  0.35992  0.93440  0.82613  1.0000
  H   H833      1.0  0.46579  0.92500  0.83212  1.0000
  Fe  Fe97      1.0  0.39235  0.97011  0.80929  1.0000
  S   S200      1.0  0.63046  0.98981  0.86933  1.0000
  Fe  Fe98      1.0  0.34760  0.96255  0.83984  1.0000
  S   S201      1.0  0.36709  0.96317  0.77933  1.0000
  Fe  Fe99      1.0  0.56086  0.95885  0.81093  1.0000
  S   S202      1.0  0.57438  0.95157  0.77914  1.0000
  S   S203      1.0  0.51939  0.94810  0.82047  1.0000
  Fe  Fe100     1.0  0.61343  0.97590  0.83446  1.0000
  S   S204      1.0  0.63111  0.97106  0.80421  1.0000
  H   H834      1.0  0.61437  0.73056  0.81922  1.0000
  Fe  Fe101     1.0  0.59255  0.93204  0.79767  1.0000
  S   S205      1.0  0.59715  0.89644  0.78735  1.0000
  S   S206      1.0  0.57608  0.93564  0.82899  1.0000
  H   H835      1.0  0.57378  0.95191  0.87360  1.0000
  C   C496      1.0  0.60360  0.66705  0.81021  1.0000
  C   C497      1.0  0.61946  0.71483  0.81595  1.0000
  C   C498      1.0  0.45872  0.97440  0.80882  1.0000
  C   C499      1.0  0.58280  0.68104  0.83576  1.0000
  H   H836      1.0  0.54267  0.94036  0.86030  1.0000
  C   C500      1.0  0.49646  0.95871  0.81527  1.0000
  C   C501      1.0  0.47109  0.94321  0.82334  1.0000
  C   C502      1.0  0.45236  0.95085  0.82007  1.0000
  H   H837      1.0  0.52892  0.98706  0.89086  1.0000
  C   C503      1.0  0.65547  0.99403  0.90863  1.0000
  Fe  Fe102     1.0  0.35602  0.99068  0.79603  1.0000
  H   H838      1.0  0.57694  0.69593  0.83998  1.0000
  H   H839      1.0  0.43304  0.93858  0.82639  1.0000
  C   C504      1.0  0.50280  0.98220  0.80395  1.0000
  H   H840      1.0  0.55426  0.88260  0.75604  1.0000
  C   C505      1.0  0.58245  0.87207  0.76564  1.0000
  H   H841      1.0  0.62989  0.71989  0.80043  1.0000
  H   H842      1.0  0.61288  0.67045  0.79425  1.0000
  C   C506      1.0  0.59214  0.85499  0.76101  1.0000
  H   H843      1.0  0.51703  0.96088  0.87009  1.0000
  H   H844      1.0  0.54423  0.93224  0.88792  1.0000
  S   S207      1.0  0.43619  0.98576  0.80459  1.0000
  N   N53       1.0  0.55536  0.97385  0.88293  1.0000
  H   H845      1.0  0.51804  0.95252  0.89780  1.0000
  H   H846      1.0  0.58764  0.69143  0.78171  1.0000
  Fe  Fe103     1.0  0.61264  0.99099  0.78648  1.0000
  C   C507      1.0  0.55393  0.94847  0.87588  1.0000
  H   H847      1.0  0.60782  0.85649  0.77101  1.0000
  C   C508      1.0  0.57792  0.68562  0.79753  1.0000
  H   H848      1.0  0.64027  0.94387  0.76601  1.0000
  C   C509      1.0  0.64850  0.98144  0.88787  1.0000
  S   S208      1.0  0.33554  0.95716  0.87563  1.0000
  H   H849      1.0  0.55776  0.98779  0.85058  1.0000
  C   C510      1.0  0.56215  0.86987  0.75258  1.0000
  C   C511      1.0  0.57047  0.98382  0.90360  1.0000
  H   H850      1.0  0.59071  0.98802  0.90181  1.0000
  H   H851      1.0  0.64898  0.97726  0.75756  1.0000
  C   C512      1.0  0.56846  0.99473  0.86646  1.0000
  Fe  Fe104     1.0  0.33396  0.92916  0.79728  1.0000
  C   C513      1.0  0.52866  0.96836  0.88562  1.0000
  H   H852      1.0  0.63346  0.71681  0.82894  1.0000
  C   C514      1.0  0.48414  0.98999  0.80086  1.0000
  C   C515      1.0  0.65599  0.96277  0.88264  1.0000
  C   C516      1.0  0.64829  0.95826  0.75244  1.0000
  H   H853      1.0  0.65085  0.95282  0.86684  1.0000
  H   H854      1.0  0.52211  0.99445  0.79763  1.0000
  N   N54       1.0  0.59594  0.68714  0.81487  1.0000
  H   H855      1.0  0.57075  0.69960  0.80095  1.0000
  H   H856      1.0  0.61763  0.66798  0.82272  1.0000
  H   H857      1.0  0.59687  0.92644  0.75001  1.0000
  H   H858      1.0  0.59575  0.68163  0.84916  1.0000
  S   S209      1.0  0.38223  0.99890  0.82530  1.0000
  Fe  Fe105     1.0  0.94733  0.31684  0.19736  1.0000
  S   S210      1.0  0.91128  0.27788  0.20902  1.0000
  H   H859      1.0  0.89921  0.10544  0.01652  1.0000
  H   H860      1.0  0.86357  0.29157  0.20850  1.0000
  H   H861      1.0  0.88766  0.31398  0.17647  1.0000
  S   S211      1.0  0.97916  0.18718  0.01503  1.0000
  H   H862      1.0  0.88482  0.20206  0.04327  1.0000
  H   H863      1.0  0.89107  0.17031  0.00548  1.0000
  C   C517      1.0  0.67702  0.04329  0.24604  1.0000
  S   S212      1.0  0.96804  0.23106  0.05616  1.0000
  Fe  Fe106     1.0  0.97751  0.22518  0.02124  1.0000
  H   H864      1.0  0.92622  0.17402  0.02803  1.0000
  H   H865      1.0  0.86858  0.13737  0.01551  1.0000
  H   H866      1.0  0.72482  0.07695  0.19626  1.0000
  H   H867      1.0  0.86458  0.22826  0.21970  1.0000
  C   C518      1.0  0.97373  0.25881  0.07369  1.0000
  H   H868      1.0  0.72869  0.05072  0.15398  1.0000
  C   C519      1.0  0.86789  0.24331  0.23204  1.0000
  C   C520      1.0  0.72051  0.05564  0.19599  1.0000
  H   H869      1.0  0.71324  0.00996  0.17625  1.0000
  C   C521      1.0  0.96741  0.27424  0.10910  1.0000
  C   C522      1.0  0.90065  0.19750  0.04404  1.0000
  H   H870      1.0  0.88113  0.15803  0.07333  1.0000
  C   C523      1.0  0.69540  0.01059  0.17945  1.0000
  H   H871      1.0  0.91075  0.20467  0.06017  1.0000
  C   C524      1.0  0.99176  0.30710  0.08205  1.0000
  C   C525      1.0  0.89011  0.26971  0.23120  1.0000
  H   H872      1.0  0.85893  0.06390  0.02836  1.0000
  C   C526      1.0  0.85961  0.30832  0.21092  1.0000
  C   C527      1.0  0.85857  0.07300  0.01329  1.0000
  C   C528      1.0  0.87724  0.15959  0.01865  1.0000
  H   H873      1.0  0.69576  0.03760  0.14448  1.0000
  H   H874      1.0  0.71371  0.04748  0.21234  1.0000
  C   C529      1.0  0.98787  0.28601  0.06753  1.0000
  C   C530      1.0  0.87170  0.15220  0.05691  1.0000
  C   C531      1.0  0.91235  0.16337  0.04109  1.0000
  H   H875      1.0  0.68004  0.01944  0.09990  1.0000
  N   N55       1.0  0.89048  0.16818  0.04017  1.0000
  N   N56       1.0  0.70070  0.03873  0.17901  1.0000
  S   S213      1.0  0.98237  0.31621  0.18518  1.0000
  C   C532      1.0  0.67618  0.08447  0.24165  1.0000
  C   C533      1.0  0.83532  0.06048  0.00047  1.0000
  H   H876      1.0  0.90535  0.14136  0.03915  1.0000
  C   C534      1.0  0.88384  0.33073  0.17938  1.0000
  H   H877      1.0  0.68813  0.00130  0.19539  1.0000
  H   H878      1.0  0.66819  0.02915  0.19873  1.0000
  H   H879      1.0  0.86117  0.16373  0.01705  1.0000
  H   H880      1.0  0.91524  0.21014  0.03190  1.0000
  H   H881      1.0  0.95930  0.26939  0.12499  1.0000
  H   H882      1.0  0.67967  0.05934  0.18356  1.0000
  C   C535      1.0  0.71033  0.05015  0.15759  1.0000
  H   H883      1.0  0.71424  0.07124  0.15656  1.0000
  H   H884      1.0  0.69554  0.00579  0.06795  1.0000
  H   H885      1.0  0.84064  0.30186  0.20255  1.0000
  H   H886      1.0  0.85494  0.15537  0.05672  1.0000
  C   C536      1.0  0.98152  0.30145  0.10292  1.0000
  C   C537      1.0  0.96360  0.25316  0.09460  1.0000
  H   H887      1.0  0.95265  0.23226  0.09964  1.0000
  H   H888      1.0  0.86593  0.32559  0.16980  1.0000
  H   H889      1.0  0.86362  0.12995  0.05433  1.0000
  H   H890      1.0  0.92369  0.17095  0.05668  1.0000
  C   C538      1.0  0.67641  0.03844  0.18303  1.0000
  H   H891      1.0  0.73918  0.05639  0.19353  1.0000
  H   H892      1.0  0.66683  0.09473  0.23514  1.0000
  S   S214      1.0  0.80687  0.03036  0.01001  1.0000
  S   S215      1.0  0.98777  0.32926  0.12062  1.0000
  C   C539      1.0  0.88150  0.09682  0.00670  1.0000
  H   H893      1.0  0.85728  0.30991  0.22856  1.0000
  H   H894      1.0  0.91128  0.32683  0.21161  1.0000
  H   H895      1.0  0.66823  0.02157  0.24343  1.0000
  C   C540      1.0  0.84979  0.23614  0.24863  1.0000
  H   H896      1.0  0.83278  0.21579  0.24891  1.0000
  C   C541      1.0  0.89417  0.28882  0.24743  1.0000
  H   H897      1.0  0.91156  0.30889  0.24753  1.0000
  C   C542      1.0  0.66451  0.05624  0.23787  1.0000
  C   C543      1.0  0.75424  0.13425  0.47737  1.0000
  S   S216      1.0  0.70012  0.27254  0.38236  1.0000
  Fe  Fe107     1.0  0.74403  0.18482  0.31704  1.0000
  S   S217      1.0  0.74224  0.14724  0.32912  1.0000
  S   S218      1.0  0.70933  0.19064  0.31809  1.0000
  Fe  Fe108     1.0  0.79828  0.20724  0.29759  1.0000
  S   S219      1.0  0.80031  0.17100  0.30826  1.0000
  S   S220      1.0  0.83014  0.24838  0.28468  1.0000
  Fe  Fe109     1.0  0.75784  0.14574  0.29667  1.0000
  S   S221      1.0  0.74043  0.10407  0.27950  1.0000
  Fe  Fe110     1.0  0.78430  0.17478  0.33988  1.0000
  S   S222      1.0  0.80158  0.17913  0.37408  1.0000
  S   S223      1.0  0.75711  0.18174  0.28386  1.0000
  S   S224      1.0  0.78471  0.21256  0.32998  1.0000
  Fe  Fe111     1.0  0.83289  0.10153  0.46664  1.0000
  S   S225      1.0  0.86288  0.09031  0.47429  1.0000
  S   S226      1.0  0.81715  0.09741  0.43210  1.0000
  H   H898      1.0  0.76672  0.30999  0.31707  1.0000
  H   H899      1.0  0.78162  0.26523  0.34862  1.0000
  N   N57       1.0  0.76597  0.11973  0.46752  1.0000
  H   H900      1.0  0.79991  0.30175  0.35115  1.0000
  C   C544      1.0  0.75985  0.11577  0.44402  1.0000
  H   H901      1.0  0.74287  0.25980  0.31362  1.0000
  H   H902      1.0  0.69382  0.10009  0.30649  1.0000
  H   H903      1.0  0.93996  0.19370  0.42930  1.0000
  H   H904      1.0  0.80386  0.12538  0.46422  1.0000
  H   H905      1.0  0.76215  0.26179  0.29105  1.0000
  H   H906      1.0  0.81004  0.28741  0.29457  1.0000
  H   H907      1.0  0.76498  0.28364  0.34853  1.0000
  C   C545      1.0  0.78475  0.31048  0.31228  1.0000
  H   H908      1.0  0.95974  0.17887  0.43298  1.0000
  C   C546      1.0  0.80680  0.15636  0.38933  1.0000
  C   C547      1.0  0.82092  0.16568  0.40916  1.0000
  C   C548      1.0  0.82497  0.14820  0.42218  1.0000
  C   C549      1.0  0.81449  0.12099  0.41567  1.0000
  C   C550      1.0  0.80057  0.11173  0.39578  1.0000
  C   C551      1.0  0.79678  0.12929  0.38265  1.0000
  H   H909      1.0  0.82891  0.18665  0.41438  1.0000
  H   H910      1.0  0.83618  0.15584  0.43718  1.0000
  H   H911      1.0  0.79249  0.09075  0.39052  1.0000
  H   H912      1.0  0.78594  0.12184  0.36744  1.0000
  C   C552      1.0  0.70630  0.21248  0.33667  1.0000
  C   C553      1.0  0.68644  0.21818  0.33318  1.0000
  C   C554      1.0  0.68398  0.23619  0.34718  1.0000
  C   C555      1.0  0.70136  0.24862  0.36485  1.0000
  C   C556      1.0  0.72097  0.24259  0.36847  1.0000
  C   C557      1.0  0.72348  0.22464  0.35446  1.0000
  H   H913      1.0  0.76046  0.09526  0.49517  1.0000
  H   H914      1.0  0.73434  0.25193  0.38222  1.0000
  H   H915      1.0  0.73862  0.22014  0.35750  1.0000
  H   H916      1.0  0.82626  0.30555  0.31937  1.0000
  C   C558      1.0  0.76145  0.26145  0.30898  1.0000
  H   H917      1.0  0.79992  0.13956  0.48878  1.0000
  N   N58       1.0  0.91832  0.14999  0.43123  1.0000
  C   C559      1.0  0.92085  0.12874  0.44214  1.0000
  C   C560      1.0  0.91727  0.14558  0.40758  1.0000
  C   C561      1.0  0.94105  0.17713  0.43733  1.0000
  C   C562      1.0  0.89410  0.14847  0.43787  1.0000
  H   H918      1.0  0.92120  0.13115  0.46001  1.0000
  H   H919      1.0  0.93924  0.12969  0.43798  1.0000
  H   H920      1.0  0.90424  0.10794  0.43771  1.0000
  H   H921      1.0  0.90020  0.12532  0.40248  1.0000
  H   H922      1.0  0.91541  0.16129  0.39883  1.0000
  H   H923      1.0  0.93519  0.14645  0.40201  1.0000
  C   C563      1.0  0.79453  0.13600  0.47122  1.0000
  H   H924      1.0  0.80333  0.15625  0.46366  1.0000
  H   H925      1.0  0.94220  0.18119  0.45507  1.0000
  H   H926      1.0  0.89137  0.16401  0.42978  1.0000
  H   H927      1.0  0.89443  0.15205  0.45560  1.0000
  H   H928      1.0  0.87653  0.12814  0.43376  1.0000
  S   S227      1.0  0.85205  0.13884  0.48819  1.0000
  C   C564      1.0  0.75546  0.09294  0.47752  1.0000
  H   H929      1.0  0.66820  0.14326  0.29027  1.0000
  H   H930      1.0  0.76365  0.08134  0.47010  1.0000
  H   H931      1.0  0.73386  0.08023  0.47548  1.0000
  H   H932      1.0  0.76033  0.24239  0.31398  1.0000
  H   H933      1.0  0.68844  0.13235  0.33108  1.0000
  H   H934      1.0  0.73264  0.12253  0.47500  1.0000
  Fe  Fe112     1.0  0.88080  0.12632  0.49757  1.0000
  H   H935      1.0  0.70972  0.04801  0.26510  1.0000
  Fe  Fe113     1.0  0.66847  0.28325  0.38339  1.0000
  C   C565      1.0  0.78267  0.28404  0.34290  1.0000
  H   H936      1.0  0.87899  0.29690  0.27603  1.0000
  C   C566      1.0  0.71177  0.08642  0.26270  1.0000
  H   H937      1.0  0.80917  0.26916  0.31789  1.0000
  C   C567      1.0  0.85347  0.25547  0.26448  1.0000
  S   S228      1.0  0.80566  0.07488  0.49210  1.0000
  S   S229      1.0  0.67964  0.32490  0.39687  1.0000
  N   N59       1.0  0.78436  0.28578  0.31915  1.0000
  C   C568      1.0  0.80850  0.28714  0.31246  1.0000
  H   H938      1.0  0.66975  0.11924  0.27254  1.0000
  C   C569      1.0  0.98121  0.14485  0.49852  1.0000
  H   H939      1.0  0.76778  0.10410  0.43629  1.0000
  C   C570      1.0  0.87576  0.28186  0.26372  1.0000
  H   H940      1.0  0.73845  0.10428  0.44054  1.0000
  C   C571      1.0  0.70051  0.05833  0.25840  1.0000
  H   H941      1.0  0.66879  0.24064  0.34423  1.0000
  H   H942      1.0  0.76184  0.15456  0.47014  1.0000
  H   H943      1.0  0.69610  0.13980  0.29153  1.0000
  H   H944      1.0  0.66416  0.07326  0.31741  1.0000
  H   H945      1.0  0.76850  0.13559  0.43572  1.0000
  C   C572      1.0  0.67447  0.12817  0.28921  1.0000
  H   H946      1.0  0.67303  0.20884  0.31948  1.0000
  H   H947      1.0  0.75872  0.13762  0.49508  1.0000
  H   H948      1.0  0.80167  0.32925  0.31978  1.0000
  H   H949      1.0  0.77731  0.00604  0.49331  1.0000
  H   H950      1.0  0.70865  0.12125  0.25647  1.0000
  H   H951      1.0  0.78606  0.31247  0.29444  1.0000
  C   C573      1.0  0.95630  0.14179  0.49866  1.0000
  C   C574      1.0  0.66714  0.12001  0.32722  1.0000
  H   H952      1.0  0.97516  0.20829  0.49415  1.0000
  S   S230      1.0  0.92307  0.16228  0.49736  1.0000
  C   C575      1.0  0.69978  0.09953  0.25383  1.0000
  C   C576      1.0  0.97669  0.19043  0.49525  1.0000
  C   C577      1.0  0.95391  0.16464  0.49721  1.0000
  C   C578      1.0  0.67214  0.08859  0.30455  1.0000
  H   H953      1.0  0.66708  0.07718  0.28880  1.0000
  Fe  Fe114     1.0  0.75174  0.14693  0.70046  1.0000
  S   S231      1.0  0.75774  0.18897  0.69847  1.0000
  S   S232      1.0  0.73423  0.12466  0.73181  1.0000
  Fe  Fe115     1.0  0.77845  0.15277  0.65672  1.0000
  S   S233      1.0  0.78460  0.19430  0.65176  1.0000
  S   S234      1.0  0.79842  0.13590  0.63601  1.0000
  Fe  Fe116     1.0  0.79795  0.20255  0.68691  1.0000
  S   S235      1.0  0.83700  0.24227  0.69354  1.0000
  Fe  Fe117     1.0  0.74395  0.17708  0.66387  1.0000
  S   S236      1.0  0.70926  0.17860  0.64985  1.0000
  S   S237      1.0  0.79314  0.16163  0.69150  1.0000
  S   S238      1.0  0.73655  0.13436  0.66621  1.0000
  S   S239      1.0  0.69866  0.28129  0.63052  1.0000
  C   C579      1.0  0.68077  0.12339  0.69300  1.0000
  Fe  Fe118     1.0  0.82706  0.11164  0.51450  1.0000
  S   S240      1.0  0.85705  0.10193  0.52570  1.0000
  S   S241      1.0  0.80120  0.12222  0.53358  1.0000
  H   H954      1.0  0.69268  0.07957  0.70495  1.0000
  H   H955      1.0  0.91634  0.30399  0.73719  1.0000
  H   H956      1.0  0.83458  0.04810  0.55437  1.0000
  C   C580      1.0  0.68826  0.07512  0.72176  1.0000
  C   C581      1.0  0.89737  0.28545  0.73713  1.0000
  C   C582      1.0  0.85656  0.25239  0.71776  1.0000
  C   C583      1.0  0.88129  0.27654  0.71820  1.0000
  H   H957      1.0  0.84371  0.23727  0.64566  1.0000
  H   H958      1.0  0.88805  0.28844  0.70381  1.0000
  C   C584      1.0  0.70678  0.20750  0.64472  1.0000
  C   C585      1.0  0.72774  0.23413  0.64846  1.0000
  C   C586      1.0  0.72483  0.25642  0.64409  1.0000
  C   C587      1.0  0.70096  0.25239  0.63606  1.0000
  C   C588      1.0  0.67999  0.22576  0.63232  1.0000
  C   C589      1.0  0.68293  0.20346  0.63661  1.0000
  H   H959      1.0  0.74618  0.23757  0.65471  1.0000
  H   H960      1.0  0.74117  0.27694  0.64705  1.0000
  H   H961      1.0  0.68682  0.13372  0.67730  1.0000
  C   C590      1.0  0.79904  0.13265  0.60745  1.0000
  C   C591      1.0  0.78360  0.13762  0.59337  1.0000
  C   C592      1.0  0.78460  0.13444  0.57084  1.0000
  C   C593      1.0  0.80124  0.12661  0.56208  1.0000
  C   C594      1.0  0.81701  0.12208  0.57615  1.0000
  C   C595      1.0  0.81576  0.12491  0.59868  1.0000
  H   H962      1.0  0.77064  0.14357  0.59984  1.0000
  H   H963      1.0  0.77231  0.13802  0.56015  1.0000
  H   H964      1.0  0.83017  0.11644  0.56967  1.0000
  H   H965      1.0  0.82792  0.12119  0.60942  1.0000
  C   C596      1.0  0.69202  0.16468  0.71272  1.0000
  N   N60       1.0  0.86466  0.21655  0.64198  1.0000
  C   C597      1.0  0.89195  0.22346  0.64056  1.0000
  C   C598      1.0  0.85281  0.19956  0.66095  1.0000
  C   C599      1.0  0.84973  0.20129  0.62219  1.0000
  C   C600      1.0  0.86407  0.24183  0.64431  1.0000
  H   H966      1.0  0.90151  0.23624  0.62638  1.0000
  H   H967      1.0  0.89299  0.20475  0.63889  1.0000
  H   H968      1.0  0.90367  0.23496  0.65530  1.0000
  H   H969      1.0  0.83233  0.19420  0.66243  1.0000
  H   H970      1.0  0.85240  0.18001  0.65970  1.0000
  H   H971      1.0  0.86331  0.21039  0.67629  1.0000
  H   H972      1.0  0.82889  0.19533  0.62294  1.0000
  H   H973      1.0  0.84978  0.18208  0.61997  1.0000
  H   H974      1.0  0.85786  0.21347  0.60750  1.0000
  H   H975      1.0  0.87279  0.25523  0.63031  1.0000
  H   H976      1.0  0.87491  0.25369  0.65925  1.0000
  H   H977      1.0  0.72949  0.28255  0.59215  1.0000
  H   H978      1.0  0.67763  0.12063  0.73623  1.0000
  H   H979      1.0  0.74460  0.30812  0.57199  1.0000
  H   H980      1.0  0.71801  0.30506  0.58705  1.0000
  H   H981      1.0  0.71991  0.30378  0.53782  1.0000
  S   S242      1.0  0.82984  0.02507  0.51135  1.0000
  Fe  Fe119     1.0  0.83694  0.06649  0.50154  1.0000
  H   H982      1.0  0.70379  0.24357  0.53995  1.0000
  H   H983      1.0  0.70842  0.16497  0.72170  1.0000
  H   H984      1.0  0.83356  0.07384  0.57023  1.0000
  C   C601      1.0  0.84806  0.23723  0.73650  1.0000
  H   H985      1.0  0.69811  0.12422  0.70052  1.0000
  H   H986      1.0  0.79196  0.06371  0.58648  1.0000
  C   C602      1.0  0.78500  0.04165  0.58446  1.0000
  H   H987      1.0  0.76793  0.03502  0.54321  1.0000
  C   C603      1.0  0.78945  0.04574  0.54587  1.0000
  S   S243      1.0  0.67157  0.31347  0.59281  1.0000
  C   C604      1.0  0.70564  0.09310  0.73784  1.0000
  H   H988      1.0  0.68513  0.24259  0.58549  1.0000
  H   H989      1.0  0.82909  0.21866  0.73645  1.0000
  C   C605      1.0  0.72565  0.29325  0.57908  1.0000
  H   H990      1.0  0.67392  0.26541  0.58098  1.0000
  N   N61       1.0  0.70684  0.27378  0.56254  1.0000
  C   C606      1.0  0.68219  0.25444  0.57289  1.0000
  N   N62       1.0  0.67081  0.13647  0.70727  1.0000
  C   C607      1.0  0.71767  0.25856  0.55238  1.0000
  N   N63       1.0  0.79654  0.03646  0.56552  1.0000
  H   H991      1.0  0.72170  0.24706  0.56458  1.0000
  H   H992      1.0  0.83136  0.04488  0.58304  1.0000
  H   H993      1.0  0.68755  0.27467  0.53318  1.0000
  H   H994      1.0  0.79706  0.06802  0.54685  1.0000
  H   H995      1.0  0.79754  0.04171  0.53128  1.0000
  C   C608      1.0  0.82526  0.05150  0.56846  1.0000
  H   H996      1.0  0.73627  0.27250  0.54434  1.0000
  H   H997      1.0  0.69312  0.30010  0.55298  1.0000
  H   H998      1.0  0.66659  0.18295  0.63363  1.0000
  C   C609      1.0  0.70176  0.28877  0.54589  1.0000
  H   H999      1.0  0.66712  0.23987  0.56090  1.0000
  H   H1000     1.0  0.76332  0.03042  0.58284  1.0000
  H   H1001     1.0  0.70008  0.17674  0.69788  1.0000
  H   H1002     1.0  0.79017  0.03518  0.59965  1.0000
  H   H1003     1.0  0.66581  0.10161  0.68945  1.0000
  H   H1004     1.0  0.68511  0.17550  0.72303  1.0000
  Fe  Fe120     1.0  0.66320  0.28259  0.61834  1.0000
  C   C610      1.0  0.66508  0.05120  0.72746  1.0000
  C   C611      1.0  0.78650  0.00696  0.56320  1.0000
  H   H1005     1.0  0.79533  0.00250  0.54931  1.0000
  H   H1006     1.0  0.79111  0.99908  0.57785  1.0000
  H   H1007     1.0  0.98286  0.12707  0.49997  1.0000
  H   H1008     1.0  0.93906  0.12181  0.50021  1.0000
  S   S244      1.0  0.98563  0.27117  0.94913  1.0000
  H   H1009     1.0  0.88425  0.24305  0.81651  1.0000
  H   H1010     1.0  0.71309  0.10008  0.77222  1.0000
  S   S245      1.0  0.90762  0.28097  0.78050  1.0000
  C   C612      1.0  0.98751  0.30117  0.91390  1.0000
  S   S246      1.0  0.98251  0.20014  0.96336  1.0000
  H   H1011     1.0  0.81799  0.06325  0.97070  1.0000
  H   H1012     1.0  0.87906  0.24732  0.84442  1.0000
  H   H1013     1.0  0.91095  0.25204  0.87268  1.0000
  C   C613      1.0  0.69978  0.08641  0.75962  1.0000
  H   H1014     1.0  0.90488  0.27510  0.83026  1.0000
  H   H1015     1.0  0.92341  0.24234  0.80620  1.0000
  C   C614      1.0  0.89430  0.25264  0.83230  1.0000
  S   S247      1.0  0.98277  0.30811  0.78965  1.0000
  H   H1016     1.0  0.88780  0.20324  0.82541  1.0000
  C   C615      1.0  0.67680  0.06226  0.76531  1.0000
  C   C616      1.0  0.98673  0.27750  0.92077  1.0000
  C   C617      1.0  0.83552  0.07244  0.98085  1.0000
  Fe  Fe121     1.0  0.95021  0.17821  0.98743  1.0000
  C   C618      1.0  0.88160  0.10897  0.98721  1.0000
  C   C619      1.0  0.89774  0.21382  0.84097  1.0000
  H   H1017     1.0  0.85803  0.10535  0.95920  1.0000
  H   H1018     1.0  0.93724  0.27955  0.85866  1.0000
  H   H1019     1.0  0.99000  0.32606  0.88696  1.0000
  C   C620      1.0  0.88875  0.27036  0.75591  1.0000
  H   H1020     1.0  0.93881  0.25031  0.86539  1.0000
  C   C621      1.0  0.85839  0.09641  0.97434  1.0000
  H   H1021     1.0  0.94380  0.27397  0.82055  1.0000
  S   S248      1.0  0.90960  0.14011  0.97845  1.0000
  C   C622      1.0  0.92532  0.25695  0.85983  1.0000
  H   H1022     1.0  0.67259  0.05751  0.78213  1.0000
  H   H1023     1.0  0.91093  0.20648  0.84588  1.0000
  Fe  Fe122     1.0  0.94969  0.31558  0.78737  1.0000
  H   H1024     1.0  0.85708  0.23445  0.76989  1.0000
  N   N64       1.0  0.91241  0.24373  0.83888  1.0000
  C   C623      1.0  0.93235  0.25154  0.82236  1.0000
  H   H1025     1.0  0.94659  0.24541  0.82680  1.0000
  H   H1026     1.0  0.88255  0.20720  0.85336  1.0000
  Fe  Fe123     1.0  0.98183  0.23783  0.97198  1.0000
  C   C624      1.0  0.98945  0.30778  0.89182  1.0000
  C   C625      1.0  0.99119  0.29105  0.87619  1.0000
  C   C626      1.0  0.98791  0.26045  0.90506  1.0000
  S   S249      1.0  0.94810  0.21559  0.99422  1.0000
  C   C627      1.0  0.86401  0.24627  0.75547  1.0000
  H   H1027     1.0  0.98665  0.31460  0.92580  1.0000
  S   S250      1.0  0.95623  0.33201  0.82152  1.0000
  H   H1028     1.0  0.99158  0.25411  0.87116  1.0000
  H   H1029     1.0  0.98698  0.24197  0.90984  1.0000
  Fe  Fe124     1.0  0.99047  0.32641  0.82354  1.0000
  C   C628      1.0  0.99042  0.26737  0.88304  1.0000
  S   S251      1.0  0.99386  0.29818  0.84796  1.0000
  S   S252      1.0  0.72824  0.99908  0.99926  1.0000
  H   H1030     1.0  0.97896  0.50878  0.13508  1.0000
  Fe  Fe125     1.0  0.93904  0.57650  0.19429  1.0000
  S   S253      1.0  0.94805  0.56026  0.16427  1.0000
  S   S254      1.0  0.89643  0.55549  0.20433  1.0000
  Fe  Fe126     1.0  0.98000  0.56102  0.18438  1.0000
  H   H1031     1.0  0.80357  0.59513  0.23404  1.0000
  Fe  Fe127     1.0  0.97687  0.60430  0.15709  1.0000
  C   C629      1.0  0.95117  0.65203  0.08933  1.0000
  S   S255      1.0  0.96907  0.57409  0.21476  1.0000
  S   S256      1.0  0.96575  0.62055  0.18579  1.0000
  H   H1032     1.0  0.87302  0.35937  0.22310  1.0000
  C   C630      1.0  0.76436  0.64988  0.05471  1.0000
  Fe  Fe128     1.0  0.96745  0.37529  0.18254  1.0000
  S   S257      1.0  0.95050  0.40336  0.18109  1.0000
  S   S258      1.0  0.97131  0.35808  0.21407  1.0000
  C   C631      1.0  0.98297  0.49652  0.18246  1.0000
  C   C632      1.0  0.95610  0.47753  0.18216  1.0000
  C   C633      1.0  0.94665  0.44926  0.18174  1.0000
  C   C634      1.0  0.96382  0.43944  0.18172  1.0000
  H   H1033     1.0  0.95756  0.52040  0.14178  1.0000
  C   C635      1.0  0.95819  0.63976  0.10560  1.0000
  H   H1034     1.0  0.94256  0.48457  0.18224  1.0000
  H   H1035     1.0  0.92584  0.43488  0.18145  1.0000
  C   C636      1.0  0.97781  0.63400  0.10216  1.0000
  H   H1036     1.0  0.94818  0.63448  0.12072  1.0000
  C   C637      1.0  0.76536  0.56062  0.20555  1.0000
  C   C638      1.0  0.80644  0.56239  0.20462  1.0000
  H   H1037     1.0  0.74800  0.55565  0.21519  1.0000
  H   H1038     1.0  0.72518  0.63863  0.08187  1.0000
  H   H1039     1.0  0.93576  0.65603  0.09221  1.0000
  C   C639      1.0  0.89743  0.58951  0.23742  1.0000
  H   H1040     1.0  0.81699  0.58410  0.19991  1.0000
  N   N65       1.0  0.98066  0.53908  0.11398  1.0000
  S   S259      1.0  0.98711  0.61767  0.12178  1.0000
  C   C640      1.0  0.79282  0.57310  0.23774  1.0000
  H   H1041     1.0  0.78038  0.66367  0.04390  1.0000
  H   H1042     1.0  0.91717  0.60407  0.23290  1.0000
  C   C641      1.0  0.87505  0.35599  0.20570  1.0000
  H   H1043     1.0  0.71490  0.61088  0.06264  1.0000
  C   C642      1.0  0.66965  0.57430  0.23992  1.0000
  C   C643      1.0  0.88334  0.56431  0.22637  1.0000
  H   H1044     1.0  0.95405  0.55317  0.11794  1.0000
  C   C644      1.0  0.85764  0.54571  0.23250  1.0000
  C   C645      1.0  0.71963  0.63224  0.06461  1.0000
  H   H1045     1.0  0.84663  0.52608  0.22420  1.0000
  H   H1046     1.0  0.94665  0.53060  0.09503  1.0000
  H   H1047     1.0  0.92189  0.36199  0.20927  1.0000
  C   C646      1.0  0.73176  0.64188  0.02745  1.0000
  H   H1048     1.0  0.99330  0.65845  0.05079  1.0000
  H   H1049     1.0  0.85663  0.35090  0.19699  1.0000
  C   C647      1.0  0.67021  0.65540  0.06265  1.0000
  H   H1050     1.0  0.97655  0.51432  0.08613  1.0000
  H   H1051     1.0  0.72719  0.62077  0.02414  1.0000
  H   H1052     1.0  0.70130  0.63211  0.06110  1.0000
  H   H1053     1.0  0.76326  0.51298  0.20924  1.0000
  C   C648      1.0  0.68733  0.54601  0.23017  1.0000
  C   C649      1.0  0.99068  0.45845  0.18205  1.0000
  C   C650      1.0  0.98351  0.65346  0.06600  1.0000
  H   H1054     1.0  0.97342  0.56544  0.09465  1.0000
  C   C651      1.0  0.67152  0.55682  0.22515  1.0000
  H   H1055     1.0  0.89099  0.37573  0.19949  1.0000
  H   H1056     1.0  0.68844  0.53236  0.21868  1.0000
  C   C652      1.0  0.96367  0.65893  0.06937  1.0000
  C   C653      1.0  0.96288  0.54730  0.10495  1.0000
  C   C654      1.0  0.96606  0.51542  0.12796  1.0000
  H   H1057     1.0  0.82079  0.55913  0.21359  1.0000
  H   H1058     1.0  0.66782  0.64595  0.23594  1.0000
  H   H1059     1.0  0.90381  0.34383  0.23217  1.0000
  H   H1060     1.0  0.75806  0.54783  0.19047  1.0000
  C   C655      1.0  0.77043  0.52677  0.22378  1.0000
  N   N66       1.0  0.78377  0.55572  0.21790  1.0000
  N   N67       1.0  0.74053  0.65066  0.05013  1.0000
  H   H1061     1.0  0.75323  0.52110  0.23386  1.0000
  H   H1062     1.0  0.80043  0.54950  0.18959  1.0000
  H   H1063     1.0  0.77465  0.58233  0.20108  1.0000
  C   C656      1.0  0.90552  0.34206  0.21447  1.0000
  S   S260      1.0  0.67720  0.66168  0.03453  1.0000
  H   H1064     1.0  0.78368  0.52237  0.23327  1.0000
  C   C657      1.0  0.99199  0.53165  0.09618  1.0000
  C   C658      1.0  0.99041  0.64103  0.08222  1.0000
  H   H1065     1.0  0.77162  0.65652  0.07166  1.0000
  H   H1066     1.0  0.71376  0.64223  0.02346  1.0000
  H   H1067     1.0  0.94976  0.49768  0.11890  1.0000
  S   S261      1.0  0.94190  0.33375  0.16643  1.0000
  H   H1068     1.0  0.76076  0.62900  0.05212  1.0000
  H   H1069     1.0  0.99378  0.56819  0.14020  1.0000
  C   C659      1.0  0.66497  0.66247  0.24212  1.0000
  Fe  Fe129     1.0  0.97828  0.33575  0.15534  1.0000
  H   H1070     1.0  0.74704  0.65548  0.01606  1.0000
  H   H1071     1.0  0.90042  0.34966  0.17275  1.0000
  H   H1072     1.0  0.80612  0.56936  0.24778  1.0000
  H   H1073     1.0  0.77613  0.56903  0.24786  1.0000
  N   N68       1.0  0.88095  0.33426  0.20262  1.0000
  Fe  Fe130     1.0  0.77380  0.57057  0.32906  1.0000
  S   S262      1.0  0.73613  0.53141  0.31977  1.0000
  S   S263      1.0  0.77835  0.60321  0.35338  1.0000
  Fe  Fe131     1.0  0.80475  0.56243  0.29367  1.0000
  S   S264      1.0  0.76988  0.52270  0.28210  1.0000
  S   S265      1.0  0.84609  0.58733  0.28085  1.0000
  Fe  Fe132     1.0  0.74690  0.54366  0.28520  1.0000
  H   H1074     1.0  0.87188  0.66121  0.36688  1.0000
  Fe  Fe133     1.0  0.76138  0.51311  0.31725  1.0000
  S   S266      1.0  0.75696  0.47517  0.33267  1.0000
  S   S267      1.0  0.78248  0.58393  0.29464  1.0000
  S   S268      1.0  0.79823  0.55164  0.32866  1.0000
  H   H1075     1.0  0.66306  0.40453  0.32645  1.0000
  H   H1076     1.0  0.83924  0.65201  0.35961  1.0000
  S   S269      1.0  0.83848  0.64189  0.44524  1.0000
  H   H1077     1.0  0.78782  0.58595  0.44860  1.0000
  H   H1078     1.0  0.78382  0.60986  0.46405  1.0000
  C   C660      1.0  0.86009  0.57754  0.26018  1.0000
  C   C661      1.0  0.70921  0.39802  0.35336  1.0000
  C   C662      1.0  0.72853  0.44309  0.33743  1.0000
  C   C663      1.0  0.70384  0.43595  0.32925  1.0000
  C   C664      1.0  0.68202  0.40988  0.33295  1.0000
  C   C665      1.0  0.68458  0.39080  0.34502  1.0000
  H   H1079     1.0  0.82398  0.59427  0.47383  1.0000
  H   H1080     1.0  0.82965  0.60612  0.34751  1.0000
  H   H1081     1.0  0.70162  0.45043  0.31996  1.0000
  H   H1082     1.0  0.75519  0.53667  0.47627  1.0000
  H   H1083     1.0  0.86239  0.61602  0.35521  1.0000
  H   H1084     1.0  0.67608  0.66177  0.28427  1.0000
  C   C666      1.0  0.79378  0.61241  0.37951  1.0000
  C   C667      1.0  0.79421  0.63372  0.39133  1.0000
  C   C668      1.0  0.80744  0.64280  0.41159  1.0000
  C   C669      1.0  0.82075  0.63089  0.42013  1.0000
  C   C670      1.0  0.82020  0.60947  0.40839  1.0000
  C   C671      1.0  0.80661  0.60009  0.38830  1.0000
  H   H1085     1.0  0.78684  0.54724  0.46622  1.0000
  H   H1086     1.0  0.81915  0.61749  0.48943  1.0000
  H   H1087     1.0  0.83032  0.60000  0.41489  1.0000
  H   H1088     1.0  0.80615  0.58340  0.37963  1.0000
  C   C672      1.0  0.77652  0.54997  0.47986  1.0000
  H   H1089     1.0  0.75638  0.57606  0.45883  1.0000
  N   N69       1.0  0.78428  0.57881  0.48272  1.0000
  C   C673      1.0  0.85919  0.66057  0.35327  1.0000
  C   C674      1.0  0.68390  0.58085  0.25969  1.0000
  H   H1090     1.0  0.82655  0.53745  0.25412  1.0000
  C   C675      1.0  0.84110  0.64292  0.31747  1.0000
  C   C676      1.0  0.73105  0.42398  0.34948  1.0000
  H   H1091     1.0  0.71150  0.38358  0.36265  1.0000
  C   C677      1.0  0.69972  0.57005  0.26471  1.0000
  C   C678      1.0  0.77769  0.58798  0.46272  1.0000
  H   H1092     1.0  0.75006  0.42931  0.35587  1.0000
  H   H1093     1.0  0.80765  0.65926  0.42043  1.0000
  C   C679      1.0  0.84993  0.61611  0.34174  1.0000
  H   H1094     1.0  0.88581  0.64393  0.31232  1.0000
  H   H1095     1.0  0.78434  0.64339  0.38471  1.0000
  C   C680      1.0  0.88580  0.59610  0.25412  1.0000
  H   H1096     1.0  0.71041  0.57520  0.28001  1.0000
  H   H1097     1.0  0.68263  0.59427  0.27129  1.0000
  H   H1098     1.0  0.85007  0.60318  0.32825  1.0000
  H   H1099     1.0  0.84024  0.63026  0.30334  1.0000
  S   S270      1.0  0.72115  0.53822  0.25538  1.0000
  H   H1100     1.0  0.82085  0.63381  0.32330  1.0000
  C   C681      1.0  0.81269  0.59564  0.48732  1.0000
  N   N70       1.0  0.85899  0.64400  0.33472  1.0000
  H   H1101     1.0  0.89685  0.61577  0.26235  1.0000
  S   S271      1.0  0.80563  0.66054  0.49176  1.0000
  H   H1102     1.0  0.78121  0.54238  0.49465  1.0000
  C   C682      1.0  0.88555  0.65617  0.32634  1.0000
  H   H1103     1.0  0.89949  0.65710  0.33892  1.0000
  H   H1104     1.0  0.74877  0.56912  0.49820  1.0000
  H   H1105     1.0  0.84731  0.66357  0.31167  1.0000
  C   C683      1.0  0.70148  0.55247  0.24999  1.0000
  C   C684      1.0  0.84614  0.55215  0.24940  1.0000
  Fe  Fe134     1.0  0.78289  0.57415  0.66436  1.0000
  S   S272      1.0  0.74221  0.53817  0.65887  1.0000
  S   S273      1.0  0.79824  0.61262  0.64439  1.0000
  Fe  Fe135     1.0  0.79129  0.55077  0.70640  1.0000
  S   S274      1.0  0.75027  0.51418  0.70386  1.0000
  S   S275      1.0  0.81404  0.54856  0.73567  1.0000
  Fe  Fe136     1.0  0.75845  0.51237  0.66893  1.0000
  S   S276      1.0  0.75456  0.47359  0.65472  1.0000
  Fe  Fe137     1.0  0.73743  0.54314  0.69446  1.0000
  S   S277      1.0  0.69866  0.53932  0.70294  1.0000
  S   S278      1.0  0.79999  0.54815  0.67164  1.0000
  S   S279      1.0  0.77763  0.57993  0.69978  1.0000
  H   H1106     1.0  0.72888  0.57986  0.73775  1.0000
  S   S280      1.0  0.81654  0.62783  0.54269  1.0000
  H   H1107     1.0  0.79345  0.48653  0.72161  1.0000
  C   C685      1.0  0.69006  0.55409  0.72421  1.0000
  H   H1108     1.0  0.80228  0.44477  0.69800  1.0000
  C   C686      1.0  0.79276  0.48503  0.70364  1.0000
  C   C687      1.0  0.81493  0.48592  0.67130  1.0000
  H   H1109     1.0  0.76475  0.61694  0.67775  1.0000
  H   H1110     1.0  0.86130  0.58648  0.71263  1.0000
  C   C688      1.0  0.86695  0.57981  0.72683  1.0000
  H   H1111     1.0  0.68844  0.60088  0.66171  1.0000
  C   C689      1.0  0.89350  0.58933  0.73135  1.0000
  C   C690      1.0  0.72537  0.44343  0.64584  1.0000
  C   C691      1.0  0.72652  0.42052  0.63944  1.0000
  C   C692      1.0  0.70395  0.39631  0.63186  1.0000
  C   C693      1.0  0.68000  0.39487  0.63039  1.0000
  C   C694      1.0  0.67882  0.41771  0.63693  1.0000
  C   C695      1.0  0.70135  0.44184  0.64470  1.0000
  H   H1112     1.0  0.74500  0.42154  0.64020  1.0000
  H   H1113     1.0  0.70515  0.37892  0.62686  1.0000
  H   H1114     1.0  0.70019  0.45931  0.64952  1.0000
  C   C696      1.0  0.80324  0.61641  0.61606  1.0000
  C   C697      1.0  0.79797  0.59455  0.60227  1.0000
  C   C698      1.0  0.80214  0.59850  0.57993  1.0000
  C   C699      1.0  0.81148  0.62425  0.57100  1.0000
  C   C700      1.0  0.81681  0.64615  0.58477  1.0000
  C   C701      1.0  0.81271  0.64221  0.60715  1.0000
  H   H1115     1.0  0.79070  0.57460  0.60883  1.0000
  H   H1116     1.0  0.87488  0.65353  0.54236  1.0000
  H   H1117     1.0  0.82056  0.46550  0.72125  1.0000
  H   H1118     1.0  0.77517  0.57530  0.51640  1.0000
  C   C702      1.0  0.72222  0.58511  0.65253  1.0000
  H   H1119     1.0  0.90812  0.60339  0.72053  1.0000
  H   H1120     1.0  0.74374  0.65194  0.66203  1.0000
  C   C703      1.0  0.84788  0.56190  0.74078  1.0000
  H   H1121     1.0  0.77492  0.46551  0.69831  1.0000
  H   H1122     1.0  0.75793  0.63729  0.64558  1.0000
  N   N71       1.0  0.72753  0.60903  0.66591  1.0000
  H   H1123     1.0  0.81239  0.50233  0.66468  1.0000
  H   H1124     1.0  0.75027  0.63104  0.69441  1.0000
  C   C704      1.0  0.81933  0.46495  0.70328  1.0000
  C   C705      1.0  0.73928  0.63342  0.65246  1.0000
  C   C706      1.0  0.70285  0.60423  0.67478  1.0000
  H   H1125     1.0  0.81841  0.58958  0.50243  1.0000
  H   H1126     1.0  0.73770  0.59517  0.69429  1.0000
  H   H1127     1.0  0.85801  0.51678  0.69607  1.0000
  H   H1128     1.0  0.69365  0.58582  0.68495  1.0000
  C   C707      1.0  0.83957  0.51382  0.70247  1.0000
  H   H1129     1.0  0.83724  0.46618  0.69726  1.0000
  C   C708      1.0  0.74589  0.61326  0.68387  1.0000
  H   H1130     1.0  0.83272  0.48796  0.66426  1.0000
  H   H1131     1.0  0.79800  0.58140  0.56949  1.0000
  N   N72       1.0  0.81666  0.48742  0.69516  1.0000
  H   H1132     1.0  0.70610  0.62172  0.68517  1.0000
  H   H1133     1.0  0.71303  0.56626  0.66211  1.0000
  H   H1134     1.0  0.79781  0.46623  0.66523  1.0000
  H   H1135     1.0  0.74052  0.58781  0.64592  1.0000
  H   H1136     1.0  0.83773  0.53119  0.69714  1.0000
  H   H1137     1.0  0.84167  0.51541  0.72040  1.0000
  H   H1138     1.0  0.79022  0.50165  0.69775  1.0000
  H   H1139     1.0  0.72602  0.63096  0.63867  1.0000
  C   C709      1.0  0.70858  0.57368  0.73885  1.0000
  H   H1140     1.0  0.81687  0.65928  0.61763  1.0000
  H   H1141     1.0  0.70872  0.58148  0.63862  1.0000
  H   H1142     1.0  0.89429  0.64432  0.55821  1.0000
  H   H1143     1.0  0.77570  0.60314  0.50358  1.0000
  Fe  Fe138     1.0  0.83034  0.66447  0.52087  1.0000
  C   C710      1.0  0.77028  0.58161  0.50098  1.0000
  C   C711      1.0  0.66377  0.54638  0.72596  1.0000
  C   C712      1.0  0.88579  0.65747  0.55803  1.0000
  H   H1144     1.0  0.87110  0.65052  0.57090  1.0000
  H   H1145     1.0  0.87584  0.60792  0.81688  1.0000
  S   S281      1.0  0.97425  0.35710  0.77351  1.0000
  H   H1146     1.0  0.90717  0.40465  0.78657  1.0000
  H   H1147     1.0  0.69487  0.62590  0.81862  1.0000
  C   C713      1.0  0.67896  0.57523  0.82990  1.0000
  Fe  Fe139     1.0  0.95966  0.58891  0.78071  1.0000
  S   S282      1.0  0.94796  0.55828  0.80689  1.0000
  H   H1148     1.0  0.72555  0.61905  0.84167  1.0000
  C   C714      1.0  0.91223  0.34885  0.79196  1.0000
  Fe  Fe140     1.0  0.98292  0.55518  0.79842  1.0000
  H   H1149     1.0  0.92569  0.39875  0.80633  1.0000
  Fe  Fe141     1.0  0.97596  0.59500  0.82841  1.0000
  S   S283      1.0  0.95990  0.59979  0.86078  1.0000
  C   C715      1.0  0.88223  0.56278  0.76356  1.0000
  H   H1150     1.0  0.93982  0.62962  0.79321  1.0000
  C   C716      1.0  0.96854  0.62563  0.88141  1.0000
  C   C717      1.0  0.95172  0.61994  0.89877  1.0000
  C   C718      1.0  0.97574  0.47835  0.81797  1.0000
  H   H1151     1.0  0.71529  0.60037  0.76628  1.0000
  H   H1152     1.0  0.89500  0.57907  0.81343  1.0000
  H   H1153     1.0  0.90594  0.61582  0.78733  1.0000
  S   S284      1.0  0.99233  0.58336  0.77042  1.0000
  S   S285      1.0  0.66581  0.59270  0.77774  1.0000
  C   C719      1.0  0.91183  0.59435  0.82373  1.0000
  N   N73       1.0  0.68396  0.59796  0.84469  1.0000
  H   H1154     1.0  0.96996  0.48921  0.82861  1.0000
  C   C720      1.0  0.88667  0.35593  0.76537  1.0000
  H   H1155     1.0  0.89596  0.64297  0.82570  1.0000
  H   H1156     1.0  0.94333  0.66264  0.83392  1.0000
  N   N74       1.0  0.91017  0.36958  0.77979  1.0000
  C   C721      1.0  0.68153  0.61844  0.83247  1.0000
  H   H1157     1.0  0.89083  0.37741  0.80522  1.0000
  C   C722      1.0  0.90829  0.38838  0.79511  1.0000
  C   C723      1.0  0.70079  0.58525  0.75507  1.0000
  H   H1158     1.0  0.96612  0.44611  0.84033  1.0000
  H   H1159     1.0  0.71490  0.62793  0.86565  1.0000
  C   C724      1.0  0.93358  0.38514  0.76674  1.0000
  H   H1160     1.0  0.88806  0.61628  0.84438  1.0000
  H   H1161     1.0  0.68054  0.55928  0.83849  1.0000
  C   C725      1.0  0.99120  0.65152  0.88092  1.0000
  H   H1162     1.0  0.92948  0.35853  0.80331  1.0000
  S   S286      1.0  0.98849  0.51961  0.78815  1.0000
  H   H1163     1.0  0.95169  0.39486  0.77711  1.0000
  H   H1164     1.0  0.68608  0.63633  0.84290  1.0000
  Fe  Fe142     1.0  0.98315  0.37353  0.80776  1.0000
  C   C726      1.0  0.97358  0.45380  0.82458  1.0000
  H   H1165     1.0  0.93509  0.63597  0.85274  1.0000
  N   N75       1.0  0.91657  0.62205  0.82124  1.0000
  S   S287      1.0  0.98633  0.62539  0.80223  1.0000
  S   S288      1.0  0.97692  0.40774  0.82027  1.0000
  C   C727      1.0  0.93891  0.64142  0.83545  1.0000
  H   H1166     1.0  0.86862  0.34412  0.77471  1.0000
  C   C728      1.0  0.85569  0.55349  0.75918  1.0000
  C   C729      1.0  0.92241  0.63000  0.79849  1.0000
  C   C730      1.0  0.95748  0.63957  0.91543  1.0000
  H   H1167     1.0  0.94434  0.63462  0.92863  1.0000
  C   C731      1.0  0.98029  0.66535  0.91509  1.0000
  H   H1168     1.0  0.95689  0.64133  0.83159  1.0000
  C   C732      1.0  0.67443  0.57736  0.75693  1.0000
  H   H1169     1.0  0.84106  0.53945  0.76999  1.0000
  H   H1170     1.0  0.71318  0.59586  0.86362  1.0000
  C   C733      1.0  0.98106  0.43922  0.81113  1.0000
  H   H1171     1.0  0.92915  0.59346  0.81911  1.0000
  H   H1172     1.0  0.93412  0.60006  0.89945  1.0000
  H   H1173     1.0  0.88789  0.55583  0.77757  1.0000
  H   H1174     1.0  0.90795  0.58785  0.84080  1.0000
  C   C734      1.0  0.89305  0.62233  0.82732  1.0000
  C   C735      1.0  0.98533  0.48873  0.79767  1.0000
  C   C736      1.0  0.71060  0.61076  0.85433  1.0000
  H   H1175     1.0  0.92635  0.65090  0.79596  1.0000
  H   H1176     1.0  0.69290  0.58245  0.81646  1.0000
  H   H1177     1.0  0.66810  0.60418  0.87355  1.0000
  C   C737      1.0  0.99072  0.44963  0.79083  1.0000
  H   H1178     1.0  0.93327  0.40171  0.75796  1.0000
  C   C738      1.0  0.99275  0.47410  0.78418  1.0000
  C   C739      1.0  0.66479  0.58754  0.86205  1.0000
  H   H1179     1.0  0.66580  0.57182  0.87152  1.0000
  S   S289      1.0  0.93518  0.59425  0.75470  1.0000
  H   H1180     1.0  0.93532  0.37175  0.75463  1.0000
  H   H1181     1.0  0.89471  0.33629  0.80170  1.0000
  H   H1182     1.0  0.88743  0.34132  0.75385  1.0000
  C   C740      1.0  0.90133  0.58092  0.74972  1.0000
  H   H1183     1.0  0.88464  0.37094  0.75573  1.0000
  C   C741      1.0  0.66266  0.65453  0.87366  1.0000
  H   H1184     1.0  0.91432  0.33469  0.78095  1.0000
  H   H1185     1.0  0.66352  0.65753  0.85646  1.0000
  Fe  Fe143     1.0  0.96376  0.69558  0.01648  1.0000
  S   S290      1.0  0.96782  0.73688  0.01837  1.0000
  C   C742      1.0  0.76169  0.85001  0.00898  1.0000
  Fe  Fe144     1.0  0.70750  0.69424  0.01201  1.0000
  S   S291      1.0  0.74684  0.72994  0.02210  1.0000
  H   H1186     1.0  0.83328  0.69583  0.02547  1.0000
  Fe  Fe145     1.0  0.70985  0.96316  0.02169  1.0000
  S   S292      1.0  0.74603  0.96049  0.02488  1.0000
  S   S293      1.0  0.68140  0.95161  0.05012  1.0000
  H   H1187     1.0  0.98402  0.74716  0.09274  1.0000
  H   H1188     1.0  0.84146  0.83527  0.02531  1.0000
  C   C743      1.0  0.68139  0.99041  0.07831  1.0000
  C   C744      1.0  0.75499  0.87001  0.00578  1.0000
  H   H1189     1.0  0.87668  0.70423  0.01528  1.0000
  S   S294      1.0  0.79784  0.71058  0.00725  1.0000
  H   H1190     1.0  0.77862  0.85507  0.01901  1.0000
  C   C745      1.0  0.81285  0.78440  0.00875  1.0000
  C   C746      1.0  0.67171  0.96286  0.07335  1.0000
  H   H1191     1.0  0.98131  0.71498  0.08726  1.0000
  H   H1192     1.0  0.79336  0.78169  0.01129  1.0000
  H   H1193     1.0  0.97398  0.73123  0.06635  1.0000
  C   C747      1.0  0.83265  0.83320  0.00890  1.0000
  C   C748      1.0  0.74640  0.67878  0.05363  1.0000
  C   C749      1.0  0.68065  0.66689  0.10112  1.0000
  H   H1194     1.0  0.70374  0.69252  0.07514  1.0000
  H   H1195     1.0  0.81339  0.83135  0.01102  1.0000
  H   H1196     1.0  0.82148  0.78499  0.02494  1.0000
  C   C750      1.0  0.84233  0.70735  0.01126  1.0000
  H   H1197     1.0  0.86520  0.81419  0.01005  1.0000
  C   C751      1.0  0.86709  0.71210  0.00551  1.0000
  H   H1198     1.0  0.69352  0.68108  0.11367  1.0000
  H   H1199     1.0  0.72906  0.68027  0.04972  1.0000
  S   S295      1.0  0.95391  0.67469  0.04958  1.0000
  H   H1200     1.0  0.76241  0.69328  0.04322  1.0000
  C   C752      1.0  0.68657  0.67345  0.07920  1.0000
  H   H1201     1.0  0.75244  0.68592  0.07069  1.0000
  S   S296      1.0  0.75652  0.79934  0.00407  1.0000
  H   H1202     1.0  0.76677  0.89006  0.01329  1.0000
  C   C753      1.0  0.98742  0.73521  0.08043  1.0000
  H   H1203     1.0  0.68447  0.67991  0.24738  1.0000
  Fe  Fe146     1.0  0.76418  0.99544  0.00141  1.0000
  C   C754      1.0  0.74664  0.82359  0.99954  1.0000
  C   C755      1.0  0.67254  0.99808  0.09656  1.0000
  H   H1204     1.0  0.84521  0.85247  0.00036  1.0000
  H   H1205     1.0  0.80977  0.76593  0.99991  1.0000
  H   H1206     1.0  0.68032  0.99721  0.16696  1.0000
  H   H1207     1.0  0.70719  0.88542  0.39681  1.0000
  H   H1208     1.0  0.73363  0.88972  0.45249  1.0000
  C   C756      1.0  0.68195  0.86730  0.44664  1.0000
  Fe  Fe147     1.0  0.82256  0.70593  0.49550  1.0000
  H   H1209     1.0  0.67203  0.79743  0.38785  1.0000
  H   H1210     1.0  0.69233  0.91464  0.43017  1.0000
  Fe  Fe148     1.0  0.69534  0.81255  0.46913  1.0000
  S   S297      1.0  0.72861  0.90601  0.49600  1.0000
  S   S298      1.0  0.73733  0.84604  0.47491  1.0000
  S   S299      1.0  0.85619  0.71633  0.47351  1.0000
  H   H1211     1.0  0.68863  0.87495  0.46354  1.0000
  Fe  Fe149     1.0  0.84008  0.67098  0.47171  1.0000
  C   C757      1.0  0.72569  0.88216  0.43579  1.0000
  S   S300      1.0  0.69811  0.78576  0.49388  1.0000
  H   H1212     1.0  0.71715  0.92086  0.45007  1.0000
  H   H1213     1.0  0.74157  0.89451  0.42451  1.0000
  C   C758      1.0  0.97578  0.75031  0.47731  1.0000
  C   C759      1.0  0.95135  0.74352  0.48543  1.0000
  H   H1214     1.0  0.86625  0.68189  0.34869  1.0000
  H   H1215     1.0  0.93366  0.73081  0.47585  1.0000
  H   H1216     1.0  0.72108  0.86078  0.43422  1.0000
  N   N76       1.0  0.70237  0.88386  0.43117  1.0000
  S   S301      1.0  0.68425  0.80232  0.43319  1.0000
  H   H1217     1.0  0.72492  0.92572  0.42202  1.0000
  H   H1218     1.0  0.67660  0.84567  0.44585  1.0000
  H   H1219     1.0  0.68718  0.85180  0.40693  1.0000
  C   C760      1.0  0.70948  0.91256  0.43339  1.0000
  C   C761      1.0  0.69238  0.87336  0.40897  1.0000
  S   S302      1.0  0.67949  0.82997  0.49265  1.0000
  H   H1220     1.0  0.73828  0.95945  0.48814  1.0000
  H   H1221     1.0  0.97660  0.74269  0.46146  1.0000
  C   C762      1.0  0.75634  0.96200  0.49447  1.0000
  H   H1222     1.0  0.67450  0.87385  0.40498  1.0000
  H   H1223     1.0  0.66382  0.86755  0.44335  1.0000
  H   H1224     1.0  0.89306  0.67724  0.32082  1.0000
  C   C763      1.0  0.77846  0.98849  0.49742  1.0000
  C   C764      1.0  0.78673  0.74443  0.49574  1.0000
  S   S303      1.0  0.79082  0.71639  0.49004  1.0000
  C   C765      1.0  0.76374  0.74299  0.48825  1.0000
  H   H1225     1.0  0.74928  0.72516  0.47902  1.0000
  H   H1226     1.0  0.74172  0.76308  0.48618  1.0000
  C   C766      1.0  0.75937  0.76449  0.49232  1.0000
  Fe  Fe150     1.0  0.72177  0.86301  0.49913  1.0000
  Fe  Fe151     1.0  0.68587  0.80631  0.51827  1.0000
  H   H1227     1.0  0.87932  0.69712  0.57381  1.0000
  S   S304      1.0  0.72677  0.84051  0.52657  1.0000
  S   S305      1.0  0.84492  0.70901  0.52625  1.0000
  C   C767      1.0  0.92482  0.69507  0.54338  1.0000
  C   C768      1.0  0.70416  0.74863  0.57449  1.0000
  H   H1228     1.0  0.97247  0.77794  0.53360  1.0000
  H   H1229     1.0  0.74469  0.80736  0.54916  1.0000
  H   H1230     1.0  0.75639  0.77134  0.57678  1.0000
  H   H1231     1.0  0.70618  0.73389  0.53331  1.0000
  N   N77       1.0  0.90616  0.68661  0.56107  1.0000
  S   S306      1.0  0.91973  0.74627  0.51663  1.0000
  C   C769      1.0  0.74690  0.76393  0.56050  1.0000
  H   H1232     1.0  0.66384  0.97117  0.71170  1.0000
  H   H1233     1.0  0.88339  0.70046  0.54522  1.0000
  C   C770      1.0  0.92016  0.69090  0.58200  1.0000
  C   C771      1.0  0.97327  0.77009  0.51786  1.0000
  N   N78       1.0  0.72316  0.76543  0.55815  1.0000
  H   H1234     1.0  0.90853  0.72524  0.56297  1.0000
  C   C772      1.0  0.78082  0.94246  0.50799  1.0000
  C   C773      1.0  0.77795  0.78779  0.50410  1.0000
  H   H1235     1.0  0.71280  0.79600  0.55910  1.0000
  C   C774      1.0  0.94994  0.75356  0.50572  1.0000
  C   C775      1.0  0.80085  0.78917  0.51175  1.0000
  H   H1236     1.0  0.82394  0.66606  0.57819  1.0000
  C   C776      1.0  0.73021  0.79404  0.56112  1.0000
  C   C777      1.0  0.89380  0.70307  0.56089  1.0000
  C   C778      1.0  0.80528  0.76770  0.50758  1.0000
  H   H1237     1.0  0.74247  0.74273  0.55792  1.0000
  H   H1238     1.0  0.68614  0.74964  0.57298  1.0000
  H   H1239     1.0  0.71240  0.75575  0.59117  1.0000
  H   H1240     1.0  0.69313  0.75577  0.53407  1.0000
  C   C779      1.0  0.80188  0.99212  0.50583  1.0000
  H   H1241     1.0  0.73899  0.80237  0.57746  1.0000
  H   H1242     1.0  0.82084  0.97150  0.51773  1.0000
  C   C780      1.0  0.71129  0.75524  0.53636  1.0000
  H   H1243     1.0  0.76158  0.77672  0.54841  1.0000
  H   H1244     1.0  0.93558  0.71273  0.58478  1.0000
  H   H1245     1.0  0.72492  0.76780  0.52365  1.0000
  H   H1246     1.0  0.93461  0.68316  0.54292  1.0000
  H   H1247     1.0  0.81539  0.80707  0.52087  1.0000
  H   H1248     1.0  0.78195  0.92489  0.51213  1.0000
  H   H1249     1.0  0.91494  0.69234  0.52733  1.0000
  H   H1250     1.0  0.69820  0.72685  0.57264  1.0000
  Fe  Fe152     1.0  0.87771  0.71670  0.50407  1.0000
  Fe  Fe153     1.0  0.73874  0.82045  0.50147  1.0000
  C   C781      1.0  0.80287  0.96896  0.51114  1.0000
  H   H1251     1.0  0.76497  0.99492  0.56031  1.0000
  S   S307      1.0  0.86408  0.67248  0.50064  1.0000
  S   S308      1.0  0.77309  0.81518  0.51044  1.0000
  H   H1252     1.0  0.94027  0.71706  0.54505  1.0000
  H   H1253     1.0  0.82305  0.76920  0.51346  1.0000
  H   H1254     1.0  0.90660  0.68472  0.59568  1.0000
  H   H1255     1.0  0.92980  0.67883  0.58270  1.0000
  C   C782      1.0  0.75736  0.93881  0.49972  1.0000
  Fe  Fe154     1.0  0.97479  0.70097  0.96727  1.0000
  S   S309      1.0  0.97920  0.74251  0.96728  1.0000
  S   S310      1.0  0.72428  0.67903  0.98698  1.0000
  C   C783      1.0  0.84145  0.73213  0.98053  1.0000
  C   C784      1.0  0.71817  0.83769  0.98333  1.0000
  H   H1256     1.0  0.74635  0.91641  0.94673  1.0000
  Fe  Fe155     1.0  0.71884  0.70531  0.96342  1.0000
  S   S311      1.0  0.75944  0.74159  0.97110  1.0000
  S   S312      1.0  0.70878  0.69630  0.92686  1.0000
  H   H1257     1.0  0.70906  0.93146  0.90652  1.0000
  C   C785      1.0  0.73312  0.86405  0.99289  1.0000
  S   S313      1.0  0.91112  0.73433  0.97921  1.0000
  N   N79       1.0  0.71386  0.90243  0.92428  1.0000
  H   H1258     1.0  0.67593  0.94262  0.89339  1.0000
  C   C786      1.0  0.85548  0.81249  0.99413  1.0000
  Fe  Fe156     1.0  0.71451  0.96793  0.97142  1.0000
  S   S314      1.0  0.75145  0.96639  0.97254  1.0000
  S   S315      1.0  0.69587  0.96164  0.93690  1.0000
  H   H1259     1.0  0.72785  0.88037  0.94196  1.0000
  Fe  Fe157     1.0  0.73118  0.93184  0.99568  1.0000
  H   H1260     1.0  0.67957  0.90190  0.93469  1.0000
  N   N80       1.0  0.82966  0.80938  0.99676  1.0000
  H   H1261     1.0  0.70623  0.91637  0.95385  1.0000
  C   C787      1.0  0.72476  0.81762  0.98666  1.0000
  C   C788      1.0  0.67740  0.96970  0.91856  1.0000
  H   H1262     1.0  0.73862  0.93190  0.90125  1.0000
  H   H1263     1.0  0.70116  0.83262  0.97340  1.0000
  Fe  Fe158     1.0  0.94304  0.72415  0.98766  1.0000
  S   S316      1.0  0.72376  0.88859  0.98774  1.0000
  H   H1264     1.0  0.79786  0.80468  0.97672  1.0000
  Fe  Fe159     1.0  0.74025  0.75357  0.99633  1.0000
  C   C789      1.0  0.69939  0.88033  0.90790  1.0000
  C   C790      1.0  0.69591  0.90001  0.94128  1.0000
  C   C791      1.0  0.73535  0.90026  0.93400  1.0000
  C   C792      1.0  0.87943  0.72708  0.98724  1.0000
  H   H1265     1.0  0.87547  0.74862  0.96070  1.0000
  S   S317      1.0  0.98924  0.69101  0.93596  1.0000
  H   H1266     1.0  0.83178  0.73976  0.97062  1.0000
  C   C793      1.0  0.72474  0.92910  0.91400  1.0000
  H   H1267     1.0  0.73533  0.94622  0.92606  1.0000
  C   C794      1.0  0.86634  0.73709  0.97490  1.0000
  S   S318      1.0  0.93749  0.68208  0.98617  1.0000
  H   H1268     1.0  0.74948  0.90226  0.92176  1.0000
  H   H1269     1.0  0.71288  0.79754  0.97924  1.0000
  H   H1270     1.0  0.66871  0.96348  0.75034  1.0000
  H   H1271     1.0  0.82951  0.82591  0.96584  1.0000
  C   C795      1.0  0.66974  0.98822  0.92384  1.0000
  S   S319      1.0  0.69410  0.93270  0.99369  1.0000
  H   H1272     1.0  0.71230  0.88151  0.89479  1.0000
  H   H1273     1.0  0.85370  0.79459  0.98524  1.0000
  C   C796      1.0  0.81751  0.80729  0.97528  1.0000
  Fe  Fe160     1.0  0.76359  0.71594  0.99616  1.0000
  H   H1274     1.0  0.81493  0.78954  0.96562  1.0000
  S   S320      1.0  0.69952  0.71852  0.98767  1.0000
  H   H1275     1.0  0.68755  0.88032  0.94968  1.0000
  H   H1276     1.0  0.69965  0.69161  0.88087  1.0000
  C   C797      1.0  0.68217  0.67099  0.91020  1.0000
  C   C798      1.0  0.82917  0.71720  0.99883  1.0000
  H   H1277     1.0  0.86868  0.83100  0.98497  1.0000
  C   C799      1.0  0.68308  0.67395  0.88760  1.0000
  H   H1278     1.0  0.68299  0.88144  0.90036  1.0000
  H   H1279     1.0  0.69093  0.85997  0.91524  1.0000
  C   C800      1.0  0.67031  0.95702  0.89782  1.0000
  H   H1280     1.0  0.67499  0.99826  0.93960  1.0000
