data_image0
_chemical_formula_structural       FeS2FeS2FeSFeS3FeS2FeS2FeSFeS3FeS2FeS2FeSFeS3FeS2FeS2FeSFeS3FeS2FeS2FeSFeS3FeS2FeS2FeSFeS3FeS2FeS2FeSFeS3FeS2FeS2FeSFeS3FeS2FeS2FeSFeS3FeS2FeS2FeSFeS3FeS2FeS2FeSFeS3FeS2FeS2FeSFeS3FeS2FeS2FeSFeS3FeS2FeS2FeSFeS3FeS2FeS2FeSFeS3FeS2FeS2FeSFeS3FeS2FeS2FeSFeS3FeS2FeS2FeSFeS3FeS2FeS2FeSFeS3FeS2FeS2FeSFeS3FeS2FeS2FeSFeS3FeS2FeS2FeSFeS3FeS2FeS2FeSFeS3FeS2FeS2FeSFeS3C6H4C6H4C6H4C6H4C6H4C6H4C6H4C6H4C6H4C6H4C6H4C6H4C6H4C6H4C6H4C6H4C6H4C6H4C6H4C6H4C6H4C6H4C6H4C6H4C6H4C6H4C6H4C6H4C6H4C6H4C6H4C6H4C6H4C6H4C6H4C6H4C6H4C6H4C6H4C6H4C6H4C6H4C6H4C6H4C6H4C6H4C6H4C6H4NC4H12NC4H12NC4H12NC4H12NC4H12NC4H12NC4H12NC4H12NC4H12NC4H12NC4H12NC4H12NC4H12NC4H12NC4H12NC4H12NC4H12NC4H12NC4H12NC4H12NC4H12NC4H12NC4H12NC4H12NC4H12NC4H12NC4H12NC4H12NC4H12NC4H12NC4H12NC4H12NC4H12NC4H12NC4H12NC4H12NC4H12NC4H12NC4H12NC4H12NC4H12NC4H12NC4H12NC4H12NC4H12NC4H12NC4H12NC4H12
_chemical_formula_sum              "Fe96 S192 C480 H768 N48"
_cell_length_a       36.34516958965415
_cell_length_b       34.73210754032302
_cell_length_c       47.81548161050723
_cell_angle_alpha    90.15076364631189
_cell_angle_beta     89.12843527501823
_cell_angle_gamma    91.07526509035377

_space_group_name_H-M_alt    "P 1"
_space_group_IT_number       1

loop_
  _space_group_symop_operation_xyz
  'x, y, z'

loop_
  _atom_site_type_symbol
  _atom_site_label
  _atom_site_symmetry_multiplicity
  _atom_site_fract_x
  _atom_site_fract_y
  _atom_site_fract_z
  _atom_site_occupancy
  Fe  Fe1       1.0  0.6651630598408266  0.6406711923166577  0.2935108143188091  1.0000
  S   S1        1.0  0.6863231820084349  0.5852653294508188  0.2763479983227846  1.0000
  S   S2        1.0  0.7056846362646784  0.6896195720110777  0.2967654205349532  1.0000
  Fe  Fe2       1.0  0.5853177115032681  0.6131714074842165  0.2928596859129723  1.0000
  S   S3        1.0  0.599718651112487  0.5554186394361688  0.27505759373738403  1.0000
  S   S4        1.0  0.5277933189564334  0.633002776698404  0.302358813983069  1.0000
  Fe  Fe3       1.0  0.6456435351086891  0.5576543875365956  0.3060692393492257  1.0000
  S   S5        1.0  0.6601393916432837  0.504109289575127  0.32967009008374465  1.0000
  Fe  Fe4       1.0  0.6389817151403542  0.5885577246555622  0.24723755990485916  1.0000
  S   S6        1.0  0.6438633018356529  0.5822739861534674  0.20074342983408816  1.0000
  S   S7        1.0  0.6282095975790354  0.6132359427450857  0.3261069188886953  1.0000
  S   S8        1.0  0.6206408545626886  0.6460590985790621  0.26221905027670983  1.0000
  Fe  Fe5       1.0  0.12732358894771426  0.21397650430531842  0.27236939538349203  1.0000
  S   S9        1.0  0.1033356226379405  0.26117445636297926  0.2984669203600493  1.0000
  S   S10       1.0  0.18820176690278795  0.20408898423295366  0.2708469149003486  1.0000
  Fe  Fe6       1.0  0.05269550329664563  0.1857057940499014  0.2519654779769772  1.0000
  S   S11       1.0  0.022192529601486655  0.23073295560440157  0.2760559273414651  1.0000
  S   S12       1.0  0.02322628395959958  0.14396215473508  0.22364984885371875  1.0000
  Fe  Fe7       1.0  0.06753380775426798  0.27092223154150774  0.2614823161876767  1.0000
  S   S13       1.0  0.05280568124603602  0.3306561319670911  0.2482024245349907  1.0000
  Fe  Fe8       1.0  0.06068036890848871  0.21669174654393822  0.3105394720523538  1.0000
  S   S14       1.0  0.04233923322499522  0.20813337894886555  0.3549272598133785  1.0000
  S   S15       1.0  0.0948757054300482  0.2269930701505415  0.2341203284896203  1.0000
  S   S16       1.0  0.08774690333322477  0.16844826049902895  0.2877307289350626  1.0000
  Fe  Fe9       1.0  0.0743032295017314  0.5635930971490876  0.31730566608069527  1.0000
  S   S17       1.0  0.02464237437881689  0.5417583039175823  0.29441574074750226  1.0000
  S   S18       1.0  0.10954222209959273  0.5235310376850265  0.34172287732831425  1.0000
  Fe  Fe10      1.0  0.06142196500049568  0.6468134614386483  0.30195220186899935  1.0000
  S   S19       1.0  0.011176314407561172  0.6327479298952746  0.2771602066117374  1.0000
  S   S20       1.0  0.08214238899093718  0.7073766227907693  0.30807783720061205  1.0000
  Fe  Fe11      1.0  0.9967364910789346  0.5932863056276529  0.31297590574978934  1.0000
  S   S21       1.0  0.9398399320965264  0.59543892390401  0.33167775360974816  1.0000
  Fe  Fe12      1.0  0.04347342371033358  0.5828810709118007  0.2608853505151722  1.0000
  S   S22       1.0  0.05286456240050286  0.5662796342271577  0.2161567662105798  1.0000
  S   S23       1.0  0.044656358521227624  0.6113202380991608  0.3391229711069157  1.0000
  S   S24       1.0  0.09535161540901615  0.6008439365126179  0.2823194666985298  1.0000
  Fe  Fe13      1.0  0.14981084464775296  0.8438855480205285  0.9675065110379389  1.0000
  S   S25       1.0  0.10367336322237529  0.8849015615547254  0.9742223041205259  1.0000
  S   S26       1.0  0.16766668899266787  0.8194073288242949  0.9260309873595658  1.0000
  Fe  Fe14      1.0  0.17805836206202827  0.8538800027250237  0.026874694092260176  1.0000
  S   S27       1.0  0.13508085200403414  0.8964553638250672  0.03869956581096168  1.0000
  S   S28       1.0  0.22186341038245405  0.838488664386088  0.05712982137236278  1.0000
  Fe  Fe15      1.0  0.09684594514589252  0.8559248612832876  0.016147377215427694  1.0000
  S   S29       1.0  0.04442388943494247  0.8339539928308896  0.03661204374911131  1.0000
  Fe  Fe16      1.0  0.14608140039246023  0.9214496338935458  0.9961582787260791  1.0000
  S   S30       1.0  0.1592354894540345  0.9833313531410928  0.986540146489143  1.0000
  S   S31       1.0  0.1394423700091727  0.8111702509281394  0.007363693418391826  1.0000
  S   S32       1.0  0.19261006676838943  0.8824876025175088  0.9864308755889748  1.0000
  Fe  Fe17      1.0  0.48957687838505703  0.8117621820426182  0.9891560392031858  1.0000
  S   S33       1.0  0.49705253875098954  0.8700451616304187  0.008899404696670832  1.0000
  S   S34       1.0  0.5388524466195495  0.7792431812082216  0.9739209948247339  1.0000
  Fe  Fe18      1.0  0.40684645970254063  0.8121663552388055  0.9957209756096265  1.0000
  S   S35       1.0  0.40671404785128423  0.8700719718234274  0.016379933721617723  1.0000
  S   S36       1.0  0.35497739831424324  0.7811600483439104  0.9835191095295808  1.0000
  Fe  Fe19      1.0  0.44845698395127304  0.8865169712801978  0.9834514597315676  1.0000
  S   S37       1.0  0.44139694144460434  0.940077712746392  0.9580994795144897  1.0000
  Fe  Fe20      1.0  0.454925224670189  0.8481904733789799  0.04000119379014566  1.0000
  S   S38       1.0  0.46177311604570564  0.8624025054054079  0.08551342141939333  1.0000
  S   S39       1.0  0.4448762562379546  0.8304036429716064  0.960744498281858  1.0000
  S   S40       1.0  0.45118442395656977  0.7882664224970539  0.022319730653087344  1.0000
  Fe  Fe21      1.0  0.6435851998050409  0.8465552428680544  0.22008415847103097  1.0000
  S   S41       1.0  0.6610370598220089  0.7935214840363088  0.19720270161609507  1.0000
  S   S42       1.0  0.6249270864261355  0.841011979299275  0.26452116624924754  1.0000
  Fe  Fe22      1.0  0.6495504604547994  0.8968499740581071  0.1694253966002439  1.0000
  S   S43       1.0  0.6676387560942776  0.8485959378787069  0.14145289571517822  1.0000
  S   S44       1.0  0.6432282300715518  0.9568414878239471  0.15308427588875648  1.0000
  Fe  Fe23      1.0  0.6239290018683907  0.8138523618718684  0.16380630258323234  1.0000
  S   S45       1.0  0.588451367626265  0.7705372982205956  0.14169057497998894  1.0000
  Fe  Fe24      1.0  0.7036410490236519  0.8322222218970439  0.17709071673784485  1.0000
  S   S46       1.0  0.7597894843378472  0.8088155616323068  0.16726543029094412  1.0000
  S   S47       1.0  0.6023567097137819  0.8635116238597872  0.18850849606084777  1.0000
  S   S48       1.0  0.6897138638336974  0.8839333781248528  0.20325996376585415  1.0000
  Fe  Fe25      1.0  0.9845010373757396  0.9140068409407607  0.17271806662884906  1.0000
  S   S49       1.0  0.0399490286282016  0.9079555881735508  0.19192475488339888  1.0000
  S   S50       1.0  0.978782529123867  0.9416193633501325  0.13077626833292058  1.0000
  Fe  Fe26      1.0  0.9435047708144898  0.8794163843553471  0.22253543452006216  1.0000
  S   S51       1.0  0.9952344286806635  0.8694305239325443  0.24603741137678145  1.0000
  S   S52       1.0  0.8889521259372759  0.868614326415831  0.24397256417423294  1.0000
  Fe  Fe27      1.0  0.011969407012842437  0.9285697385286886  0.2312347141677557  1.0000
  S   S53       1.0  0.03521486497803927  0.9708176524786889  0.26232313023572357  1.0000
  Fe  Fe28      1.0  0.01824914183545112  0.8497162589687586  0.20475462109854226  1.0000
  S   S54       1.0  0.0494854866735257  0.7957170760954964  0.1965746591871782  1.0000
  S   S55       1.0  0.9582984364931816  0.9400924111065193  0.21078664478380038  1.0000
  S   S56       1.0  0.9646868807628115  0.8540410839572362  0.18248833612584803  1.0000
  Fe  Fe29      1.0  0.5909158437617608  0.10577082525856807  0.255864296683412  1.0000
  S   S57       1.0  0.6483496904308782  0.1196702530569342  0.24061239639509374  1.0000
  S   S58       1.0  0.5522290895345571  0.06410797269695423  0.23473318042950855  1.0000
  Fe  Fe30      1.0  0.6002975912500668  0.14968626117764275  0.310202858654361  1.0000
  S   S59       1.0  0.6585264350433317  0.1663279152135344  0.2997747660365998  1.0000
  S   S60       1.0  0.5764246103186964  0.1732215782011198  0.3500446933679952  1.0000
  Fe  Fe31      1.0  0.6372559996743583  0.17894591246128647  0.2571728819402747  1.0000
  S   S61       1.0  0.6572208426438213  0.2355599735676428  0.23964492641009502  1.0000
  Fe  Fe32      1.0  0.6637297343771501  0.10590923599325963  0.28452999321287314  1.0000
  S   S62       1.0  0.7129711673237358  0.0704301580491975  0.29324024804751603  1.0000
  S   S63       1.0  0.5781849661728582  0.1665211328625985  0.26859187105871163  1.0000
  S   S64       1.0  0.6071865079154836  0.08772411476970388  0.29882411745789395  1.0000
  Fe  Fe33      1.0  0.3877877248604632  0.5225264269200869  0.3952677004123069  1.0000
  S   S65       1.0  0.370867933088403  0.5106115186045085  0.43978826262701654  1.0000
  S   S66       1.0  0.445372019076534  0.5113519487215963  0.3799243873316062  1.0000
  Fe  Fe34      1.0  0.31049615016574106  0.5408402115408515  0.3775280876914399  1.0000
  S   S67       1.0  0.286606031583594  0.5301791808779249  0.42032944537835326  1.0000
  S   S68       1.0  0.2803066482107073  0.5610652871297005  0.33964171266095294  1.0000
  Fe  Fe35      1.0  0.33618606293370623  0.5627976917486937  0.4354633342866203  1.0000
  S   S69       1.0  0.3247425760467586  0.6058793820444308  0.46941872683105595  1.0000
  Fe  Fe36      1.0  0.32302483137432275  0.4787705203403478  0.42106609439550613  1.0000
  S   S70       1.0  0.3028084769357205  0.4232864385272125  0.44075753816063973  1.0000
  S   S71       1.0  0.3574733865054914  0.5779473645979689  0.3924755444933476  1.0000
  S   S72       1.0  0.34250811943598963  0.4863825258883383  0.3767191665582405  1.0000
  Fe  Fe37      1.0  0.3012230449793185  0.15605202599440945  0.39981627940421166  1.0000
  S   S73       1.0  0.3096526562234656  0.20423882164378995  0.43044572192309705  1.0000
  S   S74       1.0  0.24288972288791252  0.14333878424656285  0.38689820990250284  1.0000
  Fe  Fe38      1.0  0.381828696342097  0.1346810664982802  0.40000214192075634  1.0000
  S   S75       1.0  0.3968611128703653  0.18056691827116608  0.43115707675535786  1.0000
  S   S76       1.0  0.42306166205959694  0.09450755779460507  0.38052894327226766  1.0000
  Fe  Fe39      1.0  0.34451328790095004  0.16249262583611523  0.4534026533394543  1.0000
  S   S77       1.0  0.33937121533827735  0.16234288115943535  0.5004558911507175  1.0000
  Fe  Fe40      1.0  0.360866186400741  0.21800474710795018  0.40555527523196183  1.0000
  S   S78       1.0  0.38006592322626837  0.2765016521516678  0.3905380231479793  1.0000
  S   S79       1.0  0.3323820475401893  0.11300368948916018  0.4245411847071916  1.0000
  S   S80       1.0  0.34941848659543756  0.1733931874481759  0.3725871284099763  1.0000
  Fe  Fe41      1.0  0.30154791595900143  0.012218230390643514  0.6097017770907516  1.0000
  S   S81       1.0  0.25674657411472923  0.9921513379898521  0.6395455023927492  1.0000
  S   S82       1.0  0.29864912968967894  0.007126638437063626  0.5628134381066261  1.0000
  Fe  Fe42      1.0  0.35478393912935535  0.03294842212862936  0.6559622129383833  1.0000
  S   S83       1.0  0.314938468613435  0.015175827264837904  0.6898216687600751  1.0000
  S   S84       1.0  0.4132585535537143  0.05309014879747265  0.6622307312129497  1.0000
  Fe  Fe43      1.0  0.30236258359329365  0.9641802283680068  0.6626592475583588  1.0000
  S   S85       1.0  0.29998355843328117  0.9064461390846646  0.683940099557207  1.0000
  Fe  Fe44      1.0  0.27308262005999107  0.044764663764504276  0.6641111700745571  1.0000
  S   S86       1.0  0.2339629391991997  0.08469717483215655  0.6854544948955221  1.0000
  S   S87       1.0  0.3458779536089648  0.9793529394770368  0.6307226444864659  1.0000
  S   S88       1.0  0.3142001664266373  0.06732347993974819  0.6324357295562985  1.0000
  Fe  Fe45      1.0  0.38038008214502333  0.6327248954016202  0.6181752580333599  1.0000
  S   S89       1.0  0.33135299731758877  0.6688551510038178  0.6100586606055308  1.0000
  S   S90       1.0  0.40368901532021667  0.5927291313175974  0.5852488754838395  1.0000
  Fe  Fe46      1.0  0.3913888466650952  0.6673717941108345  0.6757912128118692  1.0000
  S   S91       1.0  0.3424334558062119  0.7054529479734208  0.6723447447228925  1.0000
  S   S92       1.0  0.4246930910101684  0.6791523355315884  0.7142147684608419  1.0000
  Fe  Fe47      1.0  0.31448739116619073  0.653779361705109  0.6539118952589235  1.0000
  S   S93       1.0  0.2543703425804095  0.6405878847437683  0.6609863260269876  1.0000
  Fe  Fe48      1.0  0.3637102789249481  0.7171926343516642  0.6290847500384193  1.0000
  S   S94       1.0  0.3633874566547673  0.7745251109735708  0.6073229207426389  1.0000
  S   S95       1.0  0.3613944348195123  0.6138978744774641  0.6611710471350362  1.0000
  S   S96       1.0  0.4147188406760258  0.6827723934461566  0.6334816859461496  1.0000
  Fe  Fe49      1.0  0.8342230950869824  0.9882071255689636  0.6453812344002545  1.0000
  S   S97       1.0  0.8564631095467398  0.993336229456143  0.688647875552711  1.0000
  S   S98       1.0  0.8234483738295779  0.9340143368650098  0.6206451922661955  1.0000
  Fe  Fe50      1.0  0.8228871062731561  0.07425282480729622  0.6406212013313215  1.0000
  S   S99       1.0  0.8444904147298562  0.08718507802075992  0.6835520899745346  1.0000
  S   S100      1.0  0.7977442482245313  0.11627812123700587  0.6111050860161688  1.0000
  Fe  Fe51      1.0  0.888042136686766  0.044560432137283446  0.6720236039243769  1.0000
  S   S101      1.0  0.9485708947180281  0.04765115699904254  0.6809956045224994  1.0000
  Fe  Fe52      1.0  0.8110620914826492  0.03492984131007981  0.696495027596485  1.0000
  S   S102      1.0  0.7800363799406074  0.02964001130216909  0.73754000750524  1.0000
  S   S103      1.0  0.8693159610654322  0.03616643593341684  0.6278522570699382  1.0000
  S   S104      1.0  0.7859579804612604  0.025383546646605026  0.6545365723425558  1.0000
  Fe  Fe53      1.0  0.8194296733908322  0.7303596665211145  0.6767420625960013  1.0000
  S   S105      1.0  0.8007597775693444  0.6861010978535691  0.7079944924759365  1.0000
  S   S106      1.0  0.8402183786074978  0.7863057553291767  0.6948696000132994  1.0000
  Fe  Fe54      1.0  0.8117870170311048  0.6748180706692433  0.6281253660867512  1.0000
  S   S107      1.0  0.793069114092065  0.625630315938113  0.6555427556501239  1.0000
  S   S108      1.0  0.8159546019703787  0.6701703895847694  0.5811503596035724  1.0000
  Fe  Fe55      1.0  0.7578463790821275  0.6695914825057807  0.6768165887193048  1.0000
  S   S109      1.0  0.6990070423596934  0.6524070082681388  0.6873271060484039  1.0000
  Fe  Fe56      1.0  0.8375778612010164  0.6464008659292614  0.6842255499677016  1.0000
  S   S110      1.0  0.8716848508891075  0.6082295186041817  0.7111476490944578  1.0000
  S   S111      1.0  0.7730971641052149  0.7176521150204767  0.647318517418216  1.0000
  S   S112      1.0  0.8595215519514215  0.6919698973092592  0.6550003877132341  1.0000
  Fe  Fe57      1.0  0.8745700770524703  0.10913817079021948  0.39835644785500224  1.0000
  S   S113      1.0  0.8521041715717136  0.07600066877848444  0.4352521887749477  1.0000
  S   S114      1.0  0.9123505075674186  0.08636864763908414  0.3648518479811777  1.0000
  Fe  Fe58      1.0  0.8314928363909425  0.1808756878639602  0.4125027535122797  1.0000
  S   S115      1.0  0.805336794350692  0.1549414324719396  0.450937758629974  1.0000
  S   S116      1.0  0.8224284762071895  0.23937536289847078  0.3945982546845907  1.0000
  Fe  Fe59      1.0  0.8612943694144908  0.13137136863773335  0.4587950267709877  1.0000
  S   S117      1.0  0.8912178767768758  0.13368110957364654  0.49953456250719547  1.0000
  Fe  Fe60      1.0  0.7983611641258214  0.10225421590683692  0.4241363620610076  1.0000
  S   S118      1.0  0.7436197346800558  0.0719772506884171  0.4223686284271884  1.0000
  S   S119      1.0  0.888258803059482  0.16249092267806697  0.422724199031418  1.0000
  S   S120      1.0  0.8199101951670966  0.13043792317210465  0.3850229010773207  1.0000
  Fe  Fe61      1.0  0.8415245961823775  0.48819632730100254  0.49828340138492067  1.0000
  S   S121      1.0  0.7819445222136352  0.47055948619307225  0.49907025417285733  1.0000
  S   S122      1.0  0.8715653522605721  0.5104017980166125  0.5358817244556141  1.0000
  Fe  Fe62      1.0  0.8531918201317638  0.46192750703368124  0.4384337074105156  1.0000
  S   S123      1.0  0.7945120092897092  0.4423338691283285  0.43331331043730764  1.0000
  S   S124      1.0  0.8997482423712413  0.45209640136537377  0.4080030295325282  1.0000
  Fe  Fe63      1.0  0.7808713245856063  0.496800881793916  0.4562774916953776  1.0000
  S   S125      1.0  0.7355056889018177  0.5372532771941733  0.4458210622533868  1.0000
  Fe  Fe64      1.0  0.8003099110422183  0.41764445826351754  0.4763373936695208  1.0000
  S   S126      1.0  0.7793357971109958  0.3587010082958976  0.48838992798547654  1.0000
  S   S127      1.0  0.839278900068984  0.5191221722715401  0.4574074086525147  1.0000
  S   S128      1.0  0.8600728475177738  0.43263472785222823  0.4796007197118319  1.0000
  Fe  Fe65      1.0  0.5617013594392886  0.9964972820272191  0.8333087279144  1.0000
  S   S129      1.0  0.6129251583233442  0.022380827302280082  0.8136885112577364  1.0000
  S   S130      1.0  0.567407894639155  0.9508517481675716  0.8660813257023565  1.0000
  Fe  Fe66      1.0  0.511126428751889  0.04305107166010447  0.7976701601330068  1.0000
  S   S131      1.0  0.5576678133120027  0.07296944993729504  0.7749956789551777  1.0000
  S   S132      1.0  0.45196246095135395  0.05683207191711537  0.7903970234331589  1.0000
  Fe  Fe67      1.0  0.5828590775677879  0.014591436061705432  0.7734338885023153  1.0000
  S   S133      1.0  0.6092831555596052  0.9953556919502764  0.7331323059838701  1.0000
  Fe  Fe68      1.0  0.583322037575698  0.0781824841507257  0.8170550329069264  1.0000
  S   S134      1.0  0.6103812459352096  0.13510971244173386  0.8273275363966281  1.0000
  S   S135      1.0  0.5338903564245033  0.9838739782966238  0.7926233865354981  1.0000
  S   S136      1.0  0.5344541719264861  0.05316382332089398  0.8401880888629012  1.0000
  Fe  Fe69      1.0  0.0692667389660504  0.06656806052123398  0.8611352456384271  1.0000
  S   S137      1.0  0.059696851939508036  0.1291631042990784  0.8534155771288087  1.0000
  S   S138      1.0  0.044487546649403915  0.034529610659718823  0.8975972627995897  1.0000
  Fe  Fe70      1.0  0.10844861355766194  0.05472342194102042  0.8058570442307212  1.0000
  S   S139      1.0  0.10172627575851526  0.11613471356158946  0.7927352942632593  1.0000
  S   S140      1.0  0.13585404109294316  0.008757936839549174  0.7802640428157884  1.0000
  Fe  Fe71      1.0  0.1177010667078739  0.13019184718297336  0.8367885653859366  1.0000
  S   S141      1.0  0.1583057319601891  0.1793680768067857  0.8417628340343579  1.0000
  Fe  Fe72      1.0  0.04455974450922163  0.1100515891440379  0.810234904240166  1.0000
  S   S142      1.0  0.9978142031419308  0.13891127711728313  0.7887710354912278  1.0000
  S   S143      1.0  0.12902501687574705  0.06903698369794786  0.8485514976421631  1.0000
  S   S144      1.0  0.04943042428573974  0.04711297233281808  0.8192436123593185  1.0000
  Fe  Fe73      1.0  0.067707622373256  0.717254608184338  0.8134543003748128  1.0000
  S   S145      1.0  0.0276208698246172  0.6719495896602182  0.7987976607636268  1.0000
  S   S146      1.0  0.04706903554511199  0.7669349365635886  0.8391939570687087  1.0000
  Fe  Fe74      1.0  0.13327540897162293  0.6777657009870831  0.7871003392752935  1.0000
  S   S147      1.0  0.0993874200583999  0.6286052800855843  0.770295086157176  1.0000
  S   S148      1.0  0.1948492907391451  0.6815559830455452  0.7816822988950037  1.0000
  Fe  Fe75      1.0  0.05975399946223714  0.6742233553229918  0.7584570471138442  1.0000
  S   S149      1.0  0.03434261955244278  0.6750745740576238  0.715886620899909  1.0000
  Fe  Fe76      1.0  0.07036606732291474  0.6302278787745224  0.8119668691765128  1.0000
  S   S150      1.0  0.05452040823418658  0.5756074241725346  0.8344308372373734  1.0000
  S   S151      1.0  0.09618874971713787  0.723736605583996  0.7717369372000988  1.0000
  S   S152      1.0  0.10789578115791008  0.6751952858235857  0.8301966783074448  1.0000
  Fe  Fe77      1.0  0.6894689276760038  0.40025703292524695  0.12825471744798217  1.0000
  S   S153      1.0  0.7043679792419739  0.34114761303306496  0.11362960429692312  1.0000
  S   S154      1.0  0.7151617373965944  0.4240763109493127  0.16722111825636926  1.0000
  Fe  Fe78      1.0  0.6378779892163583  0.41286125370830856  0.08052664218245338  1.0000
  S   S155      1.0  0.6475830859377728  0.3546412831242503  0.06195154357696121  1.0000
  S   S156      1.0  0.6023288405999584  0.45146702132456945  0.05574011899309572  1.0000
  Fe  Fe79      1.0  0.6437550868356304  0.3337598842481928  0.10613722547082127  1.0000
  S   S157      1.0  0.6116151599185525  0.2796859352770224  0.1170017634108367  1.0000
  Fe  Fe80      1.0  0.7066712319890552  0.36742379025159494  0.07097730755032677  1.0000
  S   S158      1.0  0.7507233809635816  0.35940480987799406  0.038412980977490234  1.0000
  S   S159      1.0  0.6284981218963702  0.39107138163334426  0.12425694210484825  1.0000
  S   S160      1.0  0.6974361204101531  0.4274967848066858  0.08614567677399641  1.0000
  Fe  Fe81      1.0  0.9330031116643617  0.35107845966538637  0.09648399194788349  1.0000
  S   S161      1.0  0.9186091608168565  0.4117119203566709  0.08619716325306677  1.0000
  S   S162      1.0  0.8911649561429377  0.3033420774579763  0.10102173267082046  1.0000
  Fe  Fe82      1.0  0.012992963876453434  0.37215867370008304  0.10624119448339266  1.0000
  S   S163      1.0  0.005790505336069396  0.4346536137967657  0.09684708559709695  1.0000
  S   S164      1.0  0.06704354042836846  0.34716715282481914  0.11795042613284089  1.0000
  Fe  Fe83      1.0  0.9536365440391915  0.4280843104924489  0.12262010605417308  1.0000
  S   S165      1.0  0.9302081746402524  0.4654952360717054  0.15680837936112346  1.0000
  Fe  Fe84      1.0  0.9714116449685688  0.41248559542698965  0.06147060801959983  1.0000
  S   S166      1.0  0.9731588586961575  0.43342252747971505  0.017147918403394025  1.0000
  S   S167      1.0  0.9637548479536195  0.3671321602139668  0.13482181639052648  1.0000
  S   S168      1.0  0.9830066614634672  0.3500865163066294  0.0687900159625147  1.0000
  Fe  Fe85      1.0  0.5157858561946203  0.2637015509479799  0.9309495755564061  1.0000
  S   S169      1.0  0.46015013600367544  0.28215594507467373  0.9458660880659632  1.0000
  S   S170      1.0  0.527858340301676  0.200739438906254  0.9332383653495041  1.0000
  Fe  Fe86      1.0  0.5436676698921699  0.3453338178583749  0.922400370207845  1.0000
  S   S171      1.0  0.4907195404531523  0.37149607733883905  0.9368593404265654  1.0000
  S   S172      1.0  0.5933493309960514  0.3797646795524282  0.9082668867139123  1.0000
  Fe  Fe87      1.0  0.4914463594569026  0.3264981567808373  0.9703493966384166  1.0000
  S   S173      1.0  0.48020797609651883  0.33481482547638547  0.01606903758949363  1.0000
  Fe  Fe88      1.0  0.46411467271732343  0.3252710315152179  0.9110050985076517  1.0000
  S   S174      1.0  0.41778839213752766  0.3414510569893969  0.8829788712159926  1.0000
  S   S175      1.0  0.5470048604130249  0.3046231544334193  0.9583193261772945  1.0000
  S   S176      1.0  0.5170610653608658  0.30250800946682377  0.8934652470914739  1.0000
  Fe  Fe89      1.0  0.14828129393487607  0.3678179831756109  0.9193602889368812  1.0000
  S   S177      1.0  0.17253907802752438  0.38301638601610544  0.9607023171004383  1.0000
  S   S178      1.0  0.1100926858847884  0.3160474599484635  0.9204977974899887  1.0000
  Fe  Fe90      1.0  0.18506303375578062  0.4362456942397673  0.8909333503143649  1.0000
  S   S179      1.0  0.21272794573761825  0.45684812694225596  0.9299823715978677  1.0000
  S   S180      1.0  0.192994811603869  0.4723058640121766  0.8523874787398844  1.0000
  Fe  Fe91      1.0  0.22461008484175804  0.3944756674516337  0.9363648092141156  1.0000
  S   S181      1.0  0.2748766747946065  0.37080875039867917  0.9562306714609821  1.0000
  Fe  Fe92      1.0  0.1582301346953723  0.44359058339705604  0.9505417321953554  1.0000
  S   S182      1.0  0.13494639698816302  0.48299707340286335  0.9833922702585797  1.0000
  S   S183      1.0  0.20172034199115  0.37454762791106205  0.8954704278730801  1.0000
  S   S184      1.0  0.12938898635743715  0.42774735114614965  0.91105752664964  1.0000
  Fe  Fe93      1.0  0.542575240499899  0.658487583019683  0.8458828580521965  1.0000
  S   S185      1.0  0.591617799387994  0.6417155451966391  0.8704305569325683  1.0000
  S   S186      1.0  0.5124061700356712  0.7133845115594625  0.8529444279305992  1.0000
  Fe  Fe94      1.0  0.5401280091594455  0.5840205898896716  0.813175733308071  1.0000
  S   S187      1.0  0.5891144835314237  0.5598906832990957  0.8345868925657477  1.0000
  S   S188      1.0  0.5089578154713919  0.5520249016321679  0.7798707297694616  1.0000
  Fe  Fe95      1.0  0.5634432066405178  0.5840182962916869  0.8738049187866513  1.0000
  S   S189      1.0  0.5563127387413042  0.5554010263197041  0.9157496028471775  1.0000
  Fe  Fe96      1.0  0.6133512336884336  0.619445907565909  0.8294002515906757  1.0000
  S   S190      1.0  0.6720851395904133  0.6327087140986654  0.8170439888456777  1.0000
  S   S191      1.0  0.5121364076634748  0.6026431788382551  0.8527840804576068  1.0000
  S   S192      1.0  0.5666970733792748  0.6416521924620093  0.8043933099507242  1.0000
  C   C1        1.0  0.5705564659724829  0.5075649886142397  0.9158229607747379  1.0000
  C   C2        1.0  0.5954546791268372  0.49436242443000467  0.8955724575558788  1.0000
  C   C3        1.0  0.6036819989839973  0.45515332323647567  0.8940885716468738  1.0000
  C   C4        1.0  0.5864597154643603  0.42910514850081233  0.9125357167283068  1.0000
  C   C5        1.0  0.5628450242533857  0.44254614171147777  0.9335744106552202  1.0000
  C   C6        1.0  0.5551170287185104  0.4818298466354343  0.9353691336631209  1.0000
  H   H1        1.0  0.6083759944304122  0.5143097103474841  0.8810371016906238  1.0000
  H   H2        1.0  0.6223816856680022  0.44485661667276055  0.8780227921508181  1.0000
  H   H3        1.0  0.550469274496354  0.42271258592835037  0.948474068950349  1.0000
  H   H4        1.0  0.5361892692930589  0.49201423910743725  0.9513231203474198  1.0000
  C   C7        1.0  0.3783484463754623  0.35182059056040704  0.9031358539697039  1.0000
  C   C8        1.0  0.3786694299436561  0.34702541080847865  0.9321300169626836  1.0000
  C   C9        1.0  0.34686311035124895  0.3535911753797066  0.9481808737508306  1.0000
  C   C10       1.0  0.31473568703960303  0.3658045015541868  0.9354483186475205  1.0000
  C   C11       1.0  0.3145568210221883  0.3718282132548933  0.9065040573706372  1.0000
  C   C12       1.0  0.3463128096975129  0.3644777822310544  0.8903076142836289  1.0000
  H   H5        1.0  0.4033596261718394  0.3380720302477173  0.9423150701275153  1.0000
  H   H6        1.0  0.34722722123260574  0.349233819104974  0.9705868073129846  1.0000
  H   H7        1.0  0.28990700423774  0.38167069021610966  0.8965830301965269  1.0000
  H   H8        1.0  0.3460387236439875  0.3685325684604336  0.8678898231484647  1.0000
  C   C13       1.0  0.01625075808181875  0.45204986617998133  0.00670620247694842  1.0000
  C   C14       1.0  0.029712100303843858  0.44387597620197955  0.9798281124422183  1.0000
  C   C15       1.0  0.0658772807816368  0.4543926565306196  0.9722234463259334  1.0000
  C   C16       1.0  0.0883958090809356  0.47375148961891167  0.9913008656449057  1.0000
  C   C17       1.0  0.07404130529333441  0.48447570033720494  0.017449803537994413  1.0000
  C   C18       1.0  0.038139429793513806  0.47305452957484045  0.025349489782881207  1.0000
  H   H9        1.0  0.012633503158894888  0.4280082319134946  0.9652682478297321  1.0000
  H   H10       1.0  0.076388331069557  0.446807159346974  0.9517994874205424  1.0000
  H   H11       1.0  0.0912195061917138  0.5000207676391977  0.03211678183628064  1.0000
  H   H12       1.0  0.02751917713846463  0.4802111293785432  0.04591803215293022  1.0000
  C   C19       1.0  0.5640552645103789  0.42326784515406607  0.0465742619604963  1.0000
  C   C20       1.0  0.5472496386706962  0.42860367796800675  0.020791292765850677  1.0000
  C   C21       1.0  0.520645414980326  0.4019176074188888  0.01155825884628614  1.0000
  C   C22       1.0  0.5095633941354254  0.37114077155339686  0.02873742862218598  1.0000
  C   C23       1.0  0.5245366327919575  0.36749959226567047  0.055344681223809866  1.0000
  C   C24       1.0  0.5524669190788439  0.39293491833662136  0.06394310744457488  1.0000
  H   H13       1.0  0.5558538600694904  0.4523623228226189  0.007488451925601769  1.0000
  H   H14       1.0  0.5086119717811203  0.4052298990538402  0.9912239376954676  1.0000
  H   H15       1.0  0.5157073261257732  0.3441428727498767  0.06889004308362034  1.0000
  H   H16       1.0  0.5651260741077709  0.38895968809660164  0.08401219159861695  1.0000
  C   C25       1.0  0.7899166872449768  0.3401817601205936  0.05366764110532518  1.0000
  C   C26       1.0  0.8249149646604761  0.3532963449921309  0.04510324361822282  1.0000
  C   C27       1.0  0.856223363696761  0.340925390566749  0.059042819663768065  1.0000
  C   C28       1.0  0.8526260985619513  0.31505602840381647  0.081344038523938  1.0000
  C   C29       1.0  0.8177478377534563  0.300839653327909  0.08925047631358095  1.0000
  C   C30       1.0  0.7864015501235023  0.31350471661767515  0.075477336039089  1.0000
  H   H17       1.0  0.8278045386713381  0.3737612238226901  0.028146693521577056  1.0000
  H   H18       1.0  0.8831685542884953  0.3514183023174854  0.05245624160823348  1.0000
  H   H19       1.0  0.8148625543210305  0.28069024424825456  0.10639781743082906  1.0000
  H   H20       1.0  0.7595499802848764  0.3023909328744317  0.08162707713392076  1.0000
  C   C31       1.0  0.09292640682229536  0.5469088953976325  0.8393843610157709  1.0000
  C   C32       1.0  0.08810301781773444  0.5080603842220456  0.846468136449532  1.0000
  C   C33       1.0  0.11880822468730222  0.4849261638423657  0.8504156790655366  1.0000
  C   C34       1.0  0.1543201350684514  0.5008154570343816  0.8477695992106022  1.0000
  C   C35       1.0  0.15906054729577887  0.5398732439300812  0.8414036150143203  1.0000
  C   C36       1.0  0.12842538569439582  0.5628693710659213  0.8369847701281687  1.0000
  H   H21       1.0  0.06062943515327991  0.49569343208603067  0.8483840332145427  1.0000
  H   H22       1.0  0.11496910635484997  0.4546202294673907  0.8548795363026941  1.0000
  H   H23       1.0  0.18641243797401744  0.5524714409169459  0.8404485567917029  1.0000
  H   H24       1.0  0.13227557750721397  0.5930427116811604  0.8320318498694713  1.0000
  C   C37       1.0  0.14397916474111522  0.21707592162776768  0.863450413177442  1.0000
  C   C38       1.0  0.11750497896263408  0.21096231537716748  0.8845701868777246  1.0000
  C   C39       1.0  0.1068374304967275  0.24163729728828828  0.9018647898226566  1.0000
  C   C40       1.0  0.12253976212656086  0.2784175043916274  0.8979843565155662  1.0000
  C   C41       1.0  0.14840694408214705  0.28460631982834944  0.8764771447308043  1.0000
  C   C42       1.0  0.15932560712226781  0.2539249345944074  0.8593787959501521  1.0000
  H   H25       1.0  0.10590707190320632  0.18243510945790908  0.8880290332226991  1.0000
  H   H26       1.0  0.08679783081818893  0.23671548462818467  0.9185156770621606  1.0000
  H   H27       1.0  0.1597458064150807  0.31308923268230426  0.8727892909837018  1.0000
  H   H28       1.0  0.1794847666674049  0.2587947025765084  0.8427984557008601  1.0000
  C   C43       1.0  0.5920435612894157  0.15361026911596978  0.8585985802036847  1.0000
  C   C44       1.0  0.5770628374732877  0.1286967755964361  0.8788370627463463  1.0000
  C   C45       1.0  0.5586436550778344  0.14352248085993263  0.902324208947752  1.0000
  C   C46       1.0  0.5551390729868673  0.18331480429438016  0.9056391658156507  1.0000
  C   C47       1.0  0.5713799333741013  0.2083667444154788  0.8859637515381454  1.0000
  C   C48       1.0  0.5898951429629747  0.19348998001617643  0.8624450353683549  1.0000
  H   H29       1.0  0.579747313397434  0.09793262421771785  0.876481529146934  1.0000
  H   H30       1.0  0.546478036673267  0.12406650599074324  0.9176686345784694  1.0000
  H   H31       1.0  0.5692410201701007  0.23913746223281304  0.8886327056953285  1.0000
  H   H32       1.0  0.6015860105013869  0.21287278145102262  0.8468717215945554  1.0000
  C   C49       1.0  0.8089225569875605  0.2725818645634558  0.4201489168668647  1.0000
  C   C50       1.0  0.8213409509741134  0.31081302016518214  0.4181151840046399  1.0000
  C   C51       1.0  0.8123937016303518  0.3372783779939457  0.43915235495619487  1.0000
  C   C52       1.0  0.789894998548287  0.3259309288809972  0.4617357036290243  1.0000
  C   C53       1.0  0.776579815234399  0.28792614105168285  0.46338160152359315  1.0000
  C   C54       1.0  0.7863410555645467  0.2611364765088331  0.44269225036403637  1.0000
  H   H33       1.0  0.8384110175396661  0.3199914662406255  0.4005521320143928  1.0000
  H   H34       1.0  0.8232160810212941  0.3663970574829723  0.43792814733118496  1.0000
  H   H35       1.0  0.7588246038795072  0.2792550696456484  0.4807054920746842  1.0000
  H   H36       1.0  0.7760530389645318  0.23185634988273532  0.44409485020590894  1.0000
  C   C55       1.0  0.6902440954625166  0.6485065232659549  0.7233383910304868  1.0000
  C   C56       1.0  0.709454039096825  0.6717063452502339  0.7422814869857148  1.0000
  C   C57       1.0  0.7034629273616038  0.66701900555482  0.7711090643698113  1.0000
  C   C58       1.0  0.6774340313523206  0.6399474844256063  0.7810075851129283  1.0000
  C   C59       1.0  0.6574074432353876  0.6174574975111632  0.7620686360051696  1.0000
  C   C60       1.0  0.6641491699329287  0.6214399966988932  0.7332360580225915  1.0000
  H   H37       1.0  0.7289758563918181  0.6932551958761014  0.7347429316491945  1.0000
  H   H38       1.0  0.7188139887551703  0.6845825140866438  0.7857717847072591  1.0000
  H   H39       1.0  0.6376320094346601  0.5961372466820571  0.7697192804672086  1.0000
  H   H40       1.0  0.6497663623385842  0.6029424913314126  0.7186307210191395  1.0000
  C   C61       1.0  0.9181803243551179  0.6231721364619837  0.7114140731542387  1.0000
  C   C62       1.0  0.9339067108942921  0.6425501232940248  0.6884689436319776  1.0000
  C   C63       1.0  0.9700068185399818  0.6573492004766679  0.6897288545962941  1.0000
  C   C64       1.0  0.9906500036986379  0.6527233317885641  0.7139147781632649  1.0000
  C   C65       1.0  0.9754150115738299  0.632196656974178  0.7365710898408455  1.0000
  C   C66       1.0  0.9392561302513238  0.6172949230643141  0.7352750347878089  1.0000
  H   H41       1.0  0.9184577086025963  0.6457701819819325  0.6695692084274224  1.0000
  H   H42       1.0  0.9818197567367376  0.6727451776577733  0.6720056601588742  1.0000
  H   H43       1.0  0.9914421092123172  0.6277592882809531  0.755084795250926  1.0000
  H   H44       1.0  0.9274483643527647  0.6018934050778411  0.7529821602033427  1.0000
  C   C67       1.0  0.8358559929253284  0.6276174297396132  0.5687933925856641  1.0000
  C   C68       1.0  0.8470343304559476  0.5991765956954734  0.5872911933197714  1.0000
  C   C69       1.0  0.8589332342685674  0.5635833785178376  0.5769322581795796  1.0000
  C   C70       1.0  0.8586963335638395  0.5559599167154877  0.5481515716627503  1.0000
  C   C71       1.0  0.8483101642038925  0.5847153940082332  0.5295911539537378  1.0000
  C   C72       1.0  0.8378366235661964  0.6208380459874769  0.5399196647655035  1.0000
  H   H45       1.0  0.846229622571247  0.6044260401416383  0.6095851583680366  1.0000
  H   H46       1.0  0.8674112676482447  0.5415757328661248  0.5913381692303129  1.0000
  H   H47       1.0  0.8484153904330396  0.5792540001481463  0.507337384900054  1.0000
  H   H48       1.0  0.8302148986323076  0.6432959205600581  0.525603888587684  1.0000
  C   C73       1.0  0.9589542988609796  0.07126772897813205  0.712433886818047  1.0000
  C   C74       1.0  0.9420122356484179  0.10574587744361019  0.7198299521005298  1.0000
  C   C75       1.0  0.9535607255484673  0.12621083049375326  0.7436286202282427  1.0000
  C   C76       1.0  0.9818238023545929  0.11204622964208344  0.7601117516147545  1.0000
  C   C77       1.0  0.9979603683846048  0.07705502230763317  0.7530909608683624  1.0000
  C   C78       1.0  0.986503502972349  0.05669211514410133  0.7293141208340205  1.0000
  H   H49       1.0  0.9207939110468859  0.11718463290015158  0.7067776197157869  1.0000
  H   H50       1.0  0.9408980587336941  0.15321074635070553  0.749049605699684  1.0000
  H   H51       1.0  0.01947597764842879  0.06580928969602096  0.7658424178102298  1.0000
  H   H52       1.0  0.9989186315361794  0.029541066708912433  0.7239797756890903  1.0000
  C   C79       1.0  0.7328477302082935  0.01900228891881417  0.7354498297969619  1.0000
  C   C80       1.0  0.7134170674847632  0.026072383592423698  0.7110457451657675  1.0000
  C   C81       1.0  0.6754939948245071  0.017898185437621894  0.7101466998725591  1.0000
  C   C82       1.0  0.6569358222953225  0.0031519770543531056  0.7337713004650677  1.0000
  C   C83       1.0  0.676500679214154  0.9955095742339239  0.7580086486233595  1.0000
  C   C84       1.0  0.7143565012654838  0.0035813193959697287  0.7588835268161899  1.0000
  H   H53       1.0  0.7272696977489476  0.0387436323692123  0.6930958638983429  1.0000
  H   H54       1.0  0.6603388761145976  0.02394123255791336  0.691390261822684  1.0000
  H   H55       1.0  0.6624702115616323  0.9831875033934939  0.7760513284454151  1.0000
  H   H56       1.0  0.7293089074249398  0.9978405384745351  0.777786481611342  1.0000
  C   C85       1.0  0.8237455033715804  0.1223115581587404  0.5802636542925382  1.0000
  C   C86       1.0  0.805924015147261  0.12874320071282375  0.5549706860159774  1.0000
  C   C87       1.0  0.8263225868634126  0.13139750737415357  0.5298785360429048  1.0000
  C   C88       1.0  0.864680033174583  0.12872793531590604  0.5302233402529242  1.0000
  C   C89       1.0  0.8824524408688221  0.12271126860851143  0.5555560453192484  1.0000
  C   C90       1.0  0.8619874064201661  0.11904008540918366  0.5805052175174724  1.0000
  H   H57       1.0  0.7762476555265443  0.130835342706062  0.554747293600827  1.0000
  H   H58       1.0  0.8123461228237395  0.1356152675003257  0.5103921020322338  1.0000
  H   H59       1.0  0.912131856291277  0.12065354582820031  0.5558914838972856  1.0000
  H   H60       1.0  0.8758751281841359  0.11429200880794133  0.6000212931401737  1.0000
  C   C91       1.0  0.8321740271646182  0.8916460380786073  0.6390973038267018  1.0000
  C   C92       1.0  0.8147008091121294  0.8570689293532217  0.6312834682365912  1.0000
  C   C93       1.0  0.8184617429799884  0.8238746315378811  0.6476049785539697  1.0000
  C   C94       1.0  0.839531623298441  0.8253828674369572  0.6718188358519491  1.0000
  C   C95       1.0  0.8580430965271268  0.8595902172957358  0.6790439115621204  1.0000
  C   C96       1.0  0.8546922691870554  0.8925382330233724  0.662515787218116  1.0000
  H   H61       1.0  0.797510764573063  0.8561400211476785  0.6130073345138578  1.0000
  H   H62       1.0  0.8042295028103655  0.7974974928968364  0.6418579084546305  1.0000
  H   H63       1.0  0.8746252472234611  0.8608117617713036  0.6976318694152321  1.0000
  H   H64       1.0  0.8693250738147368  0.9186900165109  0.6680688518934477  1.0000
  C   C97       1.0  0.4428205780079094  0.6410490929689365  0.733318109158935  1.0000
  C   C98       1.0  0.4473029393368229  0.6044023376591843  0.7216393269444803  1.0000
  C   C99       1.0  0.466152215705234  0.5761380330191772  0.7365225239719382  1.0000
  C   C100      1.0  0.4804310104937605  0.5846408988564494  0.7629767256566257  1.0000
  C   C101      1.0  0.4746414937531818  0.6208196557356465  0.7749200115075563  1.0000
  C   C102      1.0  0.4560573470240963  0.6489380050786588  0.7600933491153541  1.0000
  H   H65       1.0  0.43724728717477357  0.5982412937120264  0.700889703014576  1.0000
  H   H66       1.0  0.47066169876558056  0.548177448441222  0.7271900726772497  1.0000
  H   H67       1.0  0.4851641796014284  0.6275643116162063  0.7954064562881897  1.0000
  H   H68       1.0  0.45254047751581566  0.6772023425847891  0.7692416825155551  1.0000
  C   C103      1.0  0.21095199579695248  0.6724666194830192  0.7476614240940216  1.0000
  C   C104      1.0  0.18647528957766377  0.6635693886048672  0.7262193049151684  1.0000
  C   C105      1.0  0.20003627763375817  0.6535128736001281  0.699632303991333  1.0000
  C   C106      1.0  0.23802498180767961  0.6529295949894808  0.6943513521091937  1.0000
  C   C107      1.0  0.2625012178873282  0.662229429715668  0.7157131300661983  1.0000
  C   C108      1.0  0.24894168700644473  0.6720921317241152  0.7423274940084801  1.0000
  H   H69       1.0  0.1570927990944266  0.6639112041505941  0.7301999970676194  1.0000
  H   H70       1.0  0.18103951638653978  0.6462508251259914  0.6831227561403203  1.0000
  H   H71       1.0  0.29187713821803174  0.6613482881104963  0.7118563394681099  1.0000
  H   H72       1.0  0.26793362273698373  0.6788210370366758  0.758952008911131  1.0000
  C   C109      1.0  0.42436514982326873  0.05809884991172498  0.6976664423905488  1.0000
  C   C110      1.0  0.46081803799254106  0.05364016883786604  0.7059119753065713  1.0000
  C   C111      1.0  0.4696021232867293  0.05404314422925438  0.7343839808294542  1.0000
  C   C112      1.0  0.44200041929321066  0.05939133553247533  0.7546686045645468  1.0000
  C   C113      1.0  0.40572972016640135  0.065014425461978  0.7463710866097159  1.0000
  C   C114      1.0  0.3969101542134763  0.06429332700617851  0.7178997633908959  1.0000
  H   H73       1.0  0.482162334919216  0.048765461011375244  0.6903407807928595  1.0000
  H   H74       1.0  0.497571617980102  0.04917500466739089  0.7405402934172527  1.0000
  H   H75       1.0  0.3843029349788468  0.06939474798773304  0.7619596461152427  1.0000
  H   H76       1.0  0.3688786911438729  0.06878865763632258  0.7116410314103664  1.0000
  C   C115      1.0  0.21167051163544087  0.06218921967254398  0.7138802527366652  1.0000
  C   C116      1.0  0.19881442550635323  0.08459906781314608  0.7361765130904185  1.0000
  C   C117      1.0  0.17775853152667834  0.0675907633639592  0.7577450129229519  1.0000
  C   C118      1.0  0.16841929343768594  0.028401983071020487  0.7566014974208115  1.0000
  C   C119      1.0  0.18244118969122788  0.0056446195324901804  0.7348380015938911  1.0000
  C   C120      1.0  0.20436005240222327  0.02248733259385438  0.7135754177271976  1.0000
  H   H77       1.0  0.20494737749912328  0.11520671208344169  0.736671840629926  1.0000
  H   H78       1.0  0.16836009696817078  0.084988129862277  0.7750363623672795  1.0000
  H   H79       1.0  0.1754420490328036  0.9752556971840807  0.7339624017930804  1.0000
  H   H80       1.0  0.2143585482665443  0.005047644184440703  0.6964050425606653  1.0000
  C   C121      1.0  0.31882431973698244  0.8707360175081235  0.6625113422481977  1.0000
  C   C122      1.0  0.33219283324547144  0.8373093378021078  0.6746771786635044  1.0000
  C   C123      1.0  0.34689931238370436  0.8081982355070045  0.6578136264262573  1.0000
  C   C124      1.0  0.34750942109742  0.8119932055127739  0.6287202171266562  1.0000
  C   C125      1.0  0.3346310949720928  0.8457089518270796  0.6165629941646564  1.0000
  C   C126      1.0  0.32034224608742057  0.8751299974022121  0.63346201946639  1.0000
  H   H81       1.0  0.3313316177832218  0.8338860009795863  0.6971461057309128  1.0000
  H   H82       1.0  0.3582958230765168  0.7831332657019469  0.6673807296787722  1.0000
  H   H83       1.0  0.3351946054498554  0.8489129201530279  0.5940544312506655  1.0000
  H   H84       1.0  0.3097553452931999  0.9007906372459139  0.6239188916370617  1.0000
  C   C127      1.0  0.3229794850342371  0.11939296595654383  0.5159246926590059  1.0000
  C   C128      1.0  0.32626205313298845  0.08397367300696823  0.5021894666977859  1.0000
  C   C129      1.0  0.31731723304779286  0.049587218068262606  0.5163761285286298  1.0000
  C   C130      1.0  0.3050900096476077  0.050513925395522685  0.54430308759365  1.0000
  C   C131      1.0  0.30044953356121873  0.08599497656797572  0.5576234992146809  1.0000
  C   C132      1.0  0.30963597974483215  0.12032317710163584  0.543549052987738  1.0000
  H   H85       1.0  0.3370210542509746  0.08291336718522158  0.4810374048123981  1.0000
  H   H86       1.0  0.3208509407401966  0.02220667257723652  0.5059244913152778  1.0000
  H   H87       1.0  0.2897654416729303  0.08705968206691694  0.578767904611297  1.0000
  H   H88       1.0  0.30677349381522917  0.14766658347319844  0.5541840308756674  1.0000
  C   C133      1.0  0.3454070227100708  0.5971512479004006  0.5015658172073454  1.0000
  C   C134      1.0  0.38078256520093  0.5821404801972281  0.5029459113350845  1.0000
  C   C135      1.0  0.39824680951210994  0.5796614380033666  0.5288970308339409  1.0000
  C   C136      1.0  0.38016736780124366  0.5917227653234505  0.5534246618505775  1.0000
  C   C137      1.0  0.34394383974817255  0.6042301378242303  0.5520653065824813  1.0000
  C   C138      1.0  0.3267900327099943  0.6074741829590606  0.5261797437877206  1.0000
  H   H89       1.0  0.39531461824425085  0.5741645213332413  0.48394471862998484  1.0000
  H   H90       1.0  0.4261906133047599  0.5695610573527768  0.5298797841643871  1.0000
  H   H91       1.0  0.3290311613907292  0.6113659099677025  0.5709507818767806  1.0000
  H   H92       1.0  0.2991101470295234  0.618341452912956  0.5252245907679709  1.0000
  C   C139      1.0  0.3259373164914774  0.3826366000594404  0.4281296662205141  1.0000
  C   C140      1.0  0.31727582334833987  0.346130085890815  0.43909547752525974  1.0000
  C   C141      1.0  0.33477900069569655  0.3133470929007506  0.4284197403681325  1.0000
  C   C142      1.0  0.36039858679324893  0.31698425012479237  0.4064062825882234  1.0000
  C   C143      1.0  0.36950327759751317  0.3535429913359547  0.3958834542874771  1.0000
  C   C144      1.0  0.35256229622329766  0.386300223702815  0.4068752115599247  1.0000
  H   H93       1.0  0.29707127094386004  0.3431621263602535  0.4558345757390155  1.0000
  H   H94       1.0  0.32839297865631495  0.2853338986469113  0.43714796279269763  1.0000
  H   H95       1.0  0.3896184631071262  0.35651289250306784  0.379064163914397  1.0000
  H   H96       1.0  0.36011003965500044  0.414281227145933  0.39873648745725976  1.0000
  C   C145      1.0  0.7201359208047258  0.06729458186276704  0.32928406789327685  1.0000
  C   C146      1.0  0.7548071150938244  0.057483165932855185  0.33897943436836797  1.0000
  C   C147      1.0  0.7616078508806128  0.057387504893625874  0.36773955190865626  1.0000
  C   C148      1.0  0.7335357282109454  0.06629643196182444  0.3868712822774814  1.0000
  C   C149      1.0  0.6983356198919168  0.07434773899173219  0.3772443925765376  1.0000
  C   C150      1.0  0.6917674077071743  0.07541488370843497  0.3484162285546113  1.0000
  H   H97       1.0  0.776761786119918  0.05114764517378623  0.32423848578766784  1.0000
  H   H98       1.0  0.7887632349690835  0.05080082205257064  0.3751286860269108  1.0000
  H   H99       1.0  0.6765721260799042  0.08122508035212106  0.3920263931378249  1.0000
  H   H100      1.0  0.6648971189190277  0.08294686322978784  0.34108063901908353  1.0000
  C   C151      1.0  0.644308003800109  0.24581861573257852  0.205315604344653  1.0000
  C   C152      1.0  0.6587781960619035  0.27917327081741855  0.1927857929676441  1.0000
  C   C153      1.0  0.6480518611725097  0.28965120101259884  0.16597930910579145  1.0000
  C   C154      1.0  0.6235897040819993  0.26627069517680724  0.15104778953182446  1.0000
  C   C155      1.0  0.609203736855608  0.23249237073291806  0.16338547391694966  1.0000
  C   C156      1.0  0.6194754385928025  0.22229471954203828  0.1906471013454213  1.0000
  H   H101      1.0  0.6786025422315162  0.29680509951138107  0.20378716002002978  1.0000
  H   H102      1.0  0.658829197089161  0.31590873087435467  0.15689605680157084  1.0000
  H   H103      1.0  0.590241286213381  0.21427153118159128  0.15191900119175336  1.0000
  H   H104      1.0  0.6082872421792382  0.19636476021649454  0.20025176270460665  1.0000
  C   C157      1.0  0.5347923953052338  0.15063906181212666  0.3602493191219793  1.0000
  C   C158      1.0  0.5290220945744264  0.11115899491038173  0.35591447436069823  1.0000
  C   C159      1.0  0.49520084671166714  0.09373995710911931  0.36361544603975027  1.0000
  C   C160      1.0  0.4666352452980369  0.11595222112405157  0.37466228096314674  1.0000
  C   C161      1.0  0.47254755533527504  0.15539283369499018  0.37910228989261585  1.0000
  C   C162      1.0  0.5067610261699704  0.172580113776053  0.37229623361970704  1.0000
  H   H105      1.0  0.5507918635224439  0.09395898784302514  0.34707482235274134  1.0000
  H   H106      1.0  0.49088924042594756  0.06311720581168379  0.3605789908220129  1.0000
  H   H107      1.0  0.45059608917808586  0.17290603391636014  0.3872250738410976  1.0000
  H   H108      1.0  0.5111001777117894  0.20314587365246783  0.37566663271069284  1.0000
  C   C163      1.0  0.6167678457868621  0.9865739733238407  0.17502279974050122  1.0000
  C   C164      1.0  0.6256718405303751  0.025865558444557735  0.1768809170968943  1.0000
  C   C165      1.0  0.6056586550298397  0.04983870331214435  0.19495720125433416  1.0000
  C   C166      1.0  0.5761189891147841  0.03482708597211759  0.21080574944932012  1.0000
  C   C167      1.0  0.5662091138498825  0.9958539179108877  0.20808271039692441  1.0000
  C   C168      1.0  0.5868608990524651  0.971618152687323  0.19056587041122441  1.0000
  H   H109      1.0  0.6484327678039491  0.03774508801600662  0.164627274538787  1.0000
  H   H110      1.0  0.6126422886524727  0.08015194232711131  0.1961010598441311  1.0000
  H   H111      1.0  0.5429925904720166  0.9842169863069515  0.21993998271054094  1.0000
  H   H112      1.0  0.5791261410997334  0.9416033214679632  0.1887191986477666  1.0000
  C   C169      1.0  0.7953835829909679  0.8245836037484612  0.189114806276003  1.0000
  C   C170      1.0  0.8320249927314111  0.8186112691612729  0.1808903851741599  1.0000
  C   C171      1.0  0.8609789085280015  0.8322155498274272  0.1975521384641531  1.0000
  C   C172      1.0  0.8533150471828159  0.8511431081144275  0.22276506401583293  1.0000
  C   C173      1.0  0.8166846740650482  0.8562675209523446  0.23129806058988284  1.0000
  C   C174      1.0  0.7877334168288099  0.8432971852099117  0.214392215515345  1.0000
  H   H113      1.0  0.8379811130995943  0.8038305749193241  0.16143084592594625  1.0000
  H   H114      1.0  0.8891061278784453  0.8276155663111399  0.19102098760447975  1.0000
  H   H115      1.0  0.8106476026473112  0.8705901442225612  0.25092367040232927  1.0000
  H   H116      1.0  0.759545000501463  0.8474399475098399  0.2210852900570915  1.0000
  C   C175      1.0  0.4775014351416067  0.9453458892814346  0.9335751271700649  1.0000
  C   C176      1.0  0.508953485543978  0.9230546047856398  0.9357195077866998  1.0000
  C   C177      1.0  0.5372565477096217  0.9264071457785832  0.9155984008252999  1.0000
  C   C178      1.0  0.5338570549092859  0.9513297698363627  0.8928742331235676  1.0000
  C   C179      1.0  0.5024210286633977  0.9737298463572697  0.8907158486606  1.0000
  C   C180      1.0  0.47440576372583987  0.970993952776341  0.911211596494723  1.0000
  H   H117      1.0  0.5115564096422985  0.9032040278849909  0.95289313658398  1.0000
  H   H118      1.0  0.5615914412777714  0.9091567886755909  0.9174263573951992  1.0000
  H   H119      1.0  0.49927835353658917  0.9925236775858032  0.8730120458515482  1.0000
  H   H120      1.0  0.45003395237571364  0.9881794682873667  0.9094559143409272  1.0000
  C   C181      1.0  0.5315176493641295  0.7596545690827619  0.940693664866565  1.0000
  C   C182      1.0  0.4957498227594026  0.752153331579917  0.9315425363023587  1.0000
  C   C183      1.0  0.48999810688807427  0.7368731331560497  0.9048122763987181  1.0000
  C   C184      1.0  0.519999304835368  0.7291962570474867  0.8871286677061837  1.0000
  C   C185      1.0  0.555865788515404  0.7354882562951063  0.8965696999636134  1.0000
  C   C186      1.0  0.5616150813327282  0.7507125567095434  0.9233946883971306  1.0000
  H   H121      1.0  0.47246886378857644  0.7573765011608774  0.9452525844489578  1.0000
  H   H122      1.0  0.46224576351430047  0.730961706364447  0.897857439483772  1.0000
  H   H123      1.0  0.579143119102251  0.7295319033638167  0.8829550104759083  1.0000
  H   H124      1.0  0.5893447819301905  0.7562043055083741  0.9305411311402099  1.0000
  C   C187      1.0  0.49356298282958655  0.8331254146668298  0.10204897344615269  1.0000
  C   C188      1.0  0.5116403336059903  0.8040545379628499  0.08726254401335234  1.0000
  C   C189      1.0  0.539901181110796  0.7837399060075277  0.099908521545565  1.0000
  C   C190      1.0  0.5506012974250559  0.7930674400547543  0.12710589881548448  1.0000
  C   C191      1.0  0.5318874859788131  0.8213966408789204  0.14214389011037745  1.0000
  C   C192      1.0  0.5031584696449896  0.8411396725359215  0.12971386508405838  1.0000
  H   H125      1.0  0.5046347913926467  0.7979256899166218  0.06583186340150404  1.0000
  H   H126      1.0  0.5543288723168565  0.7617996889862176  0.0882280268978419  1.0000
  H   H127      1.0  0.5393436774859274  0.8280516102792344  0.1633825565416806  1.0000
  H   H128      1.0  0.48900228381589295  0.8634028642634292  0.14126064277108566  1.0000
  C   C193      1.0  0.1263502251246951  0.0008597118169135776  0.963761817631956  1.0000
  C   C194      1.0  0.1363627253929826  0.028868171992559866  0.9439290272427077  1.0000
  C   C195      1.0  0.11093545884372545  0.04032579872349307  0.923953841214204  1.0000
  C   C196      1.0  0.07546646096314723  0.02398622930260319  0.9240290468045463  1.0000
  C   C197      1.0  0.06508302348025063  0.997136145246719  0.9445550183178466  1.0000
  C   C198      1.0  0.09055924070556332  0.9854424282516742  0.9643274138139908  1.0000
  H   H129      1.0  0.16399207539565072  0.04100656527395308  0.943618026657831  1.0000
  H   H130      1.0  0.11881549353777925  0.06167241890311059  0.9085201207543547  1.0000
  H   H131      1.0  0.03750324051158449  0.9848231411847034  0.9448705783797007  1.0000
  H   H132      1.0  0.08241787659216593  0.9646517232181663  0.9801306133771847  1.0000
  C   C199      1.0  0.13333825695247092  0.804247270348785  0.9027990334173123  1.0000
  C   C200      1.0  0.14386801885633366  0.785754464505487  0.877967187188822  1.0000
  C   C201      1.0  0.11736185287810678  0.774093709092759  0.8585571071608292  1.0000
  C   C202      1.0  0.08017348929488088  0.7813570739844666  0.8636866905893131  1.0000
  C   C203      1.0  0.06956240533869229  0.8003984819626297  0.8883512860431092  1.0000
  C   C204      1.0  0.09610238134799894  0.8114898559842191  0.9080729785665581  1.0000
  H   H133      1.0  0.1726373711440458  0.7802282667988522  0.8737755591028579  1.0000
  H   H134      1.0  0.12581335902332375  0.7598473162257459  0.8394406769626956  1.0000
  H   H135      1.0  0.040773606336214074  0.8059104550315338  0.8924277153364487  1.0000
  H   H136      1.0  0.08777242977093103  0.8256196186403754  0.9272602551052451  1.0000
  C   C205      1.0  0.02444201357255582  0.864803344041294  0.06139935676748482  1.0000
  C   C206      1.0  0.0314102372778966  0.9045494114430503  0.06075020998044565  1.0000
  C   C207      1.0  0.01668361021676068  0.9282690920884474  0.08180761204073554  1.0000
  C   C208      1.0  0.9960100020096821  0.9121144970389994  0.1039473356266169  1.0000
  C   C209      1.0  0.9891739201887837  0.8723823443267626  0.10458830109699085  1.0000
  C   C210      1.0  0.0027733579743389747  0.8488971931495112  0.08307144866783105  1.0000
  H   H137      1.0  0.04802880781685248  0.91699819731814  0.043983502508044385  1.0000
  H   H138      1.0  0.02195966099406843  0.9590309125166595  0.08120216484813811  1.0000
  H   H139      1.0  0.9729101487764877  0.8597359192867472  0.12137794282952893  1.0000
  H   H140      1.0  0.9971957097625334  0.818184660546342  0.0835155121610267  1.0000
  C   C211      1.0  0.25834802969522475  0.8180136758448137  0.03828920561692506  1.0000
  C   C212      1.0  0.252417814154804  0.8030505842301718  0.011520873568637402  1.0000
  C   C213      1.0  0.2820436599128962  0.7894865737843675  0.9954751015294316  1.0000
  C   C214      1.0  0.31782949334182087  0.79196068897698  0.005789939617724116  1.0000
  C   C215      1.0  0.32373413276367896  0.8060044282508458  0.03285197530904993  1.0000
  C   C216      1.0  0.2939010881384129  0.8187471888322628  0.0492003116047528  1.0000
  H   H141      1.0  0.22499177335292772  0.8020860752371538  0.003053819253316714  1.0000
  H   H142      1.0  0.27734977950232165  0.7784030676824243  0.9746250968132278  1.0000
  H   H143      1.0  0.3513314206181802  0.8076901806733745  0.04099071994381376  1.0000
  H   H144      1.0  0.29855488183108847  0.8303338772340244  0.06990012512733612  1.0000
  C   C217      1.0  0.9641399495135404  0.49340824858806787  0.17364247859892876  1.0000
  C   C218      1.0  0.9983465658991414  0.5000650056688797  0.16067078881640884  1.0000
  C   C219      1.0  0.025164664991400576  0.522820787900639  0.17384082917353746  1.0000
  C   C220      1.0  0.01811981786393546  0.5386840892157202  0.2002457989484165  1.0000
  C   C221      1.0  0.9840840620264057  0.531781629803476  0.21354785639440574  1.0000
  C   C222      1.0  0.9569644060984486  0.5093706125859887  0.20010831886806132  1.0000
  H   H145      1.0  0.0039159642127011285  0.48853903572973634  0.14015521581022972  1.0000
  H   H146      1.0  0.05138276069230541  0.5282926495462981  0.16342669279792038  1.0000
  H   H147      1.0  0.9785095360370063  0.5439951995912395  0.23397762737831565  1.0000
  H   H148      1.0  0.9305054251125287  0.5043048526464065  0.21023562052308764  1.0000
  C   C223      1.0  0.9286409424702583  0.5554170316360546  0.35269254013640045  1.0000
  C   C224      1.0  0.9537126494403847  0.5257525621198248  0.3559231987241097  1.0000
  C   C225      1.0  0.9443242553296014  0.49373242106707427  0.37254390591640324  1.0000
  C   C226      1.0  0.9100873680846542  0.4915726080201547  0.3863318049756871  1.0000
  C   C227      1.0  0.8851413179591517  0.5214106585680197  0.3834134499340471  1.0000
  C   C228      1.0  0.8943961368144577  0.553265756458182  0.36652969067200497  1.0000
  H   H149      1.0  0.980263934066051  0.5273417023940622  0.3455082352259262  1.0000
  H   H150      1.0  0.963705760229559  0.47072278328773814  0.3748228140889687  1.0000
  H   H151      1.0  0.8585122420512067  0.5197152802046561  0.3937974369111613  1.0000
  H   H152      1.0  0.8748894533253295  0.5761162373419784  0.36399839216618385  1.0000
  C   C229      1.0  0.15738089862553847  0.5315179675412316  0.33961720716876753  1.0000
  C   C230      1.0  0.17971973211465037  0.5165371013004423  0.36040832759715075  1.0000
  C   C231      1.0  0.2176699488959717  0.5248617266146733  0.3602940684843529  1.0000
  C   C232      1.0  0.23341186158972438  0.5480698697542566  0.33929748035335516  1.0000
  C   C233      1.0  0.2112990430377174  0.5620029048462143  0.31799577127545275  1.0000
  C   C234      1.0  0.1733611675902173  0.5537566445350041  0.31816358483126317  1.0000
  H   H153      1.0  0.1675731193000788  0.49897588506104007  0.37691681540534255  1.0000
  H   H154      1.0  0.23462416671181738  0.5133058222551109  0.3764823252630818  1.0000
  H   H155      1.0  0.22345730918729406  0.5794685332338236  0.3014517485969685  1.0000
  H   H156      1.0  0.15668327952695554  0.5644805720130135  0.3016152999063612  1.0000
  C   C235      1.0  0.07667028142848809  0.7325225355387858  0.27674676379373514  1.0000
  C   C236      1.0  0.0744745621219074  0.7727330310212535  0.27696076466555214  1.0000
  C   C237      1.0  0.06690985392742199  0.7925555175315789  0.25220510386340983  1.0000
  C   C238      1.0  0.062184839745228926  0.7721623429825253  0.22720221886680714  1.0000
  C   C239      1.0  0.06582792396801307  0.7321409817067617  0.22683316149226307  1.0000
  C   C240      1.0  0.07257991396321373  0.7122820984974151  0.2516372973627948  1.0000
  H   H157      1.0  0.07769618573745363  0.7884612070307703  0.2963586567686462  1.0000
  H   H158      1.0  0.06468157040848732  0.8235560759442808  0.2524902012401802  1.0000
  H   H159      1.0  0.06242300268758827  0.7162996312536264  0.20748306172706724  1.0000
  H   H160      1.0  0.07466600593542805  0.681257094322273  0.25124847017271246  1.0000
  C   C241      1.0  0.009153580463867161  0.17106682321239955  0.3575146922356638  1.0000
  C   C242      1.0  0.9957659813367976  0.1598264016688396  0.3838803498439822  1.0000
  C   C243      1.0  0.9667319049672748  0.1328363020452641  0.3861712130380843  1.0000
  C   C244      1.0  0.9511393456949755  0.11694792108237345  0.3621095753279646  1.0000
  C   C245      1.0  0.9655355306191495  0.12698302135357126  0.3357311967184947  1.0000
  C   C246      1.0  0.9945181298686109  0.15410107273729212  0.3334290477677806  1.0000
  H   H161      1.0  0.007378155122562902  0.1725226779891349  0.402547631758636  1.0000
  H   H162      1.0  0.9564269699350266  0.12431111339056224  0.40661321754763363  1.0000
  H   H163      1.0  0.9534725420587092  0.11492010773581107  0.3170395258502692  1.0000
  H   H164      1.0  0.004920939518262779  0.16245951725753985  0.3130007939044793  1.0000
  C   C247      1.0  0.061582573584467726  0.33926274102851783  0.2126174140464661  1.0000
  C   C248      1.0  0.041130636001875054  0.36684242767885944  0.19876950760847684  1.0000
  C   C249      1.0  0.04506173351282139  0.3713906020005483  0.16980271931575175  1.0000
  C   C250      1.0  0.06873245486550639  0.34772699414602076  0.15451934018278476  1.0000
  C   C251      1.0  0.09094345750054189  0.32186653372875845  0.16854292688148909  1.0000
  C   C252      1.0  0.08752708389310149  0.3178473714795187  0.19765575621011605  1.0000
  H   H165      1.0  0.021093552119256564  0.3836249401494883  0.21015682038554945  1.0000
  H   H166      1.0  0.029194115986921787  0.3927897069819214  0.15924373434119568  1.0000
  H   H167      1.0  0.10986756171102541  0.30405228728092154  0.1568491313982851  1.0000
  H   H168      1.0  0.1047376792301784  0.29794335038015957  0.20839967133164028  1.0000
  C   C253      1.0  0.02604091761690719  0.09579436263980501  0.23449916381320493  1.0000
  C   C254      1.0  0.035262327041323704  0.08693095081392133  0.2620010979041637  1.0000
  C   C255      1.0  0.03884363536464952  0.048491369639971804  0.2701705480107497  1.0000
  C   C256      1.0  0.03206975125212552  0.018652049787170943  0.2511328019847223  1.0000
  C   C257      1.0  0.02199567414878123  0.027320448201049174  0.22378476150622167  1.0000
  C   C258      1.0  0.019055458170062822  0.06589070706604216  0.2154701025862241  1.0000
  H   H169      1.0  0.038615206950177505  0.10959062496249028  0.27720187759918596  1.0000
  H   H170      1.0  0.04575835503199999  0.04181648600761334  0.2915131140756618  1.0000
  H   H171      1.0  0.016991455807039646  0.004409695826235405  0.20887668998103032  1.0000
  H   H172      1.0  0.011791791816507358  0.07253884355446094  0.19417559612758814  1.0000
  C   C259      1.0  0.20383060277044063  0.1876516655255751  0.3030599646510532  1.0000
  C   C260      1.0  0.1787916476473647  0.1801564156595129  0.32491192239221356  1.0000
  C   C261      1.0  0.1910547292581887  0.1653397653050073  0.35025214656595893  1.0000
  C   C262      1.0  0.22859175180453928  0.15947323726823798  0.35425134640647904  1.0000
  C   C263      1.0  0.253805189263177  0.167364098459203  0.3325261560910745  1.0000
  C   C264      1.0  0.24135869518940425  0.18120301192696567  0.3068385402787791  1.0000
  H   H173      1.0  0.1499400188496696  0.18590727614234273  0.32242699956521587  1.0000
  H   H174      1.0  0.17153171596551048  0.1595448377469331  0.3671279664284793  1.0000
  H   H175      1.0  0.28278791335106906  0.1624883736077194  0.33544910452570365  1.0000
  H   H176      1.0  0.26078304653505335  0.18695150766443683  0.28991423781485814  1.0000
  C   C265      1.0  0.684538408602251  0.5138114417069186  0.3605291941559209  1.0000
  C   C266      1.0  0.6886771943167915  0.5515203292345127  0.3704906864846235  1.0000
  C   C267      1.0  0.7043938112400707  0.5585448655612426  0.39667144326999965  1.0000
  C   C268      1.0  0.7170618949978504  0.5279751201805252  0.4126732563791882  1.0000
  C   C269      1.0  0.7136855032935454  0.4902939578643622  0.4024894851690166  1.0000
  C   C270      1.0  0.6973713705047946  0.48322414911012435  0.37649773687275817  1.0000
  H   H177      1.0  0.6796917199382352  0.5753757379809689  0.3581635095156369  1.0000
  H   H178      1.0  0.7072343854817204  0.5877830603329613  0.40432690784587405  1.0000
  H   H179      1.0  0.7228132316335028  0.4664712293403671  0.4149140149663737  1.0000
  H   H180      1.0  0.6942938088683915  0.45396876980494866  0.36893903845803044  1.0000
  C   C271      1.0  0.6645418692344439  0.5388508294967398  0.19119027302439456  1.0000
  C   C272      1.0  0.6575133462098531  0.5224782566398702  0.16498340704108785  1.0000
  C   C273      1.0  0.6731918073977403  0.48725885848463424  0.15744538421019064  1.0000
  C   C274      1.0  0.6967598315859119  0.4689529793674638  0.17580670839838694  1.0000
  C   C275      1.0  0.7045769919386944  0.48583351967443394  0.2017082642670127  1.0000
  C   C276      1.0  0.6880089214778681  0.5204178483111842  0.20957851383201  1.0000
  H   H181      1.0  0.6393505061968171  0.5366319559429675  0.15069537261653942  1.0000
  H   H182      1.0  0.6669728684065224  0.4743795558771156  0.13740759029752506  1.0000
  H   H183      1.0  0.7231888495528098  0.4721030297960789  0.21584192977844932  1.0000
  H   H184      1.0  0.693833823117778  0.5330031045911621  0.22972208786374038  1.0000
  C   C277      1.0  0.5040378432982363  0.5995519614242798  0.3236693567720473  1.0000
  C   C278      1.0  0.5130918394164062  0.560687042984054  0.32248522410184066  1.0000
  C   C279      1.0  0.4943072801365835  0.5338505544194938  0.33947668916234514  1.0000
  C   C280      1.0  0.46667246443775573  0.5457572850058583  0.3580369822253716  1.0000
  C   C281      1.0  0.4572058744673417  0.5845822510840987  0.35913738758736935  1.0000
  C   C282      1.0  0.4757041616157989  0.6114650745763917  0.34174911292464966  1.0000
  H   H185      1.0  0.5343045396804937  0.5511421136218174  0.30820849059604727  1.0000
  H   H186      1.0  0.5012064029994702  0.5037153201164319  0.3381662382334784  1.0000
  H   H187      1.0  0.4362223038067581  0.5940263296581332  0.37373929300150244  1.0000
  H   H188      1.0  0.4687064278883196  0.641592207303031  0.34278190879447745  1.0000
  C   C283      1.0  0.6837390824362776  0.733194340125817  0.2910262196969571  1.0000
  C   C284      1.0  0.7038029590891838  0.764251619963391  0.2795797012346128  1.0000
  C   C285      1.0  0.6857328352293721  0.7977581305784138  0.2718643269347755  1.0000
  C   C286      1.0  0.6479437966979715  0.8009914581730471  0.27700237281518303  1.0000
  C   C287      1.0  0.6281121267668551  0.7706366099907119  0.28962483563102015  1.0000
  C   C288      1.0  0.6459020362865497  0.7363940554412575  0.2961578225556862  1.0000
  H   H189      1.0  0.733105004647824  0.7619222128526817  0.2758143179409829  1.0000
  H   H190      1.0  0.7010714265655179  0.8211208852969103  0.26193930839651647  1.0000
  H   H191      1.0  0.5988843751049984  0.7731770488098463  0.29361995541301167  1.0000
  H   H192      1.0  0.6304484757683527  0.7125741410051669  0.3053648904499338  1.0000
  N   N1        1.0  0.30745065969440294  0.9054922694975811  0.9694045803717201  1.0000
  C   C289      1.0  0.34586174480603954  0.9146359706834635  0.9607362450611537  1.0000
  C   C290      1.0  0.29433345487700624  0.8708846310646198  0.9541640298816384  1.0000
  C   C291      1.0  0.28378910673687807  0.9383930181722876  0.963002984374477  1.0000
  C   C292      1.0  0.30593357706160357  0.8979505230445984  0.999802303846709  1.0000
  H   H193      1.0  0.35733853048496106  0.9397447322580875  0.9724869731346437  1.0000
  H   H194      1.0  0.34810895759538174  0.9214998709416605  0.9380672059271554  1.0000
  H   H195      1.0  0.3642525579290868  0.8899561601479224  0.9645875517219258  1.0000
  H   H196      1.0  0.2659463365048693  0.8620781685198282  0.9609195480295496  1.0000
  H   H197      1.0  0.29398895821583776  0.8757643287516501  0.9312039633366034  1.0000
  H   H198      1.0  0.31232413063347475  0.8458591840531735  0.9579523109030234  1.0000
  H   H199      1.0  0.25472552261296466  0.932643227956232  0.9696953341581226  1.0000
  H   H200      1.0  0.28378001541606757  0.9446211372332732  0.9401966915673027  1.0000
  H   H201      1.0  0.2931863148441649  0.9650056351788686  0.9740125525769234  1.0000
  H   H202      1.0  0.27758243759733936  0.8896618504994142  0.007042541301522487  1.0000
  H   H203      1.0  0.31488899724327757  0.9235970263327719  0.012095544915875056  1.0000
  H   H204      1.0  0.32426410688221186  0.8740306166945799  0.005370373901900649  1.0000
  N   N2        1.0  0.9492447595743553  0.7399236967237036  0.2540381098077263  1.0000
  C   C293      1.0  0.9761312601397064  0.7560247983211059  0.2740059204554804  1.0000
  C   C294      1.0  0.9274877605567508  0.7086853578001922  0.267742658953646  1.0000
  C   C295      1.0  0.9690856570427496  0.7243762677313328  0.2293808522212496  1.0000
  C   C296      1.0  0.9244196004618783  0.7706609070899323  0.24503634956751405  1.0000
  H   H205      1.0  0.9926736082637285  0.7799635668507816  0.26442805710081563  1.0000
  H   H206      1.0  0.9957680711214336  0.733790624263751  0.2808894541341687  1.0000
  H   H207      1.0  0.9622738627217025  0.7676374217527868  0.29305626515267547  1.0000
  H   H208      1.0  0.9454527489990338  0.6852220974961082  0.2750823295043871  1.0000
  H   H209      1.0  0.9119720031519554  0.7194289052865683  0.2863528700965715  1.0000
  H   H210      1.0  0.9071967874530885  0.695467277124982  0.253212043288593  1.0000
  H   H211      1.0  0.9498087132464406  0.7114484473074963  0.21396955942873974  1.0000
  H   H212      1.0  0.9886315654141196  0.7016187249949822  0.23545065511121915  1.0000
  H   H213      1.0  0.9854638629448249  0.7473078653527161  0.21835089151804524  1.0000
  H   H214      1.0  0.9036030455391507  0.7596422937388608  0.23002273877070212  1.0000
  H   H215      1.0  0.9399817647605347  0.7946270752067374  0.23453632076119238  1.0000
  H   H216      1.0  0.9092293512149422  0.7834750361760826  0.2631006146565609  1.0000
  N   N3        1.0  0.09025793015872667  0.4598012167780348  0.24685163374669594  1.0000
  C   C297      1.0  0.10761159183910696  0.42451970723422155  0.25715289940587627  1.0000
  C   C298      1.0  0.10657077572925702  0.49373303848115463  0.2610806465843207  1.0000
  C   C299      1.0  0.050255995483859506  0.4578030639412178  0.25288875501539015  1.0000
  C   C300      1.0  0.09653299246605905  0.4631418099296729  0.21631400760814917  1.0000
  H   H217      1.0  0.13794296592338273  0.42548054286184483  0.2536928269530336  1.0000
  H   H218      1.0  0.09679795977204068  0.39850719656062245  0.24619960958071932  1.0000
  H   H219      1.0  0.10216970355651953  0.4202917376241774  0.2799333491182561  1.0000
  H   H220      1.0  0.1021701859566175  0.49219255993380184  0.2841634898208853  1.0000
  H   H221      1.0  0.13672287167173883  0.496274343812706  0.25700648948089594  1.0000
  H   H222      1.0  0.09410606696003454  0.5208275224692719  0.2537461232734583  1.0000
  H   H223      1.0  0.03721598912809654  0.43195031542681833  0.2431442818795589  1.0000
  H   H224      1.0  0.036171764175989995  0.4835418041315257  0.24466652343052783  1.0000
  H   H225      1.0  0.04438641604340243  0.4562464876167162  0.27577842369088085  1.0000
  H   H226      1.0  0.083905108167601  0.4383551572015103  0.20488866608934736  1.0000
  H   H227      1.0  0.1263852254214381  0.46422670288199025  0.21086892382111525  1.0000
  H   H228      1.0  0.08420839925247847  0.4897843330657694  0.20794592219405034  1.0000
  N   N4        1.0  0.5775088085868222  0.5090782022392232  0.3950737475895922  1.0000
  C   C301      1.0  0.5933030032378681  0.47113311510966366  0.3885060714625066  1.0000
  C   C302      1.0  0.597947034621065  0.5271523478569244  0.41832590338871656  1.0000
  C   C303      1.0  0.5383514499946689  0.5037725174362319  0.403259756879307  1.0000
  C   C304      1.0  0.5805101459996928  0.5341688567530165  0.37017148823230683  1.0000
  H   H229      1.0  0.6226508526991468  0.4740182251129359  0.38193798443529664  1.0000
  H   H230      1.0  0.5786209054097845  0.4566693434801923  0.37099618967488956  1.0000
  H   H231      1.0  0.5918736086690456  0.45156402492280934  0.4068919065124686  1.0000
  H   H232      1.0  0.6277776294608375  0.5307865535294425  0.4128979533973542  1.0000
  H   H233      1.0  0.5872115104730692  0.5561891239429234  0.423402237228206  1.0000
  H   H234      1.0  0.5960118699540157  0.5093059588636452  0.43759975076617885  1.0000
  H   H235      1.0  0.5248655905336863  0.5318023111735999  0.4073791292241398  1.0000
  H   H236      1.0  0.5350132465303312  0.48588007552913576  0.42242454185192735  1.0000
  H   H237      1.0  0.5224925604688939  0.4890482306152156  0.3864730958511716  1.0000
  H   H238      1.0  0.5695112544223  0.5195615460395999  0.351264017570709  1.0000
  H   H239      1.0  0.6096209688529416  0.5421798979474519  0.36528035474759285  1.0000
  H   H240      1.0  0.565394715013583  0.5614961276924959  0.3731959211989392  1.0000
  N   N5        1.0  0.7329063999995588  0.5758481141300552  0.5295145096482009  1.0000
  C   C305      1.0  0.7567516012971823  0.5578620300105679  0.5503970704508343  1.0000
  C   C306      1.0  0.7060817543537068  0.5469157775921261  0.5190666557307584  1.0000
  C   C307      1.0  0.7555788251695064  0.5905682831370772  0.5057940789449112  1.0000
  C   C308      1.0  0.7131936188940583  0.6081522018578658  0.5427713497039982  1.0000
  H   H241      1.0  0.775704563736512  0.5794243186635893  0.5599960892504606  1.0000
  H   H242      1.0  0.7741130650226135  0.5350743197486774  0.5408847973446392  1.0000
  H   H243      1.0  0.740382899105165  0.5445225479379332  0.5677892684903278  1.0000
  H   H244      1.0  0.6878509125049593  0.5594489949268917  0.5030920057379884  1.0000
  H   H245      1.0  0.7202569286513993  0.5224538970474879  0.5087115905725293  1.0000
  H   H246      1.0  0.6884514716429949  0.5349347441851664  0.5362793060333954  1.0000
  H   H247      1.0  0.7382448780413187  0.6014263215536884  0.4886118369713051  1.0000
  H   H248      1.0  0.7731394286645606  0.5676734782669586  0.49661534346924663  1.0000
  H   H249      1.0  0.7738797748108052  0.6147529278434163  0.5122916000505612  1.0000
  H   H250      1.0  0.6956856290684313  0.5981327381630014  0.5607113629006873  1.0000
  H   H251      1.0  0.6952557749754404  0.622749370605871  0.5275789979867953  1.0000
  H   H252      1.0  0.7329017810151002  0.6303080589986613  0.5510522421939948  1.0000
  N   N6        1.0  0.25071809558864866  0.27942356656453415  0.37431693826919443  1.0000
  C   C309      1.0  0.2186474762473909  0.27000701804829125  0.3567513251712781  1.0000
  C   C310      1.0  0.2809322461961697  0.25298301114244864  0.3674690319836944  1.0000
  C   C311      1.0  0.24016602848977092  0.27496073281906824  0.4041404128505714  1.0000
  C   C312      1.0  0.26318954037384784  0.3195293225020119  0.36896098268623206  1.0000
  H   H253      1.0  0.20771443862898503  0.24056921021008135  0.3613167172074806  1.0000
  H   H254      1.0  0.22594216299877923  0.2709162269685738  0.33404101063719976  1.0000
  H   H255      1.0  0.19575515478907124  0.29028213545800347  0.36054143933462174  1.0000
  H   H256      1.0  0.3059037680601768  0.26010524718028366  0.3796929131877998  1.0000
  H   H257      1.0  0.27309610071070084  0.2226727896306294  0.37248610807455906  1.0000
  H   H258      1.0  0.28890624216896954  0.2542412719467251  0.34492826412489697  1.0000
  H   H259      1.0  0.26369130626404574  0.2818996620679474  0.41800293585196224  1.0000
  H   H260      1.0  0.23115684602002273  0.24475076498924384  0.4088941994193843  1.0000
  H   H261      1.0  0.217223207427508  0.29421890060716027  0.4101193588095513  1.0000
  H   H262      1.0  0.28766269254962706  0.3273590235278394  0.38165683269303663  1.0000
  H   H263      1.0  0.24133110396665003  0.34043071530692304  0.3743185082587254  1.0000
  H   H264      1.0  0.27121409302572397  0.32377404897149464  0.34661012611156267  1.0000
  N   N7        1.0  0.5627814498864713  0.6654117388233441  0.7139503653148225  1.0000
  C   C313      1.0  0.5844130074911889  0.6610282774760546  0.6877378052005736  1.0000
  C   C314      1.0  0.5267604608597337  0.6822927074275327  0.7077174166682  1.0000
  C   C315      1.0  0.583030025066534  0.6910310220631501  0.7333697280532194  1.0000
  C   C316      1.0  0.5568212509440802  0.6272800431203956  0.7270682637587761  1.0000
  H   H265      1.0  0.6119857698879568  0.6488566536095768  0.6917322292354693  1.0000
  H   H266      1.0  0.589245161507334  0.6892156585469106  0.6771662550660839  1.0000
  H   H267      1.0  0.5700970969667992  0.6414823005304473  0.6727754549054623  1.0000
  H   H268      1.0  0.5102480985747561  0.6871451915776197  0.7271714097959949  1.0000
  H   H269      1.0  0.5299369889567205  0.7105527894958559  0.6969920774077841  1.0000
  H   H270      1.0  0.5098760569158051  0.6630158875407761  0.6941146296495333  1.0000
  H   H271      1.0  0.6101317872328887  0.6789612155511363  0.7388909907165543  1.0000
  H   H272      1.0  0.567297581008107  0.6951751911596731  0.7532951442224196  1.0000
  H   H273      1.0  0.5883801275319405  0.7199442565588086  0.7240514218744498  1.0000
  H   H274      1.0  0.5411084244604706  0.6297391697856496  0.7470485021653469  1.0000
  H   H275      1.0  0.583236427080635  0.6133516870565604  0.7319581952174993  1.0000
  H   H276      1.0  0.540829703822266  0.6073253262455705  0.7133933901207171  1.0000
  N   N8        1.0  0.10201668987610797  0.5742183459611656  0.9277583242447305  1.0000
  C   C317      1.0  0.1276614318151212  0.6051037678217229  0.9369715829964854  1.0000
  C   C318      1.0  0.07859218991092787  0.5889491667338265  0.905314330094989  1.0000
  C   C319      1.0  0.07857457337787643  0.5615535238618735  0.9516723453375494  1.0000
  C   C320      1.0  0.1233050639698016  0.5412763507386393  0.9170864405915925  1.0000
  H   H277      1.0  0.11255896475691023  0.6304398717202303  0.9452032974869787  1.0000
  H   H278      1.0  0.14572233502519477  0.6153710766812579  0.9193848971926055  1.0000
  H   H279      1.0  0.14585584574888394  0.5948545625082161  0.9538539573371492  1.0000
  H   H280      1.0  0.05944472962734571  0.5661610784201304  0.897345767325211  1.0000
  H   H281      1.0  0.06163485139027537  0.6134434928193281  0.9126461543136871  1.0000
  H   H282      1.0  0.09540024887706318  0.5994590952256792  0.8871269346157299  1.0000
  H   H283      1.0  0.061182052325788445  0.5852970166913003  0.9597115407475707  1.0000
  H   H284      1.0  0.09550212733366419  0.5516065005099365  0.9693722726320081  1.0000
  H   H285      1.0  0.059931952505176925  0.5371334206364063  0.9457772475466701  1.0000
  H   H286      1.0  0.10488650662057415  0.5174084319919942  0.909857663114999  1.0000
  H   H287      1.0  0.14125883848602588  0.5293788729607888  0.9334932142790995  1.0000
  H   H288      1.0  0.14139590120875697  0.5498000196971977  0.8991050302382263  1.0000
  N   N9        1.0  0.8266195927912476  0.9988712121080717  0.5481291207848599  1.0000
  C   C321      1.0  0.8270800444834695  0.022664421080150543  0.5225216864565991  1.0000
  C   C322      1.0  0.8644947321934673  0.9960873297935039  0.5587034454829602  1.0000
  C   C323      1.0  0.812030547532965  0.9598963292436911  0.541668246778516  1.0000
  C   C324      1.0  0.8029162355416268  0.016878237608805025  0.5696870927147893  1.0000
  H   H289      1.0  0.7988928450882479  0.026229607658044163  0.5142175120984317  1.0000
  H   H290      1.0  0.8443194251293487  0.009735371616746757  0.5056405018347192  1.0000
  H   H291      1.0  0.8386537344230368  0.05194483505266123  0.5266733550804945  1.0000
  H   H292      1.0  0.8762931298695262  0.02505779723074153  0.5638509241934457  1.0000
  H   H293      1.0  0.8651825568413217  0.9783479217357984  0.5780740402402095  1.0000
  H   H294      1.0  0.8831806096088135  0.9826058392409334  0.5430215196112439  1.0000
  H   H295      1.0  0.811503363867266  0.941237077919414  0.560621234310015  1.0000
  H   H296      1.0  0.8292370789371472  0.945365248726795  0.5255066762660182  1.0000
  H   H297      1.0  0.78339656765252  0.96094650632776  0.5338185933766277  1.0000
  H   H298      1.0  0.801115463352201  0.9991971015479112  0.5890411360560153  1.0000
  H   H299      1.0  0.7744044045554843  0.020781199110293302  0.5622025215907148  1.0000
  H   H300      1.0  0.8138553535924047  0.04564830342082282  0.5758698158775096  1.0000
  N   N10       1.0  0.37980887651607703  0.564108225116156  0.29570709228506464  1.0000
  C   C325      1.0  0.37452877307762156  0.5995284643737574  0.31240074306581894  1.0000
  C   C326      1.0  0.3509478081458863  0.5611447403032838  0.2743048386840333  1.0000
  C   C327      1.0  0.37710487576124324  0.5301734877752234  0.3142474496644617  1.0000
  C   C328      1.0  0.4165229328605546  0.5655228747580283  0.2819649614602903  1.0000
  H   H301      1.0  0.3764204334537891  0.6257493164662887  0.29911124201995287  1.0000
  H   H302      1.0  0.3955863956190974  0.6025877057151283  0.3289007376922687  1.0000
  H   H303      1.0  0.3471299210058618  0.5993396948243914  0.3231367269881517  1.0000
  H   H304      1.0  0.3537927581477273  0.5345231224799722  0.2614987432921994  1.0000
  H   H305      1.0  0.3229117484051975  0.5601717222955553  0.2841701528848479  1.0000
  H   H306      1.0  0.3521326185289965  0.5862145867364426  0.2598516695827596  1.0000
  H   H307      1.0  0.34928841548727885  0.5275496975378283  0.3241294480610448  1.0000
  H   H308      1.0  0.3974368973957457  0.5320166078110756  0.3313926505867051  1.0000
  H   H309      1.0  0.38212182748445483  0.5029409446532833  0.3026155252264888  1.0000
  H   H310      1.0  0.42129196895738114  0.5394589954768237  0.26890727483946814  1.0000
  H   H311      1.0  0.4388021012322899  0.5669963574208643  0.29765498521777234  1.0000
  H   H312      1.0  0.4199549989085869  0.5912147939142193  0.26824294401681015  1.0000
  N   N11       1.0  0.4137579105068912  0.08768909320256335  0.5785513653459682  1.0000
  C   C329      1.0  0.3906694701079619  0.1146355119032072  0.594746678114056  1.0000
  C   C330      1.0  0.3988376994378172  0.04805066360117327  0.5818837968856743  1.0000
  C   C331      1.0  0.4518067966315963  0.0896799632272065  0.5890013852686309  1.0000
  C   C332      1.0  0.4136535139410072  0.09834213956435045  0.5486375081087861  1.0000
  H   H313      1.0  0.40081932517703417  0.14489744122069678  0.5925047917599906  1.0000
  H   H314      1.0  0.3902615518390467  0.10746996582268231  0.6174562194060703  1.0000
  H   H315      1.0  0.36169608081453525  0.11364322076757838  0.5876006783618782  1.0000
  H   H316      1.0  0.39914795582746765  0.03877272437394019  0.6041078270029974  1.0000
  H   H317      1.0  0.36981737375947416  0.04573480087400884  0.5749184989400412  1.0000
  H   H318      1.0  0.41490343445152955  0.026969149401055326  0.5694050235217779  1.0000
  H   H319      1.0  0.4526606729975867  0.08204229566942312  0.6116226563157252  1.0000
  H   H320      1.0  0.4639352208024873  0.11917542856626524  0.5866729386302586  1.0000
  H   H321      1.0  0.46992468721613767  0.0693798664355394  0.5774941359601097  1.0000
  H   H322      1.0  0.4231206335988964  0.12866836010237165  0.5452683334581284  1.0000
  H   H323      1.0  0.3855384435775344  0.09571189385868163  0.5399904144656487  1.0000
  H   H324      1.0  0.4315536757097355  0.0793245143089567  0.5358148629067642  1.0000
  N   N12       1.0  0.7245052284632392  0.6804014430797649  0.20309928127931348  1.0000
  C   C333      1.0  0.7220012351964709  0.6501579371097461  0.2247644191708982  1.0000
  C   C334      1.0  0.6927533287566453  0.6764005825036745  0.1842695213686471  1.0000
  C   C335      1.0  0.7590491628656881  0.6763905303200458  0.18674401910770466  1.0000
  C   C336      1.0  0.7241596405272248  0.7186708652522541  0.2166787575536166  1.0000
  H   H325      1.0  0.7455750870313541  0.6519455293772405  0.2393569526908523  1.0000
  H   H326      1.0  0.7212225083872483  0.6207570101364729  0.21536168750504764  1.0000
  H   H327      1.0  0.6966059938290408  0.6531006036095436  0.23777463559966497  1.0000
  H   H328      1.0  0.693164451796664  0.6993417966015519  0.16801518239576965  1.0000
  H   H329      1.0  0.6924879573224693  0.6479527419297667  0.1733956410276584  1.0000
  H   H330      1.0  0.6662567373030676  0.6780944470818505  0.19609149852877453  1.0000
  H   H331      1.0  0.7835201449327133  0.6792596342826576  0.20036698189166452  1.0000
  H   H332      1.0  0.7617495297642187  0.6990055191475281  0.1702841196783135  1.0000
  H   H333      1.0  0.7602157774526147  0.6478018684120604  0.1761946304877771  1.0000
  H   H334      1.0  0.7274466277645035  0.7423234744981129  0.20109438104835678  1.0000
  H   H335      1.0  0.7469083961704415  0.7220322941332779  0.23188394007693916  1.0000
  H   H336      1.0  0.6979672241566809  0.7231425911281208  0.22849829754271475  1.0000
  N   N13       1.0  0.9276344164705119  0.2635030085343312  0.36009716338843584  1.0000
  C   C337      1.0  0.9013452796180423  0.2762458097022302  0.33889607990342796  1.0000
  C   C338      1.0  0.9657369471333637  0.2709897338654857  0.34998392289503505  1.0000
  C   C339      1.0  0.9221270141854352  0.22182290437933205  0.3651412218417229  1.0000
  C   C340      1.0  0.9212984974513662  0.2848478324268345  0.3864766707823183  1.0000
  H   H337      1.0  0.8723366084041622  0.2710974877967152  0.3461085226337751  1.0000
  H   H338      1.0  0.9052341525163666  0.2604451363887494  0.31881146958462836  1.0000
  H   H339      1.0  0.9047232378532996  0.3075903102666145  0.3344961964668636  1.0000
  H   H340      1.0  0.9721026610538909  0.2541998058674286  0.3306823955434815  1.0000
  H   H341      1.0  0.9707401136362642  0.30200496592712195  0.3452095405093871  1.0000
  H   H342      1.0  0.9861417259295694  0.2625417724431968  0.3658870774781268  1.0000
  H   H343      1.0  0.893212008386021  0.21480374867018978  0.37151944192433056  1.0000
  H   H344      1.0  0.9401715860607346  0.21169010716053396  0.38206051303016336  1.0000
  H   H345      1.0  0.9284899162596927  0.2045072877060004  0.34610769106440165  1.0000
  H   H346      1.0  0.9411243500822085  0.2763889231034472  0.4027781149341209  1.0000
  H   H347      1.0  0.89315588164904  0.278957962770866  0.39508351926791163  1.0000
  H   H348      1.0  0.924281920865534  0.3165293748257064  0.38334884588594875  1.0000
  N   N14       1.0  0.5746493173109404  0.9199998339284714  0.08288419407247341  1.0000
  C   C341      1.0  0.5703675451463172  0.881303739378929  0.07026967391849058  1.0000
  C   C342      1.0  0.61421181660447  0.9298125248172745  0.08535650132157156  1.0000
  C   C343      1.0  0.5570950363151778  0.9203201689115216  0.11098212428792395  1.0000
  C   C344      1.0  0.5568134540924552  0.9485525116265551  0.06492964830209981  1.0000
  H   H349      1.0  0.5408788496525286  0.8740075151124606  0.06671102708398269  1.0000
  H   H350      1.0  0.5815576910450997  0.8585606455765519  0.08397373013144059  1.0000
  H   H351      1.0  0.5846674657140914  0.8794433149640997  0.04957950277546685  1.0000
  H   H352      1.0  0.6184467598814202  0.9589586644839168  0.09469513955484561  1.0000
  H   H353      1.0  0.6282496491914586  0.9090727813406838  0.09916405893662344  1.0000
  H   H354      1.0  0.6285360901360854  0.9295546699177489  0.06463487098304098  1.0000
  H   H355      1.0  0.5690700949296601  0.8982573989881442  0.1248529476978717  1.0000
  H   H356      1.0  0.5269539923384446  0.9141908838337807  0.10978542650950839  1.0000
  H   H357      1.0  0.560958517467695  0.9487295472264708  0.12151606363243997  1.0000
  H   H358      1.0  0.5594517539471258  0.9781260807324235  0.07379556256027783  1.0000
  H   H359      1.0  0.5268448911188061  0.9418093346312625  0.06275145363792245  1.0000
  H   H360      1.0  0.5691834766547111  0.9489405413742052  0.043482702457241285  1.0000
  N   N15       1.0  0.6465092068884358  0.9743504950895159  0.2747655669310899  1.0000
  C   C345      1.0  0.6597491023383569  0.9876614757681335  0.3022874514578803  1.0000
  C   C346      1.0  0.6594986311953718  0.001400310211211453  0.2527463554086961  1.0000
  C   C347      1.0  0.6058390532892273  0.9724995419065999  0.2751517642054829  1.0000
  C   C348      1.0  0.6609357427724442  0.9356459044383373  0.2688522685606492  1.0000
  H   H361      1.0  0.6903774543003092  0.9893418263287103  0.3026878640277645  1.0000
  H   H362      1.0  0.6503797219125832  0.9680228336716017  0.31941366030951884  1.0000
  H   H363      1.0  0.6497095939072403  0.016925298905612562  0.3073885420162892  1.0000
  H   H364      1.0  0.6508146463024764  0.9916479971239094  0.23161179338810076  1.0000
  H   H365      1.0  0.6483889334606149  0.03071677367221115  0.25614915704782093  1.0000
  H   H366      1.0  0.6900562313341766  0.004510161751401842  0.25240449059738446  1.0000
  H   H367      1.0  0.5951325335328017  0.9611891579743198  0.2550074324002425  1.0000
  H   H368      1.0  0.5939038208404555  0.0015010060289490923  0.27847048830099247  1.0000
  H   H369      1.0  0.5950464277965103  0.95310557398311  0.2919854196996617  1.0000
  H   H370      1.0  0.652579255760317  0.9147212955882426  0.28549263164892086  1.0000
  H   H371      1.0  0.6915286158360829  0.9360788387450231  0.26739542760840845  1.0000
  H   H372      1.0  0.650261669319387  0.9240268684156969  0.24878230711847568  1.0000
  N   N16       1.0  0.15850910140453445  0.6594834289883112  0.3621823236631189  1.0000
  C   C349      1.0  0.19243779978911119  0.6775654647759612  0.3732565284665978  1.0000
  C   C350      1.0  0.15391606874902294  0.6201832888731938  0.3736854311157381  1.0000
  C   C351      1.0  0.16131110151924208  0.6574407593769992  0.3313552132031862  1.0000
  C   C352      1.0  0.12638068480900772  0.6827148420505755  0.37033223496893763  1.0000
  H   H373      1.0  0.19137711904656157  0.6794365084681091  0.39649996059557574  1.0000
  H   H374      1.0  0.1966869268120733  0.7072813361736111  0.3649684258751728  1.0000
  H   H375      1.0  0.21717052939337464  0.6606787333669375  0.3673320778211222  1.0000
  H   H376      1.0  0.15051538812644977  0.6205730338963932  0.3968377476804624  1.0000
  H   H377      1.0  0.1293186049275113  0.6050414548625997  0.3649302570514697  1.0000
  H   H378      1.0  0.17823448463025815  0.602275646845568  0.3686752933481989  1.0000
  H   H379      1.0  0.13622794521092113  0.6438023448599485  0.32241989055605913  1.0000
  H   H380      1.0  0.18531031750936344  0.6403018970616481  0.3243189779241058  1.0000
  H   H381      1.0  0.16403709883372922  0.6866251875031304  0.3218455551049105  1.0000
  H   H382      1.0  0.10032717330015888  0.6695824652012524  0.3624396905202524  1.0000
  H   H383      1.0  0.12843196052096834  0.7122663101891766  0.3613345106340397  1.0000
  H   H384      1.0  0.12354728175677748  0.6854637705296107  0.3934316173642535  1.0000
  N   N17       1.0  0.23154456761247705  0.7807055413630316  0.6872931249315513  1.0000
  C   C353      1.0  0.19681916550852213  0.7584105148179923  0.6914070727330419  1.0000
  C   C354      1.0  0.2626501694072097  0.7572118758832184  0.6962960682249483  1.0000
  C   C355      1.0  0.23035514430019804  0.8164696276418442  0.7041039902259056  1.0000
  C   C356      1.0  0.2364575589768529  0.7905032296817545  0.6573700603907642  1.0000
  H   H385      1.0  0.17253435904573156  0.7752126548405843  0.6851268580452496  1.0000
  H   H386      1.0  0.19258487156292653  0.7499516437286019  0.7137304229856649  1.0000
  H   H387      1.0  0.1968130399759258  0.7313337696709198  0.6788499037296409  1.0000
  H   H388      1.0  0.2893387067037497  0.7730396254830993  0.6938699050381211  1.0000
  H   H389      1.0  0.25961835875345535  0.7486566368591908  0.7186533924607214  1.0000
  H   H390      1.0  0.2645853766761294  0.7303612940686429  0.6836378796060193  1.0000
  H   H391      1.0  0.25612605112231274  0.8340485414281924  0.7013940625323831  1.0000
  H   H392      1.0  0.22685009268273632  0.8100917504144698  0.7268161146681766  1.0000
  H   H393      1.0  0.20718056869799265  0.8349418230666228  0.6978565451317708  1.0000
  H   H394      1.0  0.23785732894476047  0.7641076746085154  0.6441291064346594  1.0000
  H   H395      1.0  0.2624059563485372  0.8073849833010587  0.6535654871686286  1.0000
  H   H396      1.0  0.21341473049611556  0.8081446158414614  0.6497733184177726  1.0000
  N   N18       1.0  0.9365614192415174  0.7561210916995201  0.7421116394259126  1.0000
  C   C357      1.0  0.9127006176393541  0.7259983958741218  0.7295294235192  1.0000
  C   C358      1.0  0.9307853187991006  0.7931636748941867  0.7278257615710295  1.0000
  C   C359      1.0  0.9755094554088785  0.7452528534563784  0.7389305837299271  1.0000
  C   C360      1.0  0.9273102391665797  0.7599989479573274  0.7721888186784831  1.0000
  H   H397      1.0  0.9163670016253975  0.6975946080742785  0.7397201214073034  1.0000
  H   H398      1.0  0.9190193584820914  0.7222241324752031  0.7068278612744828  1.0000
  H   H399      1.0  0.8830702216403138  0.7333315406884933  0.7313710540588204  1.0000
  H   H400      1.0  0.9362689853972777  0.7907388173558252  0.7049009261277068  1.0000
  H   H401      1.0  0.9018656806548653  0.8026873123211185  0.7304727057952678  1.0000
  H   H402      1.0  0.9491054607456723  0.8163723224760983  0.736155525401112  1.0000
  H   H403      1.0  0.9944956947068995  0.7674791148438677  0.7477844129812892  1.0000
  H   H404      1.0  0.9833941870306282  0.7410473931000164  0.7165374990682444  1.0000
  H   H405      1.0  0.980956906704149  0.7177946976457057  0.749962373626867  1.0000
  H   H406      1.0  0.9449890791894089  0.7823654560752955  0.7823617058128718  1.0000
  H   H407      1.0  0.9315321358862557  0.732461792211194  0.7835143350144342  1.0000
  H   H408      1.0  0.8980810330273065  0.7681529642950876  0.7754392115783518  1.0000
  N   N19       1.0  0.5535364424481469  0.24820651053654946  0.040252995777142475  1.0000
  C   C361      1.0  0.5742257533009423  0.28405398322777503  0.03337865338434365  1.0000
  C   C362      1.0  0.5262035594622532  0.25611878270709804  0.06265521699975074  1.0000
  C   C363      1.0  0.5794021859500366  0.21896175062259327  0.05002256664847149  1.0000
  C   C364      1.0  0.5343768466158036  0.23387942500211034  0.015086732253489332  1.0000
  H   H409      1.0  0.5557817665872803  0.3062531090527503  0.024952148523391893  1.0000
  H   H410      1.0  0.5960631242493682  0.2789827751464003  0.017317122463656354  1.0000
  H   H411      1.0  0.5875616990460292  0.29649226330852424  0.052278227016617995  1.0000
  H   H412      1.0  0.5105354755210182  0.22959927220943796  0.06881897794343383  1.0000
  H   H413      1.0  0.5397024070531588  0.26788092673682784  0.08174845599994662  1.0000
  H   H414      1.0  0.5058379164161919  0.277568052562597  0.05577134667793504  1.0000
  H   H415      1.0  0.5943728654202226  0.22917448900423093  0.06892863951648942  1.0000
  H   H416      1.0  0.6004081748881841  0.212242771246582  0.03363486972963314  1.0000
  H   H417      1.0  0.5647724317715804  0.19159400048823463  0.05568458212070371  1.0000
  H   H418      1.0  0.5188356276032043  0.2065791694587483  0.019356855257917527  1.0000
  H   H419      1.0  0.5540013715769179  0.22828322647120855  0.9974712507310861  1.0000
  H   H420      1.0  0.5141998339500513  0.25515328343009513  0.007537253310035741  1.0000
  N   N20       1.0  0.6624813600507019  0.4052343786235789  0.9810914538834686  1.0000
  C   C365      1.0  0.6232917623822234  0.3936564415174698  0.9841271249473099  1.0000
  C   C366      1.0  0.6686970670317226  0.4236024802810142  0.9535255931322043  1.0000
  C   C367      1.0  0.6856545471184767  0.37086314017267397  0.9831958653901279  1.0000
  C   C368      1.0  0.6722144530542699  0.43287756685413115  0.0034745952283756765  1.0000
  H   H421      1.0  0.6171748563582793  0.3807930636220304  0.005017220874876216  1.0000
  H   H422      1.0  0.6150430273117099  0.3723156794238559  0.9678615224007547  1.0000
  H   H423      1.0  0.6051923047123838  0.41887380116148254  0.9819619184380185  1.0000
  H   H424      1.0  0.6616522417081876  0.4034538290249561  0.9361597373058818  1.0000
  H   H425      1.0  0.6512785243950117  0.4494129243965222  0.9511248977190474  1.0000
  H   H426      1.0  0.6979401377610626  0.43291282772514555  0.9505255875910313  1.0000
  H   H427      1.0  0.7154995175906687  0.3786150156648918  0.9815704408757104  1.0000
  H   H428      1.0  0.6793606139932566  0.34957759819641393  0.9664144620797156  1.0000
  H   H429      1.0  0.6814436012211159  0.35610227982349413  0.003655080510497788  1.0000
  H   H430      1.0  0.6680362793642058  0.4198824187902176  0.024525803976958693  1.0000
  H   H431      1.0  0.6547801355485793  0.4589004645816893  0.0028709515450604517  1.0000
  H   H432      1.0  0.7015952299458911  0.4423395177166677  0.0018827729068553456  1.0000
  N   N21       1.0  0.15277670188404804  0.07030281607572197  0.2910890644735252  1.0000
  C   C369      1.0  0.14307828774199147  0.030338589533751126  0.28288840242372654  1.0000
  C   C370      1.0  0.12768848466035468  0.08288581661059258  0.31382482696561415  1.0000
  C   C371      1.0  0.1492276998841351  0.09591272477908763  0.2666555883878942  1.0000
  C   C372      1.0  0.19112669785885725  0.07212272468020853  0.3010016099391395  1.0000
  H   H433      1.0  0.1615808056207655  0.019800014758555085  0.26587612186865706  1.0000
  H   H434      1.0  0.11439879497184256  0.028048143807932524  0.27504037881003635  1.0000
  H   H435      1.0  0.14505371490805882  0.010198725129911379  0.30085126712556615  1.0000
  H   H436      1.0  0.09856778025431474  0.08271620041172612  0.3069877166689078  1.0000
  H   H437      1.0  0.12931527770592158  0.06393375936629297  0.332483804337626  1.0000
  H   H438      1.0  0.13459087605734407  0.11268400672782031  0.3208397388150394  1.0000
  H   H439      1.0  0.1566821033691613  0.12626443207883553  0.27199681146985244  1.0000
  H   H440      1.0  0.1205477236074962  0.0956078737886763  0.25870584740404473  1.0000
  H   H441      1.0  0.16768835664333442  0.08723261101286606  0.24906067935589235  1.0000
  H   H442      1.0  0.19479756405419207  0.05360982391011704  0.3196943278239491  1.0000
  H   H443      1.0  0.1993453457264879  0.10200561360406524  0.30710867833992905  1.0000
  H   H444      1.0  0.21091728826515227  0.06272685411811318  0.2844812304643827  1.0000
  N   N22       1.0  0.8535620731584594  0.2520180251924507  0.5224486578018872  1.0000
  C   C373      1.0  0.8940792543638956  0.2496921823852822  0.5202570122995748  1.0000
  C   C374      1.0  0.8369265189774727  0.23023051700935757  0.4991213031890788  1.0000
  C   C375      1.0  0.8424791984679715  0.2927133002541067  0.5209381312726313  1.0000
  C   C376      1.0  0.8407711298622046  0.2352750499770984  0.5493763801797803  1.0000
  H   H445      1.0  0.9076991485127196  0.2655375080715886  0.5376347995424599  1.0000
  H   H446      1.0  0.9046509348926258  0.26209983536198794  0.5001828896424072  1.0000
  H   H447      1.0  0.9031592022738294  0.21917705449258068  0.5210373511238258  1.0000
  H   H448      1.0  0.8454741120561209  0.19971799837684773  0.4991668232532023  1.0000
  H   H449      1.0  0.8063431061807638  0.23030821176246224  0.5004416443890158  1.0000
  H   H450      1.0  0.845485318787535  0.24253501349107362  0.47849905225465267  1.0000
  H   H451      1.0  0.8120170504271138  0.29544210602237475  0.5226348666696887  1.0000
  H   H452      1.0  0.8511472526583583  0.30620169750073595  0.5007089055988039  1.0000
  H   H453      1.0  0.8547226296141928  0.3103202216233637  0.5380243856597038  1.0000
  H   H454      1.0  0.8102037220842777  0.23530082667057697  0.5513791944306017  1.0000
  H   H455      1.0  0.8520887170701967  0.2515907802399378  0.5674702787299943  1.0000
  H   H456      1.0  0.8495520221226948  0.20490998479258066  0.5515361294379013  1.0000
  N   N23       1.0  0.6454218017960338  0.3866090339103298  0.23565236828598368  1.0000
  C   C377      1.0  0.6356585378797893  0.42229018422789405  0.25078290080661375  1.0000
  C   C378      1.0  0.6320897280304902  0.38864783728469376  0.20663223583080076  1.0000
  C   C379      1.0  0.6281801296267395  0.35290648540141467  0.24986670809169162  1.0000
  C   C380      1.0  0.6858505038145315  0.3826368748001449  0.23530509055993562  1.0000
  H   H457      1.0  0.6456416516614921  0.4220857659104399  0.27269922668637314  1.0000
  H   H458      1.0  0.605353501734081  0.42624248498643347  0.25157391313652216  1.0000
  H   H459      1.0  0.6481325264284081  0.4482327400712883  0.24040044400460017  1.0000
  H   H460      1.0  0.640150530946414  0.3629143569452411  0.19425166537485053  1.0000
  H   H461      1.0  0.6015936544010156  0.3904738827973031  0.20599913190544122  1.0000
  H   H462      1.0  0.6437119714881787  0.41430533160921346  0.19549637428712302  1.0000
  H   H463      1.0  0.5976425886114839  0.3546677869748134  0.2503624538725658  1.0000
  H   H464      1.0  0.6375819480424242  0.3504042725832219  0.27181837446134793  1.0000
  H   H465      1.0  0.6352120933356821  0.32548438917975775  0.23904153900022962  1.0000
  H   H466      1.0  0.6997704529146405  0.407822022376729  0.2251850705035134  1.0000
  H   H467      1.0  0.6944290440293764  0.3567218108439625  0.22334662278384548  1.0000
  H   H468      1.0  0.6967977479998596  0.3802397853501495  0.25682231982585313  1.0000
  N   N24       1.0  0.08911440102045765  0.07221442211774964  0.693566836201215  1.0000
  C   C381      1.0  0.09175386152749221  0.05124169477663432  0.7202867235942716  1.0000
  C   C382      1.0  0.07064989353382489  0.10924765559681204  0.6984973786037435  1.0000
  C   C383      1.0  0.06758360269925778  0.04873693551043812  0.673565100435954  1.0000
  C   C384      1.0  0.12654883997527838  0.07965160443938046  0.6819983297483028  1.0000
  H   H469      1.0  0.10679444183917436  0.02380474995972781  0.717659255834165  1.0000
  H   H470      1.0  0.06423169307223486  0.04381193380613291  0.7292843323459374  1.0000
  H   H471      1.0  0.10655165960577216  0.06871602254926379  0.7362194391161837  1.0000
  H   H472      1.0  0.06874171904259496  0.12612323528054042  0.6788458398097874  1.0000
  H   H473      1.0  0.04210520581621058  0.10472575945680718  0.706760940585479  1.0000
  H   H474      1.0  0.08571516227673069  0.12727912417108134  0.7140257717021634  1.0000
  H   H475      1.0  0.06532259859637568  0.06351176939823278  0.6530572330462138  1.0000
  H   H476      1.0  0.038963701692409806  0.04308826647523012  0.6814755086942512  1.0000
  H   H477      1.0  0.08047459717313377  0.020348701944941983  0.6697229758656504  1.0000
  H   H478      1.0  0.12588191769965495  0.09473917998379644  0.6615258156209131  1.0000
  H   H479      1.0  0.14180975652608963  0.052435416076729746  0.6787438420429772  1.0000
  H   H480      1.0  0.1432922333759969  0.09792178025170428  0.6963531553759601  1.0000
  N   N25       1.0  0.48239714880781054  0.4584017155368682  0.8602800017695772  1.0000
  C   C385      1.0  0.4880360759220583  0.4916035530932171  0.8792295612799746  1.0000
  C   C386      1.0  0.44724132667262134  0.4384656756326425  0.8675648180908518  1.0000
  C   C387      1.0  0.5129974965849015  0.43133615676584147  0.8633021229447015  1.0000
  C   C388      1.0  0.4814131155945594  0.4722296652893434  0.8310679550409676  1.0000
  H   H481      1.0  0.514204160755469  0.5074272975262963  0.8741386067109325  1.0000
  H   H482      1.0  0.4893681510133541  0.48230626602296073  0.9014553755432437  1.0000
  H   H483      1.0  0.4653927916326657  0.5125822132716961  0.8776689662499905  1.0000
  H   H484      1.0  0.44198395690656056  0.4132897621040485  0.8536054701955823  1.0000
  H   H485      1.0  0.44725057587558376  0.4271753218949408  0.8893752760620321  1.0000
  H   H486      1.0  0.4234449377535429  0.45796427950518  0.8658495775297521  1.0000
  H   H487      1.0  0.5094704556370725  0.4056507559071788  0.8495640007685811  1.0000
  H   H488      1.0  0.5147385579141963  0.4206235524267601  0.8851568703884168  1.0000
  H   H489      1.0  0.5400008616303509  0.44528267870574395  0.8579122953894672  1.0000
  H   H490      1.0  0.45889339554086706  0.4930605288388007  0.8280385197925842  1.0000
  H   H491      1.0  0.4770715105139773  0.44804291889695297  0.8161012849263454  1.0000
  H   H492      1.0  0.5076032173599455  0.48735999775729755  0.8248760584913154  1.0000
  N   N26       1.0  0.46780008109266663  0.15584240645718314  0.8401730872939803  1.0000
  C   C389      1.0  0.46629161545040015  0.12276865355095354  0.8595869323863763  1.0000
  C   C390      1.0  0.4329982819760489  0.15738750158157996  0.8246414895596976  1.0000
  C   C391      1.0  0.49885631427399696  0.15122599438966466  0.8201839286786639  1.0000
  C   C392      1.0  0.47308136434576364  0.19188813936814897  0.8562696276827252  1.0000
  H   H493      1.0  0.49237027181411996  0.12044005312751928  0.8713707745380643  1.0000
  H   H494      1.0  0.4618399719484143  0.0951172657622128  0.8481303465775626  1.0000
  H   H495      1.0  0.4435411328978778  0.12548534640818468  0.8752543640132359  1.0000
  H   H496      1.0  0.4332568600596472  0.18189339414230501  0.809686014807203  1.0000
  H   H497      1.0  0.42822435248635976  0.13054280304801805  0.8122775631867096  1.0000
  H   H498      1.0  0.40894283631590866  0.16073110898754914  0.8390577553448515  1.0000
  H   H499      1.0  0.5012588790236929  0.1758589435749837  0.8054163128173111  1.0000
  H   H500      1.0  0.49553024908994  0.12450001555335195  0.8074902662194609  1.0000
  H   H501      1.0  0.5254966392175641  0.14930035106680684  0.8311828081960572  1.0000
  H   H502      1.0  0.4990661492219575  0.19155239041051197  0.8682099245769478  1.0000
  H   H503      1.0  0.4503400310783381  0.19622723882448959  0.8717533942260827  1.0000
  H   H504      1.0  0.4744935725226875  0.21753880744615237  0.8423686741681365  1.0000
  N   N27       1.0  0.24109896045801502  0.26198221259818255  0.9262771042837611  1.0000
  C   C393      1.0  0.27413935377232734  0.25834492221673866  0.9436830413436739  1.0000
  C   C394      1.0  0.2506355881307182  0.2849874694947844  0.9011566330011067  1.0000
  C   C395      1.0  0.2119652112317336  0.2814489436064157  0.9425921927975529  1.0000
  C   C396      1.0  0.22768200861878085  0.22333767285086548  0.9176742657384921  1.0000
  H   H505      1.0  0.26806129408671703  0.24129367962352954  0.9629221001342555  1.0000
  H   H506      1.0  0.28483358616164095  0.2871353070606505  0.9504838597845479  1.0000
  H   H507      1.0  0.29686897503787407  0.2441178244331899  0.9319991485050018  1.0000
  H   H508      1.0  0.22658858452349817  0.28789003464011126  0.8872613140657385  1.0000
  H   H509      1.0  0.2600502384577637  0.31453785989284033  0.9069919370449474  1.0000
  H   H510      1.0  0.27319512507223553  0.27175711727505425  0.8886608758296917  1.0000
  H   H511      1.0  0.18692636337297294  0.28555019581487445  0.9299507591946696  1.0000
  H   H512      1.0  0.22136000433233613  0.3104693601554659  0.9497430464328522  1.0000
  H   H513      1.0  0.20363076952503634  0.264649927541619  0.9614858661728519  1.0000
  H   H514      1.0  0.20239695919025014  0.22514925465889724  0.9049038212033709  1.0000
  H   H515      1.0  0.22065277338964656  0.20495587413180877  0.9360946706446998  1.0000
  H   H516      1.0  0.24863331100514616  0.20808845065445558  0.9047890304587655  1.0000
  N   N28       1.0  0.9537029034070418  0.5424094624986229  0.4626410516079842  1.0000
  C   C397      1.0  0.9936573498248406  0.5503943506841606  0.4645877767703907  1.0000
  C   C398      1.0  0.9346807581206334  0.5575449719471198  0.48779908315690085  1.0000
  C   C399      1.0  0.9470775695918557  0.5003782210208985  0.46075553015274345  1.0000
  C   C400      1.0  0.939419098635693  0.5612066689630222  0.43740645388020605  1.0000
  H   H517      1.0  0.008735971691460342  0.5391113494211488  0.44591783097473764  1.0000
  H   H518      1.0  0.005274187763067317  0.5366652390625587  0.4834458868657693  1.0000
  H   H519      1.0  0.9996548360507644  0.5818843539384435  0.4659372586326517  1.0000
  H   H520      1.0  0.9441044889954283  0.5434164877324829  0.507259008850686  1.0000
  H   H521      1.0  0.9391682215721945  0.5891450881438043  0.49019953258164045  1.0000
  H   H522      1.0  0.9044930476608762  0.5521365162667847  0.486845283862089  1.0000
  H   H523      1.0  0.9172074232292479  0.493328744603644  0.4594201413983418  1.0000
  H   H524      1.0  0.9574542875590734  0.48511109728094465  0.47939533764570047  1.0000
  H   H525      1.0  0.960456093518129  0.4879039943496604  0.4417544202591647  1.0000
  H   H526      1.0  0.9533290585034252  0.5506312869407368  0.41801673770937503  1.0000
  H   H527      1.0  0.9434519157490755  0.5930158662306886  0.43816144873763513  1.0000
  H   H528      1.0  0.9094490165295133  0.5552280632297885  0.4349822796932389  1.0000
  N   N29       1.0  0.3180069520016607  0.4735410201644974  0.5179183776324608  1.0000
  C   C401      1.0  0.29650759151521494  0.43740618485243316  0.522138518955035  1.0000
  C   C402      1.0  0.2980480015840665  0.49898679128345713  0.4988566404980884  1.0000
  C   C403      1.0  0.3543790672361856  0.46455620951632515  0.5055447240894979  1.0000
  C   C404      1.0  0.32313770908514955  0.4932236164506832  0.5450787155169065  1.0000
  H   H529      1.0  0.29243731770813575  0.4218337579287523  0.5019479234939851  1.0000
  H   H530      1.0  0.2687517079939685  0.44306182317474607  0.5312111016410819  1.0000
  H   H531      1.0  0.31069294581459084  0.4174540602405512  0.5364196120510933  1.0000
  H   H532      1.0  0.31405706126683725  0.5258310587764963  0.4942533204189878  1.0000
  H   H533      1.0  0.2926744813968811  0.484673141872224  0.4784591556380446  1.0000
  H   H534      1.0  0.27099988595160796  0.507466151561143  0.5078915465088892  1.0000
  H   H535      1.0  0.3515516831421682  0.4497692590934069  0.484949556133849  1.0000
  H   H536      1.0  0.3700993910209399  0.44520683888999113  0.5192878046888741  1.0000
  H   H537      1.0  0.3713985564884018  0.49117442690951174  0.5021258238489136  1.0000
  H   H538      1.0  0.33932089596612447  0.5205413257621098  0.5425086709584097  1.0000
  H   H539      1.0  0.3382105313729364  0.4749746659421156  0.5600164412824281  1.0000
  H   H540      1.0  0.29631272931947444  0.500679218944972  0.5550362105680621  1.0000
  N   N30       1.0  0.3963936108631982  0.9391828643035744  0.7242656892978219  1.0000
  C   C405      1.0  0.39121937439749555  0.8971372035497133  0.7275204556142623  1.0000
  C   C406      1.0  0.39781351068808557  0.9488896090345748  0.6941819216208597  1.0000
  C   C407      1.0  0.4311862244483186  0.9516805878283248  0.7373920551504919  1.0000
  C   C408      1.0  0.36527421390714576  0.9590673086991394  0.7379146774002939  1.0000
  H   H541      1.0  0.413606205455729  0.8811119481532387  0.7167648417668606  1.0000
  H   H542      1.0  0.3647324215188275  0.8872215642038797  0.7183176356353771  1.0000
  H   H543      1.0  0.39061522424526834  0.8886505308542323  0.7499388952162614  1.0000
  H   H544      1.0  0.37235619134470066  0.9391084470591821  0.6834648837797687  1.0000
  H   H545      1.0  0.4006017663306419  0.9804914649606432  0.6909303850370104  1.0000
  H   H546      1.0  0.4214690000724028  0.9352415769348789  0.6832609133522348  1.0000
  H   H547      1.0  0.4358951160310477  0.9831538577476745  0.7348613897588542  1.0000
  H   H548      1.0  0.4553245129600019  0.9371751684425472  0.727765480665499  1.0000
  H   H549      1.0  0.4309341558882062  0.9457146872986011  0.760247428878786  1.0000
  H   H550      1.0  0.36817058690293053  0.9908759311735293  0.735747664637081  1.0000
  H   H551      1.0  0.3633796123880551  0.9525891381284795  0.7606607634416365  1.0000
  H   H552      1.0  0.33852337667263704  0.950314112326223  0.7284856303892667  1.0000
  N   N31       1.0  0.5576291245461926  0.7283174846504175  0.2202054376354461  1.0000
  C   C409      1.0  0.5930168377559046  0.7120999190017224  0.21074593109141013  1.0000
  C   C410      1.0  0.5616080951975907  0.7706299197164957  0.22249439954848377  1.0000
  C   C411      1.0  0.5471536891612536  0.7120521886494604  0.2478236309939271  1.0000
  C   C412      1.0  0.5288786158069989  0.7185614020918517  0.1996764384011096  1.0000
  H   H553      1.0  0.5910458221817333  0.6801750416889307  0.2086598654415427  1.0000
  H   H554      1.0  0.6153656395903934  0.7192059875366869  0.22569957391400508  1.0000
  H   H555      1.0  0.6016391813577431  0.723718771932956  0.18992593291155443  1.0000
  H   H556      1.0  0.535610176121991  0.7840213787842191  0.22981267419844328  1.0000
  H   H557      1.0  0.5834355984939213  0.779054477897989  0.2375205355826959  1.0000
  H   H558      1.0  0.5692299667669044  0.783733010654514  0.20194543158368344  1.0000
  H   H559      1.0  0.5207348650983156  0.7238405337878032  0.25578836396668053  1.0000
  H   H560      1.0  0.5684329099373705  0.7186172927048928  0.26375665386091207  1.0000
  H   H561      1.0  0.5437574095482248  0.680121936947538  0.2469112453166893  1.0000
  H   H562      1.0  0.5360533467736596  0.7304091878345772  0.17859118209874766  1.0000
  H   H563      1.0  0.5018243503746571  0.7305556970394547  0.20601375116121962  1.0000
  H   H564      1.0  0.5252844725300555  0.6868270101183925  0.19729185346904646  1.0000
  N   N32       1.0  0.7100520576093687  0.19581158048888433  0.378421505855009  1.0000
  C   C413      1.0  0.7139538207496599  0.23817800947880657  0.38035326031560396  1.0000
  C   C414      1.0  0.7317082084080204  0.1818301153145979  0.3541336447667813  1.0000
  C   C415      1.0  0.6707989209843858  0.18498934520103877  0.37506447252099645  1.0000
  C   C416      1.0  0.7239497807011793  0.17827238965357767  0.40421166615987847  1.0000
  H   H565      1.0  0.6981308304761003  0.24970814190485682  0.39854220387459327  1.0000
  H   H566      1.0  0.7038049564765756  0.25236205018540403  0.36117224950186877  1.0000
  H   H567      1.0  0.7432654883980883  0.24730085447485506  0.382919750638727  1.0000
  H   H568      1.0  0.7295927183881307  0.1499081549353105  0.35209733828280004  1.0000
  H   H569      1.0  0.7220709844214481  0.19440511315585507  0.334225939335029  1.0000
  H   H570      1.0  0.7614607898056046  0.1895408552018307  0.35610541775303295  1.0000
  H   H571      1.0  0.6669055774128329  0.15334441515314137  0.37228446145917704  1.0000
  H   H572      1.0  0.6588190534993308  0.1990995612026311  0.3565167106507157  1.0000
  H   H573      1.0  0.6538342796871816  0.19357315700943445  0.3935449832921225  1.0000
  H   H574      1.0  0.7209729488240704  0.14636676687452613  0.4036126398637433  1.0000
  H   H575      1.0  0.7087538046421948  0.18846542374277728  0.4231087325136375  1.0000
  H   H576      1.0  0.7536439707751322  0.1853050888131474  0.4070146911187043  1.0000
  N   N33       1.0  0.21874253312388578  0.5547595273172385  0.7670735314571089  1.0000
  C   C417      1.0  0.1801761488606216  0.5672825632414679  0.7655714397801913  1.0000
  C   C418      1.0  0.21952019795734398  0.5145245757288937  0.7770463423559895  1.0000
  C   C419      1.0  0.23916960123584205  0.5799703531692946  0.7866562421457359  1.0000
  C   C420      1.0  0.2361026350011431  0.5573433402520918  0.7389670245530218  1.0000
  H   H577      1.0  0.17860125810544605  0.5977905576240887  0.7588249696278766  1.0000
  H   H578      1.0  0.1659755492559755  0.5652897473926747  0.7862367729034072  1.0000
  H   H579      1.0  0.16399933450662477  0.5494672389276075  0.7506039980295821  1.0000
  H   H580      1.0  0.24817770983348972  0.50403695645177  0.7784070733970199  1.0000
  H   H581      1.0  0.20685368857387346  0.5116136420331548  0.7982960004651488  1.0000
  H   H582      1.0  0.20399225122765535  0.49471692819601604  0.762993982718737  1.0000
  H   H583      1.0  0.2683413206661915  0.5712888800739393  0.7884674913519021  1.0000
  H   H584      1.0  0.2265639487842372  0.5793310577603956  0.8079607954520166  1.0000
  H   H585      1.0  0.23921738911878135  0.6105130542007766  0.7797886145618024  1.0000
  H   H586      1.0  0.2654634383990048  0.5488384789946071  0.7392901957680865  1.0000
  H   H587      1.0  0.2353964235411719  0.5872422250286491  0.7307500023091328  1.0000
  H   H588      1.0  0.22160869621447699  0.5385205323405624  0.7236391022426683  1.0000
  N   N34       1.0  0.7837786800791585  0.5770957667283516  0.7690580784302141  1.0000
  C   C421      1.0  0.7747246520691504  0.6013165652364545  0.7448731871615438  1.0000
  C   C422      1.0  0.7863616145240793  0.5365817290811024  0.7598422520296205  1.0000
  C   C423      1.0  0.7546295045111999  0.5805013743952457  0.7908070107706222  1.0000
  C   C424      1.0  0.819458645660625  0.590114687349694  0.7805653289941064  1.0000
  H   H589      1.0  0.7475669175555475  0.5930556432281743  0.7359594732713569  1.0000
  H   H590      1.0  0.7956819141914185  0.5988904434186972  0.7277632907015569  1.0000
  H   H591      1.0  0.7735812871891177  0.6321608420209559  0.7509591966247637  1.0000
  H   H592      1.0  0.7599246471508222  0.525963268939086  0.750911739412669  1.0000
  H   H593      1.0  0.8081509736837027  0.5333305659070784  0.7433531491914921  1.0000
  H   H594      1.0  0.7932817181672542  0.5173754415461683  0.777518726663257  1.0000
  H   H595      1.0  0.7601806670542182  0.5623172718732348  0.8093302884035463  1.0000
  H   H596      1.0  0.7271376408538923  0.5716742367719692  0.7827252491275598  1.0000
  H   H597      1.0  0.7521865452579999  0.6107454635208097  0.7983580553421608  1.0000
  H   H598      1.0  0.8270557963512698  0.5727858052091604  0.7990711431461505  1.0000
  H   H599      1.0  0.8187423048849338  0.6208681298924138  0.7871418770379639  1.0000
  H   H600      1.0  0.8421241004301625  0.5875511959059523  0.7647478808980233  1.0000
  N   N35       1.0  0.09188758188208213  0.35500176841445985  0.026258216722194083  1.0000
  C   C425      1.0  0.1318669967954822  0.35121201495282023  0.030436490283528128  1.0000
  C   C426      1.0  0.08476327901238179  0.3617845744274332  0.9963310546173506  1.0000
  C   C427      1.0  0.07845130585411364  0.3878641296314366  0.04293827969299313  1.0000
  C   C428      1.0  0.07246303251914532  0.31934714795159536  0.03538606842850234  1.0000
  H   H601      1.0  0.14319889361870786  0.32710302762150184  0.017812239964585697  1.0000
  H   H602      1.0  0.13804093565798659  0.34581854413742735  0.05282924024109059  1.0000
  H   H603      1.0  0.1471704608802824  0.3779975750017716  0.024090521590856007  1.0000
  H   H604      1.0  0.09415597818594046  0.33744540357245223  0.9829667576700911  1.0000
  H   H605      1.0  0.0548838886347951  0.36561271573040344  0.9925168172371812  1.0000
  H   H606      1.0  0.09933357926449116  0.3882814668862198  0.9887737819045808  1.0000
  H   H607      1.0  0.09332716508164696  0.41497133987001883  0.03709101546087212  1.0000
  H   H608      1.0  0.08265022704035241  0.38353153143765717  0.06569261819865724  1.0000
  H   H609      1.0  0.0485532882280042  0.3923582957922717  0.039814653774791875  1.0000
  H   H610      1.0  0.04238021155681815  0.32101143699463003  0.03165956447192375  1.0000
  H   H611      1.0  0.07610538020219026  0.3141676367217292  0.05817311451530882  1.0000
  H   H612      1.0  0.08268964678250468  0.2937784784554934  0.023785585039429513  1.0000
  N   N36       1.0  0.8646509341488039  0.9281932795700523  0.13905083453372402  1.0000
  C   C429      1.0  0.886491545040681  0.9645441623432571  0.1384251900043203  1.0000
  C   C430      1.0  0.8455483715091543  0.9243233132614026  0.16646110430968686  1.0000
  C   C431      1.0  0.889435441422099  0.8953827088212216  0.13474561085602055  1.0000
  C   C432      1.0  0.837221012020915  0.9284594099500266  0.11654415909295035  1.0000
  H   H613      1.0  0.9020986633266549  0.9679007041329517  0.11828872008337021  1.0000
  H   H614      1.0  0.907255409404137  0.9653872021890552  0.15533680154290108  1.0000
  H   H615      1.0  0.8687783086924976  0.9901023886327897  0.14108103007538975  1.0000
  H   H616      1.0  0.827648762728877  0.8979775722079423  0.16724412915205367  1.0000
  H   H617      1.0  0.8654778873327087  0.9222789548529157  0.1838655946703609  1.0000
  H   H618      1.0  0.827617970268043  0.9493001580688918  0.1708834762657434  1.0000
  H   H619      1.0  0.9044758851573582  0.8974470717480392  0.11428533620644044  1.0000
  H   H620      1.0  0.8740800900181314  0.8673542792132963  0.13532616565850386  1.0000
  H   H621      1.0  0.9107091613467952  0.8947292028814104  0.15115664297474352  1.0000
  H   H622      1.0  0.8204251755552732  0.9012688922209681  0.11637508445693157  1.0000
  H   H623      1.0  0.8507935156136031  0.9314468550951429  0.09558836716824781  1.0000
  H   H624      1.0  0.817906810945183  0.9527551300569921  0.11916725313228316  1.0000
  N   N37       1.0  0.10753252951553827  0.9253375916038346  0.8750425173864204  1.0000
  C   C433      1.0  0.06845006517727681  0.9212390302066702  0.8837398694932754  1.0000
  C   C434      1.0  0.11680337935147733  0.8944435186551981  0.8549543287714582  1.0000
  C   C435      1.0  0.13100459596267955  0.9224076058376008  0.8999184561995461  1.0000
  C   C436      1.0  0.11379081732565322  0.9632360207499828  0.8615773096826886  1.0000
  H   H625      1.0  0.06042122764015856  0.9444612573781779  0.8986119645356447  1.0000
  H   H626      1.0  0.06285723993357495  0.8931289772358761  0.8943008559403819  1.0000
  H   H627      1.0  0.049875231508254236  0.9230230405390649  0.8655227305801245  1.0000
  H   H628      1.0  0.09967433136336812  0.8958499476708637  0.8358958743299233  1.0000
  H   H629      1.0  0.1462037298498562  0.8963836930365968  0.848190259769462  1.0000
  H   H630      1.0  0.11214430140318732  0.8654477547912721  0.8643187795143367  1.0000
  H   H631      1.0  0.16070017233980605  0.9255733800204674  0.894295025089783  1.0000
  H   H632      1.0  0.12718324823504945  0.8939801956183927  0.9104250966681532  1.0000
  H   H633      1.0  0.1244561370244548  0.9450696119968136  0.9156589704313562  1.0000
  H   H634      1.0  0.09619898192684051  0.9666593270297051  0.8429033935403916  1.0000
  H   H635      1.0  0.1429190449265596  0.9673470282513664  0.854528891400072  1.0000
  H   H636      1.0  0.10723714338746104  0.9871877140424703  0.8761975448668459  1.0000
  N   N38       1.0  0.03819583816337668  0.24152963810106723  0.8225463950430534  1.0000
  C   C437      1.0  0.05452209948977993  0.27747002456870856  0.8339528097133512  1.0000
  C   C438      1.0  0.06758366810118299  0.21796242188573753  0.8099398787465782  1.0000
  C   C439      1.0  0.01113300929258565  0.2508245649617418  0.8009271908662342  1.0000
  C   C440      1.0  0.019556245340212053  0.21972945680848238  0.84537047016153  1.0000
  H   H637      1.0  0.03327036673120953  0.2958502904598372  0.8439691978455099  1.0000
  H   H638      1.0  0.06880951012082481  0.2947634170744531  0.8173567096335216  1.0000
  H   H639      1.0  0.07523358950705128  0.2712241568340661  0.8501499198954976  1.0000
  H   H640      1.0  0.0561964353007669  0.19115184394754073  0.8003994700671841  1.0000
  H   H641      1.0  0.08319988244130494  0.23387629153621517  0.793311627602679  1.0000
  H   H642      1.0  0.08766304918769818  0.20905741512907222  0.8258267274798213  1.0000
  H   H643      1.0  0.9982218083131763  0.22411160553186424  0.7921290162894955  1.0000
  H   H644      1.0  0.024303404563787545  0.26687952547345417  0.7832088138971982  1.0000
  H   H645      1.0  0.9885666563461447  0.2686742776372318  0.8096452690332905  1.0000
  H   H646      1.0  0.007130306651186302  0.19223852745193648  0.8375111810252105  1.0000
  H   H647      1.0  0.9970397057243339  0.23650508604491421  0.8552566464054229  1.0000
  H   H648      1.0  0.039146491505239744  0.2123419052314451  0.8621396021476863  1.0000
  N   N39       1.0  0.7534277919222394  0.9037203204786559  0.7132943432910076  1.0000
  C   C441      1.0  0.714236433134251  0.9116411968812831  0.7084067861946676  1.0000
  C   C442      1.0  0.761896885118438  0.9102200343016872  0.7431009790163701  1.0000
  C   C443      1.0  0.7766683645895673  0.9298162930292426  0.6958831388729145  1.0000
  C   C444      1.0  0.7610908218382277  0.8633081025954404  0.7057854792198665  1.0000
  H   H649      1.0  0.6957419313488361  0.8927034368371538  0.7213104210491165  1.0000
  H   H650      1.0  0.7070901830698791  0.9072315278567914  0.6860533141088222  1.0000
  H   H651      1.0  0.7076118361373681  0.9418930064733427  0.7138551460693159  1.0000
  H   H652      1.0  0.7441099193553118  0.8919540406849454  0.7570332618979347  1.0000
  H   H653      1.0  0.7911145604241797  0.9036694313128275  0.7475360018991483  1.0000
  H   H654      1.0  0.7578426875776277  0.9407897062405328  0.7491783288265264  1.0000
  H   H655      1.0  0.806364862857673  0.9253178666828297  0.6996699919103627  1.0000
  H   H656      1.0  0.7711073250156906  0.9605668495080815  0.7006241257865078  1.0000
  H   H657      1.0  0.7719015951896069  0.9252459998244562  0.673148686096933  1.0000
  H   H658      1.0  0.7569189549148461  0.8577826073180762  0.6830816602027723  1.0000
  H   H659      1.0  0.7430773689702586  0.8427592566028665  0.7177290453654311  1.0000
  H   H660      1.0  0.7900441643501247  0.8559647868248881  0.7103730895377256  1.0000
  N   N40       1.0  0.4668650561796993  0.1191045799362868  0.28051171158747495  1.0000
  C   C445      1.0  0.48819927775645955  0.08549653647389621  0.2892518304485677  1.0000
  C   C446      1.0  0.47513415222582017  0.15221028790522467  0.2990358453748847  1.0000
  C   C447      1.0  0.42711368191662324  0.10945930020670724  0.2825120876864021  1.0000
  C   C448      1.0  0.4769531749289776  0.1291358364528769  0.25132238519131267  1.0000
  H   H661      1.0  0.4846401097688684  0.060838735593763404  0.27455012572240267  1.0000
  H   H662      1.0  0.4794334990122184  0.07535724236293674  0.3103710758429778  1.0000
  H   H663      1.0  0.5182031260113177  0.09249949417511716  0.2898805564677475  1.0000
  H   H664      1.0  0.5051594983858682  0.15910265745339922  0.2995123796370057  1.0000
  H   H665      1.0  0.46080522632606663  0.1785851204510127  0.2923520042419361  1.0000
  H   H666      1.0  0.46610504450739126  0.1461946789046156  0.3209179399721341  1.0000
  H   H667      1.0  0.4101286419484257  0.13415539583338917  0.2760678820925066  1.0000
  H   H668      1.0  0.41872061789772136  0.10193992261602602  0.30442851216022804  1.0000
  H   H669      1.0  0.4198673798536491  0.08438012524654503  0.26900832333608504  1.0000
  H   H670      1.0  0.46157673663482657  0.15445484538276358  0.24391518180094296  1.0000
  H   H671      1.0  0.4713120637127042  0.10466627745939783  0.23680094299069052  1.0000
  H   H672      1.0  0.5068593613360528  0.13613656126770277  0.2491523911443837  1.0000
  N   N41       1.0  0.9286731065501073  0.003212630488899082  0.3026853260795076  1.0000
  C   C449      1.0  0.936352092900276  0.9780147945477465  0.27840197836732744  1.0000
  C   C450      1.0  0.9167447387290169  0.9795112860456836  0.32691547915288294  1.0000
  C   C451      1.0  0.8992574982943451  0.03022065968406573  0.29563402240129694  1.0000
  C   C452      1.0  0.9624636082213989  0.025207366666136988  0.30979443691174935  1.0000
  H   H673      1.0  0.9580124222858988  0.9568131858734968  0.28315929735369977  1.0000
  H   H674      1.0  0.9465821902388305  0.9950766273068273  0.2600808860115127  1.0000
  H   H675      1.0  0.9113878241978906  0.9613543689882207  0.2719555872315685  1.0000
  H   H676      1.0  0.8915946285268087  0.9620615122787349  0.3221641185267092  1.0000
  H   H677      1.0  0.9386170861698014  0.9593350032391357  0.3330920308607136  1.0000
  H   H678      1.0  0.9102861332980415  0.9979199055971787  0.3454568038820742  1.0000
  H   H679      1.0  0.8931096976099622  0.049947558196915764  0.31343957789371485  1.0000
  H   H680      1.0  0.8732064450928854  0.014628996676739003  0.2904443914773309  1.0000
  H   H681      1.0  0.9073081708810148  0.04852123186280499  0.27737883098658667  1.0000
  H   H682      1.0  0.9588282214664355  0.04192628780272778  0.3294719550586786  1.0000
  H   H683      1.0  0.9701851438837457  0.046109880631120426  0.29304250189934145  1.0000
  H   H684      1.0  0.9862036433464173  0.005867922895717692  0.3126962281794011  1.0000
  N   N42       1.0  0.5336913879572479  0.6460535828768689  0.9706982792956738  1.0000
  C   C453      1.0  0.5339254483153655  0.6464701718939815  0.939801782937585  1.0000
  C   C454      1.0  0.5654338444162426  0.6689749288783917  0.9809658089363911  1.0000
  C   C455      1.0  0.5363420808295104  0.6058756363011405  0.9805078978055144  1.0000
  C   C456      1.0  0.49915610523024034  0.6629193639109904  0.981405885843183  1.0000
  H   H685      1.0  0.5604158665523409  0.6359220889693518  0.9310086279324747  1.0000
  H   H686      1.0  0.5301250987230757  0.6759013232361527  0.9316469132017727  1.0000
  H   H687      1.0  0.5115300956658971  0.6278665446310066  0.9311656574547116  1.0000
  H   H688      1.0  0.5659205139825618  0.6697008947910001  0.004226373333189537  1.0000
  H   H689      1.0  0.5919828940068775  0.6570649742470391  0.9733240887546212  1.0000
  H   H690      1.0  0.5644485721214886  0.6993658884829966  0.9737033211751421  1.0000
  H   H691      1.0  0.5620652673160336  0.5923655661641055  0.9725794989595017  1.0000
  H   H692      1.0  0.5130142618040607  0.5876749903426931  0.9728414164242903  1.0000
  H   H693      1.0  0.5362425759947953  0.6042289676925034  0.0037452804253153005  1.0000
  H   H694      1.0  0.4976964830917414  0.6624596083618586  0.004669628074114085  1.0000
  H   H695      1.0  0.4745634077032391  0.6470253849662464  0.9734420517529062  1.0000
  H   H696      1.0  0.49686302496421375  0.6935717172413034  0.9749011658596275  1.0000
  N   N43       1.0  0.49348304485678185  0.8426319493019515  0.8612239788001866  1.0000
  C   C457      1.0  0.5192441102695932  0.840111546244364  0.8847452913340933  1.0000
  C   C458      1.0  0.4607135564007082  0.81785256949665  0.866860092082083  1.0000
  C   C459      1.0  0.5121410202733466  0.829655810870407  0.8352690737574607  1.0000
  C   C460      1.0  0.48197788662254226  0.8829398533975517  0.8580183668602173  1.0000
  H   H697      1.0  0.5291025923929629  0.8103277570120259  0.8874262319620653  1.0000
  H   H698      1.0  0.5060764920126685  0.8487997958069  0.9049220395710574  1.0000
  H   H699      1.0  0.5439621430846141  0.8590660120552384  0.8812998240085923  1.0000
  H   H700      1.0  0.43945051721939826  0.8213194006988225  0.8506312348800362  1.0000
  H   H701      1.0  0.4679413823068876  0.7869305136903555  0.866759195675664  1.0000
  H   H702      1.0  0.44789020454301615  0.8244663600796097  0.8875989106432625  1.0000
  H   H703      1.0  0.4935564630160931  0.8309052592949049  0.8170527138728216  1.0000
  H   H704      1.0  0.5213466903321653  0.7993018368132921  0.8371799712478591  1.0000
  H   H705      1.0  0.5370169920471551  0.8478455369311578  0.8304643916985684  1.0000
  H   H706      1.0  0.5058109413868269  0.9020830423655307  0.8523867752691968  1.0000
  H   H707      1.0  0.4696376042052393  0.8942471496655354  0.8778122647917119  1.0000
  H   H708      1.0  0.46139899757041397  0.8858844293673186  0.8412485194693908  1.0000
  N   N44       1.0  0.709251721644985  0.1208533623533905  0.7819924592951814  1.0000
  C   C461      1.0  0.7351885993315114  0.09607133363108344  0.7968249554039869  1.0000
  C   C462      1.0  0.7256691908777853  0.13263013783398914  0.7547803517318726  1.0000
  C   C463      1.0  0.7016554949765952  0.15529124265611793  0.7992257980236598  1.0000
  C   C464      1.0  0.6744341501015733  0.09933269663336164  0.7772137645139013  1.0000
  H   H709      1.0  0.7233741272119277  0.08584679624434766  0.8171728514806773  1.0000
  H   H710      1.0  0.7615733889760125  0.11159815908107396  0.8011153805603275  1.0000
  H   H711      1.0  0.7421547577501905  0.07020811731111087  0.7842267918378218  1.0000
  H   H712      1.0  0.7066391670326717  0.1509246112538667  0.7428383721546978  1.0000
  H   H713      1.0  0.7519300347287522  0.14910397775747652  0.7575377696545921  1.0000
  H   H714      1.0  0.7321058716713386  0.10707785877059006  0.7415040149876523  1.0000
  H   H715      1.0  0.7271151916821945  0.1727052681177792  0.8029444171914535  1.0000
  H   H716      1.0  0.6896993679804359  0.14709633005485956  0.8200337157598199  1.0000
  H   H717      1.0  0.681328538909595  0.1741688080738948  0.7891134277209183  1.0000
  H   H718      1.0  0.6531916271264216  0.11792171562840714  0.7679533064100662  1.0000
  H   H719      1.0  0.6626236403661437  0.08769364099952792  0.7971183045465946  1.0000
  H   H720      1.0  0.6784874239743196  0.07473891921872267  0.7627191835856737  1.0000
  N   N45       1.0  0.8220888019504293  0.4210771225868421  0.1341413575889198  1.0000
  C   C465      1.0  0.8368767953019088  0.45035536801302734  0.11438148126438909  1.0000
  C   C466      1.0  0.7884984086478174  0.40312711901263265  0.12245561130915067  1.0000
  C   C467      1.0  0.8131902752000093  0.43966499476118664  0.16118633518162911  1.0000
  C   C468      1.0  0.8497729265462907  0.3911463239219283  0.1384758202631996  1.0000
  H   H721      1.0  0.8426949928225459  0.4375137711522174  0.09344841846038772  1.0000
  H   H722      1.0  0.863011958473806  0.46364276294173545  0.12205210029793614  1.0000
  H   H723      1.0  0.817030790616771  0.4739215646731794  0.11132358610364979  1.0000
  H   H724      1.0  0.776519028275592  0.3807949875347204  0.13674544727425472  1.0000
  H   H725      1.0  0.7669808286602645  0.4248801450793645  0.11903558882774164  1.0000
  H   H726      1.0  0.7942801859608053  0.38899914397936397  0.1019791289345999  1.0000
  H   H727      1.0  0.8016844227989356  0.4184208327872349  0.17652462251655396  1.0000
  H   H728      1.0  0.792136924250389  0.4622562475056784  0.15872955364378022  1.0000
  H   H729      1.0  0.8381290543923048  0.45349603787417847  0.17046446399713575  1.0000
  H   H730      1.0  0.8394042731724246  0.3684280208103686  0.15309519494444024  1.0000
  H   H731      1.0  0.875644755876203  0.4035987237091003  0.14717864366062886  1.0000
  H   H732      1.0  0.8570373381263385  0.37659908083823745  0.11849139050888555  1.0000
  N   N46       1.0  0.9875042495750107  0.24903413208539263  0.1644828163010595  1.0000
  C   C469      1.0  0.012944318888693518  0.2627828367918261  0.14210369253262234  1.0000
  C   C470      1.0  0.9490952592139392  0.2532839386887743  0.15533112828861914  1.0000
  C   C471      1.0  0.9935781734357744  0.2720583677548565  0.1901072658045642  1.0000
  C   C472      1.0  0.9945247483418223  0.20807262032815207  0.17038339736646602  1.0000
  H   H733      1.0  0.042208921879498096  0.2604894173188064  0.14835350937450545  1.0000
  H   H734      1.0  0.008276797896545673  0.293545459797412  0.13706041281595174  1.0000
  H   H735      1.0  0.009314857102281193  0.24602404608259104  0.12244613745658196  1.0000
  H   H736      1.0  0.9436761977986899  0.2369390733481847  0.13569390436837966  1.0000
  H   H737      1.0  0.9290389104021146  0.24276512094502162  0.171507414164269  1.0000
  H   H738      1.0  0.9427645472925843  0.2839292898249537  0.15096817433381832  1.0000
  H   H739      1.0  0.9893636164255208  0.30328695171277464  0.1863157454674386  1.0000
  H   H740      1.0  0.022125189360598485  0.26893731198867743  0.19781624082497742  1.0000
  H   H741      1.0  0.9745667337211565  0.26288682695943083  0.20739059968808357  1.0000
  H   H742      1.0  0.9761957059956157  0.1967569567187317  0.18746911511826012  1.0000
  H   H743      1.0  0.023357463860430583  0.2038492600709921  0.17722781471830065  1.0000
  H   H744      1.0  0.990060798600227  0.18965543241907384  0.15161979301282377  1.0000
  N   N47       1.0  0.10923471957146927  0.8300576961726898  0.1173707364154709  1.0000
  C   C473      1.0  0.12122571663111548  0.8302287961702621  0.14676519464274404  1.0000
  C   C474      1.0  0.09919490772406694  0.8694596609430005  0.10924097619498542  1.0000
  C   C475      1.0  0.07693693203826046  0.8039333551305955  0.11445026955335287  1.0000
  C   C476      1.0  0.1395014459604109  0.8167174083349951  0.09895715352438615  1.0000
  H   H745      1.0  0.14621550765512406  0.8487522276508171  0.14955629790109526  1.0000
  H   H746      1.0  0.12768242606568966  0.8006975036091925  0.15399210254721718  1.0000
  H   H747      1.0  0.0992944889396086  0.8413003682471805  0.1610111024184862  1.0000
  H   H748      1.0  0.09092016387609023  0.8703374687041945  0.08700339952871894  1.0000
  H   H749      1.0  0.07561238564485073  0.8801845946598108  0.12201439884088154  1.0000
  H   H750      1.0  0.12270724279951749  0.8901477659340429  0.11155573594020039  1.0000
  H   H751      1.0  0.06751705944390783  0.8027626835281363  0.09238260862046838  1.0000
  H   H752      1.0  0.053371663073938036  0.8135024992652231  0.1277551834998539  1.0000
  H   H753      1.0  0.08333684747707082  0.7740306416770512  0.12080392350382013  1.0000
  H   H754      1.0  0.13127179583323714  0.8161923107127854  0.0765860731505501  1.0000
  H   H755      1.0  0.14807479092370118  0.7871423556270405  0.10445417752092777  1.0000
  H   H756      1.0  0.16424943448225984  0.8359968820362982  0.1003446439841205  1.0000
  N   N48       1.0  0.3806286721250181  0.7193691838128152  0.5331639901233866  1.0000
  C   C477      1.0  0.4032871337389179  0.7023599064773318  0.5552127873683489  1.0000
  C   C478      1.0  0.3869905596826046  0.6986302760159454  0.5065424018234078  1.0000
  C   C479      1.0  0.3909460620351615  0.7604754657872287  0.5296674378548689  1.0000
  C   C480      1.0  0.34127475487061526  0.7159933202910561  0.5412514533985393  1.0000
  H   H757      1.0  0.39976589524301376  0.717769918441232  0.5754539889804431  1.0000
  H   H758      1.0  0.43308790243028683  0.7035895797622416  0.5496071496709174  1.0000
  H   H759      1.0  0.39560536621589754  0.671637070640319  0.5589877503351413  1.0000
  H   H760      1.0  0.3694809722634117  0.7097460076310177  0.4895680651205364  1.0000
  H   H761      1.0  0.416231215676285  0.7012114268266901  0.4994632890826431  1.0000
  H   H762      1.0  0.3803861485957286  0.6674051841774891  0.5087759621232528  1.0000
  H   H763      1.0  0.3744129775865546  0.774241377646964  0.5131783902062037  1.0000
  H   H764      1.0  0.4205492537960641  0.7642144342863102  0.5238473650698935  1.0000
  H   H765      1.0  0.38624861565441326  0.7769344866867445  0.5494138178963646  1.0000
  H   H766      1.0  0.32332456660709386  0.7282795218527767  0.5250247226905431  1.0000
  H   H767      1.0  0.3354472925429714  0.7314775666187993  0.5612034036286302  1.0000
  H   H768      1.0  0.3325983855831804  0.6854344995937784  0.5443829682351264  1.0000
