data_image0
_chemical_formula_structural       H2NH2CH2CH2CH2CH2NCH2C2H4CSHCHCH2C2H3CHC2HCSCHC2HC2HCNH3C2H4C2H3SFeS2Fe2CFeS3CHSC4FeH2C6SHCHC6H5CHCHNH2C3FeCSHSHC2H3NHCH2CSH3CFeSCFeS2FeSFeS2HC6H3C7H2NHCSHC5H2SHS2HCHNC2SH2CHCNH5SCFeHC4HFeH2SCH6C2H2C2H4C3H2CHS2CH4FeSFeS4CFeS2FeS2FeSFeSFeS2CHC4SHC7HSHFeCSC6H2C5HCHC2HC2HCHCHSHC5H2NC6FeH4SH2NH2C5H5CNCH6CH5C2HCHNCHCH2CSHCSHCHFeHCHCH3CH2CHC2FeS2FeS2FeSFeSHFeS2FeHCS2FeS2C6HSFeHC6H4C2HC3H2NSFeHCHC2HSHCFeHCH2NCH3CH5C2HC4H2NCHC2HSH2CH3C2HNHCHC2H3CHNC2SCHC3H2CSCHCH2SHC3HSHCHFeHC3SHCNH4C3HCHNH2SHC3SFeCHC2HSFeSFeCSCH2S2Fe2SFeCS2C2S2FeH3CHSH3C4SC3H3SNHC2HC6HCH2CH2CFeHNFeCSC3HCH5NH3CHSFeS2C2FeSFeSCH4SFeH5C6H3C3HSH3C3HCH2C5NCFeH2C3FeSCH3C2SHNHSHCSH
_chemical_formula_sum              "H288 N24 C288 S96 Fe48"
_cell_length_a       43.6441
_cell_length_b       46.6971
_cell_length_c       38.2705
_cell_angle_alpha    89.0542
_cell_angle_beta     89.4895
_cell_angle_gamma    135.102

_space_group_name_H-M_alt    "P 1"
_space_group_IT_number       1

loop_
  _space_group_symop_operation_xyz
  'x, y, z'

loop_
  _atom_site_type_symbol
  _atom_site_label
  _atom_site_symmetry_multiplicity
  _atom_site_fract_x
  _atom_site_fract_y
  _atom_site_fract_z
  _atom_site_occupancy
  H   H1        1.0  0.07262  0.49005  0.04219  1.0000
  H   H2        1.0  0.47521  0.02910  0.21166  1.0000
  N   N1        1.0  0.46217  0.48292  0.01115  1.0000
  H   H3        1.0  0.47937  0.03442  0.27619  1.0000
  H   H4        1.0  0.44691  0.43026  0.02775  1.0000
  C   C1        1.0  0.47521  0.46181  0.01792  1.0000
  H   H5        1.0  0.48802  0.04079  0.02096  1.0000
  H   H6        1.0  0.00047  0.38385  0.02467  1.0000
  C   C2        1.0  0.16368  0.42192  0.60703  1.0000
  H   H7        1.0  0.21107  0.48085  0.47561  1.0000
  H   H8        1.0  0.12890  0.39269  0.60909  1.0000
  C   C3        1.0  0.22586  0.46518  0.52129  1.0000
  H   H9        1.0  0.03537  0.44714  0.51189  1.0000
  H   H10       1.0  0.43947  0.42761  0.60645  1.0000
  C   C4        1.0  0.15218  0.44039  0.55213  1.0000
  H   H11       1.0  0.23305  0.44834  0.57069  1.0000
  H   H12       1.0  0.48274  0.48704  0.64421  1.0000
  N   N2        1.0  0.17645  0.43730  0.57065  1.0000
  C   C5        1.0  0.21298  0.44959  0.55572  1.0000
  H   H13       1.0  0.18329  0.41701  0.61785  1.0000
  H   H14       1.0  0.01044  0.47338  0.47886  1.0000
  C   C6        1.0  0.05744  0.47945  0.50675  1.0000
  C   C7        1.0  0.16396  0.45562  0.51757  1.0000
  H   H15       1.0  0.25536  0.47564  0.50989  1.0000
  H   H16       1.0  0.12384  0.43168  0.56421  1.0000
  H   H17       1.0  0.16920  0.44445  0.62364  1.0000
  H   H18       1.0  0.14494  0.45864  0.50325  1.0000
  C   C8        1.0  0.20110  0.46816  0.50213  1.0000
  S   S1        1.0  0.11516  0.48716  0.54569  1.0000
  H   H19       1.0  0.06399  0.48393  0.60677  1.0000
  C   C9        1.0  0.49528  0.44164  0.58606  1.0000
  H   H20       1.0  0.47670  0.41592  0.56906  1.0000
  C   C10       1.0  0.47446  0.44827  0.60689  1.0000
  H   H21       1.0  0.39776  0.47879  0.95766  1.0000
  H   H22       1.0  0.28829  0.47375  0.83480  1.0000
  C   C11       1.0  0.42009  0.48894  0.97845  1.0000
  C   C12       1.0  0.43355  0.46974  0.98528  1.0000
  H   H23       1.0  0.42125  0.44443  0.96957  1.0000
  H   H24       1.0  0.04763  0.43292  0.97504  1.0000
  H   H25       1.0  0.03695  0.47462  0.95122  1.0000
  C   C13       1.0  0.01518  0.45235  0.97205  1.0000
  H   H26       1.0  0.48865  0.46103  0.99355  1.0000
  C   C14       1.0  0.02150  0.42886  0.98553  1.0000
  C   C15       1.0  0.48346  0.00181  0.98651  1.0000
  H   H27       1.0  0.01395  0.60885  0.30858  1.0000
  C   C16       1.0  0.08179  0.51630  0.02978  1.0000
  S   S2        1.0  0.05613  0.58339  0.04377  1.0000
  C   C17       1.0  0.21752  0.64478  0.03372  1.0000
  H   H28       1.0  0.22214  0.69185  0.01681  1.0000
  C   C18       1.0  0.06323  0.52955  0.04192  1.0000
  C   C19       1.0  0.20600  0.66612  0.03478  1.0000
  H   H29       1.0  0.14407  0.66929  0.03206  1.0000
  C   C20       1.0  0.07577  0.56406  0.02659  1.0000
  C   C21       1.0  0.19576  0.61071  0.05575  1.0000
  H   H30       1.0  0.12645  0.61057  0.09673  1.0000
  C   C22       1.0  0.16344  0.59886  0.07904  1.0000
  N   N3        1.0  0.17408  0.65415  0.05755  1.0000
  H   H31       1.0  0.13830  0.66592  0.07868  1.0000
  H   H32       1.0  0.24248  0.65406  0.01541  1.0000
  H   H33       1.0  0.04003  0.51365  0.06369  1.0000
  C   C23       1.0  0.15296  0.62108  0.07964  1.0000
  C   C24       1.0  0.16117  0.67582  0.05669  1.0000
  H   H34       1.0  0.14550  0.57178  0.09562  1.0000
  H   H35       1.0  0.47982  0.56195  0.03885  1.0000
  H   H36       1.0  0.19004  0.70906  0.05821  1.0000
  H   H37       1.0  0.20318  0.59293  0.05412  1.0000
  C   C25       1.0  0.46571  0.53538  0.02424  1.0000
  C   C26       1.0  0.47801  0.51512  0.03072  1.0000
  H   H38       1.0  0.42461  0.73871  0.01141  1.0000
  H   H39       1.0  0.36996  0.68903  0.00668  1.0000
  H   H40       1.0  0.36101  0.56344  0.51946  1.0000
  S   S3        1.0  0.42603  0.56525  0.53668  1.0000
  Fe  Fe1       1.0  0.27322  0.61356  0.57193  1.0000
  S   S4        1.0  0.24025  0.55230  0.55327  1.0000
  S   S5        1.0  0.32887  0.67039  0.54197  1.0000
  Fe  Fe2       1.0  0.21967  0.58064  0.63882  1.0000
  Fe  Fe3       1.0  0.24632  0.54099  0.60868  1.0000
  C   C27       1.0  0.12960  0.58356  0.62395  1.0000
  Fe  Fe4       1.0  0.17909  0.53336  0.57241  1.0000
  S   S6        1.0  0.28439  0.60396  0.62591  1.0000
  S   S7        1.0  0.21171  0.59601  0.58608  1.0000
  S   S8        1.0  0.18195  0.51631  0.62656  1.0000
  C   C28       1.0  0.06275  0.57288  0.55420  1.0000
  H   H41       1.0  0.43095  0.63106  0.57691  1.0000
  S   S9        1.0  0.05376  0.55600  0.46053  1.0000
  C   C29       1.0  0.43032  0.70205  0.58678  1.0000
  C   C30       1.0  0.12782  0.54803  0.51295  1.0000
  C   C31       1.0  0.11377  0.56278  0.49386  1.0000
  C   C32       1.0  0.07138  0.53600  0.48149  1.0000
  Fe  Fe5       1.0  0.49202  0.85781  0.63233  1.0000
  H   H42       1.0  0.16050  0.56898  0.52241  1.0000
  H   H43       1.0  0.13576  0.59510  0.48884  1.0000
  C   C33       1.0  0.31219  0.52693  0.60043  1.0000
  C   C34       1.0  0.33834  0.52294  0.61512  1.0000
  C   C35       1.0  0.37349  0.53477  0.59577  1.0000
  C   C36       1.0  0.38175  0.54943  0.56125  1.0000
  C   C37       1.0  0.47305  0.70768  0.63120  1.0000
  C   C38       1.0  0.39395  0.65011  0.54258  1.0000
  S   S10       1.0  0.26752  0.51076  0.62469  1.0000
  H   H44       1.0  0.39365  0.53178  0.60736  1.0000
  C   C39       1.0  0.35493  0.55247  0.54627  1.0000
  H   H45       1.0  0.15670  0.60712  0.64007  1.0000
  C   C40       1.0  0.39224  0.77815  0.61063  1.0000
  C   C41       1.0  0.35181  0.73982  0.62074  1.0000
  C   C42       1.0  0.33157  0.70661  0.59934  1.0000
  C   C43       1.0  0.35134  0.71200  0.56743  1.0000
  C   C44       1.0  0.39055  0.75069  0.55651  1.0000
  C   C45       1.0  0.41097  0.78361  0.57814  1.0000
  H   H46       1.0  0.33657  0.73569  0.64533  1.0000
  H   H47       1.0  0.30082  0.67692  0.60762  1.0000
  H   H48       1.0  0.40555  0.75507  0.53162  1.0000
  H   H49       1.0  0.44080  0.81330  0.56933  1.0000
  H   H50       1.0  0.12450  0.53727  0.64519  1.0000
  C   C46       1.0  0.46358  0.67479  0.61722  1.0000
  H   H51       1.0  0.03510  0.54611  0.53937  1.0000
  C   C47       1.0  0.04328  0.49426  0.48791  1.0000
  H   H52       1.0  0.05136  0.58481  0.56796  1.0000
  N   N4        1.0  0.42183  0.67030  0.57284  1.0000
  H   H53       1.0  0.46418  0.74749  0.62606  1.0000
  H   H54       1.0  0.40237  0.63681  0.52644  1.0000
  C   C48       1.0  0.07735  0.51429  0.60559  1.0000
  C   C49       1.0  0.43768  0.65628  0.58786  1.0000
  C   C50       1.0  0.11323  0.59239  0.59966  1.0000
  Fe  Fe6       1.0  0.47903  0.58196  0.56956  1.0000
  C   C51       1.0  0.45628  0.72139  0.61597  1.0000
  S   S11       1.0  0.48746  0.60578  0.62259  1.0000
  H   H55       1.0  0.41749  0.71293  0.57506  1.0000
  S   S12       1.0  0.42040  0.81837  0.63951  1.0000
  H   H56       1.0  0.30064  0.54493  0.55441  1.0000
  C   C52       1.0  0.32079  0.54205  0.56604  1.0000
  C   C53       1.0  0.11150  0.54424  0.62686  1.0000
  H   H57       1.0  0.12792  0.62319  0.59713  1.0000
  H   H58       1.0  0.35941  0.62582  0.55164  1.0000
  H   H59       1.0  0.39767  0.67193  0.52541  1.0000
  N   N5        1.0  0.07937  0.56270  0.57919  1.0000
  H   H60       1.0  0.47726  0.66447  0.62838  1.0000
  C   C54       1.0  0.09957  0.50633  0.51965  1.0000
  H   H61       1.0  0.03514  0.50060  0.56524  1.0000
  H   H62       1.0  0.33164  0.51097  0.64163  1.0000
  C   C55       1.0  0.06138  0.52402  0.58193  1.0000
  S   S13       1.0  0.48618  0.54080  0.58743  1.0000
  H   H63       1.0  0.08860  0.59602  0.53454  1.0000
  H   H64       1.0  0.49435  0.72323  0.65319  1.0000
  H   H65       1.0  0.48238  0.83181  0.48404  1.0000
  C   C56       1.0  0.28800  0.51945  0.83984  1.0000
  Fe  Fe7       1.0  0.18771  0.55659  0.94547  1.0000
  S   S14       1.0  0.18144  0.57120  0.89131  1.0000
  C   C57       1.0  0.10615  0.58466  0.99855  1.0000
  Fe  Fe8       1.0  0.28197  0.60170  0.93347  1.0000
  S   S15       1.0  0.28423  0.62075  0.87885  1.0000
  S   S16       1.0  0.34468  0.62714  0.95488  1.0000
  Fe  Fe9       1.0  0.24723  0.63340  0.90042  1.0000
  S   S17       1.0  0.27110  0.69222  0.88146  1.0000
  Fe  Fe10      1.0  0.21909  0.55735  0.87423  1.0000
  S   S18       1.0  0.21018  0.52556  0.82612  1.0000
  S   S19       1.0  0.25074  0.62019  0.95599  1.0000
  H   H66       1.0  0.46960  0.73489  0.90214  1.0000
  C   C58       1.0  0.35894  0.60085  0.94680  1.0000
  C   C59       1.0  0.32764  0.55948  0.93965  1.0000
  C   C60       1.0  0.34035  0.53949  0.93322  1.0000
  C   C61       1.0  0.38442  0.56110  0.93288  1.0000
  C   C62       1.0  0.41560  0.60264  0.93918  1.0000
  C   C63       1.0  0.40286  0.62227  0.94678  1.0000
  H   H67       1.0  0.29365  0.54275  0.93966  1.0000
  H   H68       1.0  0.36364  0.63123  0.87716  1.0000
  H   H69       1.0  0.44966  0.61991  0.93807  1.0000
  C   C64       1.0  0.32322  0.71494  0.77029  1.0000
  C   C65       1.0  0.30003  0.72751  0.91454  1.0000
  C   C66       1.0  0.34024  0.76683  0.90641  1.0000
  C   C67       1.0  0.36706  0.79314  0.93325  1.0000
  C   C68       1.0  0.35340  0.78046  0.96823  1.0000
  C   C69       1.0  0.11213  0.53683  0.00173  1.0000
  C   C70       1.0  0.28543  0.71541  0.94945  1.0000
  H   H70       1.0  0.35164  0.77645  0.87948  1.0000
  H   H71       1.0  0.39871  0.82306  0.92679  1.0000
  N   N6        1.0  0.35647  0.58628  0.85269  1.0000
  H   H72       1.0  0.25393  0.68529  0.95557  1.0000
  C   C71       1.0  0.21263  0.55140  0.72407  1.0000
  S   S20       1.0  0.46459  0.81997  0.93957  1.0000
  H   H73       1.0  0.36220  0.72035  0.88249  1.0000
  C   C72       1.0  0.38277  0.72235  0.90040  1.0000
  C   C73       1.0  0.20892  0.57875  0.72550  1.0000
  C   C74       1.0  0.20687  0.59076  0.75802  1.0000
  C   C75       1.0  0.20803  0.57509  0.78905  1.0000
  C   C76       1.0  0.21041  0.54677  0.78761  1.0000
  H   H74       1.0  0.20409  0.61198  0.75924  1.0000
  H   H75       1.0  0.20617  0.58430  0.81404  1.0000
  S   S21       1.0  0.21953  0.53679  0.92751  1.0000
  H   H76       1.0  0.38938  0.76337  0.69891  1.0000
  S   S22       1.0  0.20765  0.59878  0.68689  1.0000
  S   S23       1.0  0.13369  0.51857  0.98666  1.0000
  H   H77       1.0  0.38980  0.64556  0.83432  1.0000
  C   C77       1.0  0.35190  0.53235  0.84523  1.0000
  H   H78       1.0  0.29759  0.57077  0.84679  1.0000
  N   N7        1.0  0.40166  0.72313  0.95939  1.0000
  C   C78       1.0  0.48087  0.54292  0.76038  1.0000
  C   C79       1.0  0.34791  0.74641  0.79400  1.0000
  S   S24       1.0  0.40041  0.53655  0.92262  1.0000
  H   H79       1.0  0.36735  0.52167  0.84579  1.0000
  H   H80       1.0  0.33161  0.69223  0.69004  1.0000
  C   C80       1.0  0.12417  0.57095  0.98600  1.0000
  H   H81       1.0  0.42727  0.65433  0.95209  1.0000
  C   C81       1.0  0.38206  0.62894  0.85934  1.0000
  N   N8        1.0  0.33856  0.72092  0.73681  1.0000
  H   H82       1.0  0.45398  0.72856  0.96560  1.0000
  H   H83       1.0  0.31606  0.50741  0.92808  1.0000
  H   H84       1.0  0.34823  0.71421  0.94610  1.0000
  H   H85       1.0  0.28645  0.68516  0.70184  1.0000
  H   H86       1.0  0.29163  0.68572  0.77882  1.0000
  S   S25       1.0  0.47206  0.53263  0.68960  1.0000
  C   C82       1.0  0.31208  0.74201  0.97633  1.0000
  Fe  Fe11      1.0  0.47321  0.57999  0.92077  1.0000
  H   H87       1.0  0.48966  0.97051  0.95165  1.0000
  C   C83       1.0  0.44297  0.73059  0.91143  1.0000
  C   C84       1.0  0.38837  0.78420  0.78318  1.0000
  C   C85       1.0  0.40325  0.79020  0.74874  1.0000
  C   C86       1.0  0.31190  0.68765  0.71237  1.0000
  H   H88       1.0  0.14744  0.58684  0.96425  1.0000
  Fe  Fe12      1.0  0.45634  0.84972  0.97789  1.0000
  H   H89       1.0  0.48777  0.55081  0.81627  1.0000
  H   H90       1.0  0.41039  0.59343  0.85679  1.0000
  S   S26       1.0  0.38962  0.81082  0.00162  1.0000
  C   C87       1.0  0.31314  0.56023  0.84645  1.0000
  H   H91       1.0  0.42421  0.73197  0.85999  1.0000
  H   H92       1.0  0.11581  0.61129  0.98653  1.0000
  H   H93       1.0  0.33550  0.74156  0.82049  1.0000
  H   H94       1.0  0.43428  0.81955  0.73968  1.0000
  H   H95       1.0  0.21507  0.51345  0.75384  1.0000
  H   H96       1.0  0.21486  0.54241  0.69912  1.0000
  C   C88       1.0  0.21293  0.53513  0.75509  1.0000
  C   C89       1.0  0.41732  0.72861  0.88786  1.0000
  H   H97       1.0  0.38163  0.73489  0.00307  1.0000
  H   H98       1.0  0.41277  0.64383  0.87250  1.0000
  C   C90       1.0  0.37508  0.71918  0.93647  1.0000
  C   C91       1.0  0.43438  0.72746  0.94734  1.0000
  H   H99       1.0  0.44577  0.51874  0.76201  1.0000
  H   H100      1.0  0.40798  0.80890  0.80133  1.0000
  H   H101      1.0  0.25353  0.49893  0.83522  1.0000
  H   H102      1.0  0.44971  0.97499  0.99342  1.0000
  C   C92       1.0  0.37767  0.75814  0.72572  1.0000
  C   C93       1.0  0.37612  0.57301  0.85154  1.0000
  C   C94       1.0  0.43639  0.52201  0.99806  1.0000
  H   H103      1.0  0.29576  0.65827  0.72556  1.0000
  H   H104      1.0  0.42681  0.53764  0.99258  1.0000
  C   C95       1.0  0.39394  0.72120  0.99709  1.0000
  H   H105      1.0  0.48045  0.87936  0.77879  1.0000
  S   S27       1.0  0.48500  0.87314  0.85224  1.0000
  S   S28       1.0  0.49117  0.90560  0.94441  1.0000
  C   C96       1.0  0.30754  0.50544  0.83943  1.0000
  H   H106      1.0  0.30170  0.73237  0.00339  1.0000
  H   H107      1.0  0.99843  0.50269  0.98801  1.0000
  H   H108      1.0  0.75724  0.22557  0.33548  1.0000
  H   H109      1.0  0.61927  0.37346  0.33690  1.0000
  Fe  Fe13      1.0  0.92639  0.45008  0.10088  1.0000
  S   S29       1.0  0.90509  0.39017  0.10471  1.0000
  Fe  Fe14      1.0  0.59867  0.42897  0.14214  1.0000
  S   S30       1.0  0.56228  0.39866  0.09245  1.0000
  S   S31       1.0  0.56311  0.40829  0.19446  1.0000
  S   S32       1.0  0.54671  0.06046  0.08760  1.0000
  S   S33       1.0  0.65737  0.45710  0.05372  1.0000
  C   C97       1.0  0.93284  0.45783  0.28829  1.0000
  Fe  Fe15      1.0  0.61132  0.39649  0.08181  1.0000
  S   S34       1.0  0.60209  0.34832  0.05459  1.0000
  S   S35       1.0  0.64344  0.42138  0.13324  1.0000
  Fe  Fe16      1.0  0.65952  0.18601  0.15602  1.0000
  S   S36       1.0  0.58725  0.14248  0.15399  1.0000
  S   S37       1.0  0.69327  0.19426  0.20493  1.0000
  Fe  Fe17      1.0  0.67172  0.21444  0.08103  1.0000
  S   S38       1.0  0.71979  0.26083  0.03983  1.0000
  Fe  Fe18      1.0  0.60091  0.19335  0.12610  1.0000
  S   S39       1.0  0.57093  0.21445  0.14558  1.0000
  Fe  Fe19      1.0  0.59445  0.12688  0.10128  1.0000
  S   S40       1.0  0.67274  0.23788  0.13188  1.0000
  S   S41       1.0  0.66610  0.16681  0.10542  1.0000
  C   C98       1.0  0.59245  0.31074  0.08020  1.0000
  H   H110      1.0  0.56876  0.27236  0.16363  1.0000
  C   C99       1.0  0.53333  0.00095  0.05421  1.0000
  C   C100      1.0  0.57968  0.25156  0.12008  1.0000
  C   C101      1.0  0.58944  0.25658  0.08425  1.0000
  C   C102      1.0  0.59505  0.28562  0.06428  1.0000
  S   S42       1.0  0.60052  0.17348  0.07292  1.0000
  H   H111      1.0  0.59158  0.23741  0.07177  1.0000
  C   C103      1.0  0.54051  0.31984  0.27693  1.0000
  C   C104      1.0  0.85399  0.35383  0.08612  1.0000
  C   C105      1.0  0.84062  0.36601  0.06234  1.0000
  C   C106      1.0  0.79975  0.33717  0.04753  1.0000
  C   C107      1.0  0.77143  0.29619  0.05749  1.0000
  C   C108      1.0  0.78422  0.28397  0.08201  1.0000
  C   C109      1.0  0.82593  0.31273  0.09575  1.0000
  H   H112      1.0  0.86167  0.39760  0.05508  1.0000
  S   S43       1.0  0.93705  0.48086  0.05015  1.0000
  H   H113      1.0  0.83616  0.30321  0.11416  1.0000
  Fe  Fe20      1.0  0.68612  0.48219  0.10594  1.0000
  C   C110      1.0  0.82230  0.28588  0.33231  1.0000
  S   S44       1.0  0.93401  0.43427  0.32373  1.0000
  C   C111      1.0  0.95763  0.42197  0.01347  1.0000
  C   C112      1.0  0.59505  0.43520  0.23109  1.0000
  C   C113      1.0  0.57606  0.41999  0.26477  1.0000
  C   C114      1.0  0.60152  0.43927  0.29446  1.0000
  C   C115      1.0  0.70517  0.32815  0.02383  1.0000
  C   C116      1.0  0.61043  0.37751  0.25019  1.0000
  H   H114      1.0  0.54172  0.39263  0.26785  1.0000
  H   H115      1.0  0.62962  0.39599  0.22689  1.0000
  C   C117      1.0  0.61043  0.16305  0.30082  1.0000
  C   C118      1.0  0.64648  0.16897  0.30467  1.0000
  C   C119      1.0  0.67337  0.18052  0.27541  1.0000
  C   C120      1.0  0.66431  0.18637  0.24248  1.0000
  C   C121      1.0  0.67582  0.42416  0.28511  1.0000
  H   H116      1.0  0.69999  0.18323  0.27800  1.0000
  C   C122      1.0  0.62999  0.18298  0.23933  1.0000
  H   H117      1.0  0.91337  0.48065  0.31998  1.0000
  C   C123      1.0  0.60293  0.17102  0.26832  1.0000
  C   C124      1.0  0.78435  0.47819  0.05078  1.0000
  H   H118      1.0  0.68280  0.44012  0.30968  1.0000
  C   C125      1.0  0.92208  0.47935  0.29396  1.0000
  C   C126      1.0  0.60452  0.36521  0.31154  1.0000
  H   H119      1.0  0.75246  0.32537  0.16155  1.0000
  C   C127      1.0  0.58346  0.30622  0.11615  1.0000
  H   H120      1.0  0.59506  0.09779  0.26282  1.0000
  C   C128      1.0  0.69607  0.34688  0.11630  1.0000
  H   H121      1.0  0.69435  0.39171  0.07399  1.0000
  S   S45       1.0  0.59592  0.48128  0.02185  1.0000
  H   H122      1.0  0.78967  0.25701  0.19720  1.0000
  C   C129      1.0  0.70301  0.32671  0.06039  1.0000
  C   C130      1.0  0.56374  0.04222  0.06226  1.0000
  C   C131      1.0  0.66463  0.49045  0.25692  1.0000
  C   C132      1.0  0.94309  0.45555  0.25429  1.0000
  C   C133      1.0  0.59434  0.08255  0.21004  1.0000
  H   H123      1.0  0.65437  0.48235  0.20135  1.0000
  H   H124      1.0  0.70826  0.31016  0.01000  1.0000
  N   N9        1.0  0.80930  0.33899  0.17343  1.0000
  C   C134      1.0  0.78726  0.29915  0.17836  1.0000
  C   C135      1.0  0.85175  0.36925  0.18264  1.0000
  C   C136      1.0  0.80750  0.28874  0.19338  1.0000
  C   C137      1.0  0.87309  0.35995  0.19753  1.0000
  C   C138      1.0  0.85074  0.31940  0.20293  1.0000
  C   C139      1.0  0.78812  0.34929  0.15623  1.0000
  Fe  Fe21      1.0  0.61122  0.46197  0.06826  1.0000
  H   H125      1.0  0.86972  0.40087  0.17801  1.0000
  H   H126      1.0  0.54070  0.31262  0.33286  1.0000
  H   H127      1.0  0.90697  0.38414  0.20419  1.0000
  H   H128      1.0  0.86705  0.31179  0.21415  1.0000
  S   S46       1.0  0.88246  0.45418  0.12392  1.0000
  H   H129      1.0  0.80066  0.37826  0.16586  1.0000
  H   H130      1.0  0.79444  0.35256  0.12752  1.0000
  N   N10       1.0  0.62903  0.38841  0.28222  1.0000
  H   H131      1.0  0.58669  0.42671  0.32020  1.0000
  H   H132      1.0  0.58108  0.32525  0.12856  1.0000
  C   C140      1.0  0.94413  0.47608  0.22621  1.0000
  C   C141      1.0  0.69765  0.37389  0.06011  1.0000
  C   C142      1.0  0.56935  0.06252  0.18057  1.0000
  C   C143      1.0  0.55993  0.33068  0.30938  1.0000
  C   C144      1.0  0.57654  0.27632  0.13594  1.0000
  H   H133      1.0  0.76233  0.25224  0.08972  1.0000
  H   H134      1.0  0.60176  0.28886  0.03644  1.0000
  H   H135      1.0  0.62847  0.09932  0.20938  1.0000
  H   H136      1.0  0.65240  0.16284  0.32975  1.0000
  H   H137      1.0  0.67664  0.35245  0.12614  1.0000
  C   C145      1.0  0.64588  0.47468  0.29058  1.0000
  N   N11       1.0  0.69858  0.34892  0.07801  1.0000
  C   C146      1.0  0.69897  0.37551  0.02357  1.0000
  H   H138      1.0  0.62986  0.10015  0.05435  1.0000
  H   H139      1.0  0.69323  0.41489  0.28490  1.0000
  H   H140      1.0  0.75392  0.27507  0.17041  1.0000
  H   H141      1.0  0.67922  0.31607  0.12647  1.0000
  H   H142      1.0  0.57566  0.16735  0.26539  1.0000
  H   H143      1.0  0.70433  0.30727  0.07447  1.0000
  C   C147      1.0  0.60619  0.06829  0.04851  1.0000
  H   H144      1.0  0.72925  0.37005  0.12671  1.0000
  H   H145      1.0  0.62381  0.18907  0.21444  1.0000
  H   H146      1.0  0.65066  0.07369  0.01571  1.0000
  H   H147      1.0  0.95174  0.43916  0.24994  1.0000
  H   H148      1.0  0.55102  0.33584  0.22178  1.0000
  C   C148      1.0  0.56586  0.34332  0.24709  1.0000
  C   C149      1.0  0.61787  0.05325  0.02649  1.0000
  H   H149      1.0  0.78986  0.34679  0.02881  1.0000
  C   C150      1.0  0.57538  0.08194  0.24012  1.0000
  H   H150      1.0  0.58373  0.06329  0.15678  1.0000
  N   N12       1.0  0.53287  0.06232  0.24071  1.0000
  C   C151      1.0  0.63945  0.47044  0.22722  1.0000
  H   H151      1.0  0.50094  0.47727  0.03764  1.0000
  C   C152      1.0  0.58721  0.01214  0.01794  1.0000
  H   H152      1.0  0.77184  0.46139  0.02700  1.0000
  H   H153      1.0  0.94289  0.37750  0.04980  1.0000
  C   C153      1.0  0.52612  0.04284  0.18131  1.0000
  S   S47       1.0  0.57180  0.14188  0.33494  1.0000
  H   H154      1.0  0.83700  0.27592  0.32312  1.0000
  C   C154      1.0  0.76458  0.48900  0.06616  1.0000
  S   S48       1.0  0.84341  0.47397  0.04630  1.0000
  H   H155      1.0  0.73675  0.48017  0.05425  1.0000
  C   C155      1.0  0.82051  0.48931  0.06582  1.0000
  H   H156      1.0  0.69636  0.39410  0.00964  1.0000
  Fe  Fe22      1.0  0.89818  0.49012  0.07539  1.0000
  H   H157      1.0  0.93279  0.41921  0.02494  1.0000
  C   C156      1.0  0.96315  0.39813  0.02766  1.0000
  H   H158      1.0  0.68879  0.44659  0.26330  1.0000
  C   C157      1.0  0.99533  0.40166  0.01356  1.0000
  H   H159      1.0  0.95352  0.47544  0.20025  1.0000
  H   H160      1.0  0.50691  0.02828  0.15810  1.0000
  H   H161      1.0  0.88309  0.34902  0.33410  1.0000
  C   C158      1.0  0.50845  0.04347  0.21164  1.0000
  H   H162      1.0  0.53131  0.06832  0.29593  1.0000
  H   H163      1.0  0.50585  0.29345  0.27491  1.0000
  C   C159      1.0  0.51400  0.06339  0.27193  1.0000
  H   H164      1.0  0.51645  0.08870  0.26920  1.0000
  C   C160      1.0  0.77760  0.25769  0.33894  1.0000
  C   C161      1.0  0.84814  0.32679  0.33855  1.0000
  Fe  Fe23      1.0  0.61133  0.18678  0.45749  1.0000
  S   S49       1.0  0.65094  0.20900  0.40801  1.0000
  S   S50       1.0  0.61255  0.22905  0.48729  1.0000
  Fe  Fe24      1.0  0.58227  0.10454  0.45694  1.0000
  S   S51       1.0  0.61925  0.12007  0.40670  1.0000
  S   S52       1.0  0.53979  0.04412  0.48699  1.0000
  Fe  Fe25      1.0  0.67209  0.18082  0.43021  1.0000
  S   S53       1.0  0.74279  0.21749  0.42340  1.0000
  Fe  Fe26      1.0  0.59485  0.14682  0.38882  1.0000
  S   S54       1.0  0.63731  0.16347  0.48187  1.0000
  H   H165      1.0  0.67445  0.31273  0.40066  1.0000
  Fe  Fe27      1.0  0.61059  0.38618  0.41816  1.0000
  S   S55       1.0  0.67830  0.43742  0.39684  1.0000
  S   S56       1.0  0.58080  0.32433  0.40244  1.0000
  Fe  Fe28      1.0  0.60603  0.44463  0.44737  1.0000
  H   H166      1.0  0.65833  0.12782  0.58912  1.0000
  C   C162      1.0  0.54956  0.04383  0.59255  1.0000
  S   S57       1.0  0.58699  0.41263  0.39627  1.0000
  S   S58       1.0  0.62320  0.41278  0.47092  1.0000
  Fe  Fe29      1.0  0.89218  0.43771  0.44577  1.0000
  S   S59       1.0  0.83710  0.38781  0.48181  1.0000
  S   S60       1.0  0.94763  0.44706  0.42668  1.0000
  C   C163      1.0  0.69435  0.33513  0.42050  1.0000
  C   C164      1.0  0.56296  0.03005  0.50939  1.0000
  C   C165      1.0  0.60795  0.05630  0.51066  1.0000
  C   C166      1.0  0.62541  0.04508  0.53029  1.0000
  C   C167      1.0  0.76582  0.32382  0.37431  1.0000
  C   C168      1.0  0.59363  0.06835  0.59781  1.0000
  H   H167      1.0  0.73133  0.30369  0.36716  1.0000
  S   S61       1.0  0.55277  0.12614  0.43687  1.0000
  Fe  Fe30      1.0  0.93511  0.45902  0.37427  1.0000
  H   H168      1.0  0.52593  0.01200  0.60072  1.0000
  C   C169      1.0  0.77131  0.26428  0.44237  1.0000
  C   C170      1.0  0.75016  0.26786  0.46664  1.0000
  C   C171      1.0  0.77153  0.30557  0.48016  1.0000
  C   C172      1.0  0.81348  0.34034  0.46814  1.0000
  C   C173      1.0  0.83499  0.33691  0.44402  1.0000
  C   C174      1.0  0.81422  0.29868  0.43174  1.0000
  H   H169      1.0  0.71738  0.24159  0.47534  1.0000
  H   H170      1.0  0.75508  0.30767  0.49952  1.0000
  H   H171      1.0  0.86760  0.36355  0.43494  1.0000
  H   H172      1.0  0.83091  0.29595  0.41334  1.0000
  C   C175      1.0  0.58886  0.29769  0.42694  1.0000
  C   C176      1.0  0.60462  0.30843  0.46087  1.0000
  H   H173      1.0  0.80245  0.44167  0.49343  1.0000
  C   C177      1.0  0.60219  0.25446  0.46403  1.0000
  C   C178      1.0  0.58664  0.24387  0.43005  1.0000
  C   C179      1.0  0.57967  0.26518  0.41174  1.0000
  H   H174      1.0  0.57964  0.21903  0.41795  1.0000
  H   H175      1.0  0.56726  0.25649  0.38560  1.0000
  N   N13       1.0  0.78495  0.31103  0.35810  1.0000
  S   S62       1.0  0.87567  0.44315  0.39262  1.0000
  Fe  Fe31      1.0  0.69012  0.46600  0.44790  1.0000
  H   H176      1.0  0.62297  0.29507  0.50568  1.0000
  C   C180      1.0  0.75937  0.27086  0.35194  1.0000
  H   H177      1.0  0.84940  0.37054  0.35749  1.0000
  C   C181      1.0  0.61090  0.28666  0.47943  1.0000
  C   C182      1.0  0.73500  0.35711  0.47314  1.0000
  H   H178      1.0  0.66028  0.06562  0.53119  1.0000
  S   S63       1.0  0.55917  0.44756  0.46888  1.0000
  H   H179      1.0  0.75850  0.43675  0.50537  1.0000
  C   C183      1.0  0.82884  0.33887  0.35170  1.0000
  Fe  Fe32      1.0  0.65603  0.46605  0.37932  1.0000
  H   H180      1.0  0.73078  0.42342  0.44771  1.0000
  C   C184      1.0  0.70168  0.36947  0.42071  1.0000
  H   H181      1.0  0.56473  0.48539  0.35141  1.0000
  H   H182      1.0  0.62933  0.08540  0.49675  1.0000
  N   N14       1.0  0.56628  0.09979  0.56355  1.0000
  C   C185      1.0  0.58315  0.48485  0.37073  1.0000
  H   H183      1.0  0.78369  0.35536  0.36577  1.0000
  H   H184      1.0  0.68765  0.37401  0.40097  1.0000
  H   H185      1.0  0.74804  0.35221  0.49356  1.0000
  C   C186      1.0  0.55148  0.11554  0.54448  1.0000
  H   H186      1.0  0.76181  0.40446  0.52619  1.0000
  H   H187      1.0  0.50680  0.46059  0.49041  1.0000
  H   H188      1.0  0.52383  0.10744  0.55876  1.0000
  H   H189      1.0  0.60218  0.48094  0.35636  1.0000
  H   H190      1.0  0.61164  0.33330  0.47292  1.0000
  C   C187      1.0  0.53643  0.05999  0.57485  1.0000
  C   C188      1.0  0.72562  0.39704  0.44749  1.0000
  H   H191      1.0  0.60436  0.05565  0.61015  1.0000
  C   C189      1.0  0.57201  0.48714  0.49267  1.0000
  C   C190      1.0  0.71099  0.32877  0.44692  1.0000
  C   C191      1.0  0.53923  0.48578  0.49949  1.0000
  C   C192      1.0  0.76738  0.41984  0.50095  1.0000
  H   H192      1.0  0.70419  0.30145  0.44782  1.0000
  H   H193      1.0  0.54071  0.10227  0.51815  1.0000
  N   N15       1.0  0.74155  0.39039  0.47342  1.0000
  C   C193      1.0  0.60958  0.12416  0.56882  1.0000
  H   H194      1.0  0.63341  0.15555  0.55939  1.0000
  C   C194      1.0  0.59812  0.00771  0.54897  1.0000
  C   C195      1.0  0.54033  0.46871  0.58668  1.0000
  H   H195      1.0  0.72485  0.24843  0.35825  1.0000
  S   S64       1.0  0.62161  0.99508  0.57334  1.0000
  H   H196      1.0  0.57752  0.14919  0.54092  1.0000
  H   H197      1.0  0.76739  0.32268  0.40320  1.0000
  C   C196      1.0  0.62391  0.10878  0.58585  1.0000
  H   H198      1.0  0.55691  0.46428  0.57005  1.0000
  H   H199      1.0  0.55992  0.45803  0.38889  1.0000
  H   H200      1.0  0.50236  0.04019  0.56922  1.0000
  C   C197      1.0  0.49918  0.48208  0.62808  1.0000
  C   C198      1.0  0.53561  0.99232  0.52755  1.0000
  H   H201      1.0  0.60714  0.04949  0.93848  1.0000
  N   N16       1.0  0.54941  0.03281  0.95536  1.0000
  H   H202      1.0  0.57247  0.03915  0.90388  1.0000
  C   C199      1.0  0.57033  0.06933  0.96964  1.0000
  H   H203      1.0  0.70409  0.35368  0.97702  1.0000
  C   C200      1.0  0.54840  0.07282  0.99308  1.0000
  C   C201      1.0  0.50634  0.99943  0.96307  1.0000
  H   H204      1.0  0.55838  0.99852  0.93026  1.0000
  H   H205      1.0  0.94409  0.45899  0.97433  1.0000
  H   H206      1.0  0.98934  0.48383  0.94463  1.0000
  C   C202      1.0  0.57294  0.02995  0.93063  1.0000
  H   H207      1.0  0.60452  0.09575  0.96372  1.0000
  N   N17       1.0  0.98332  0.44849  0.98587  1.0000
  C   C203      1.0  0.97855  0.47475  0.97253  1.0000
  C   C204      1.0  0.50479  0.03874  0.00172  1.0000
  S   S65       1.0  0.60236  0.99489  0.98855  1.0000
  C   C205      1.0  0.70292  0.35260  0.00536  1.0000
  H   H208      1.0  0.56550  0.10136  0.00558  1.0000
  C   C206      1.0  0.72613  0.60173  0.07144  1.0000
  C   C207      1.0  0.54493  0.98596  0.03203  1.0000
  C   C208      1.0  0.92259  0.49936  0.26594  1.0000
  H   H209      1.0  0.60217  0.53192  0.07232  1.0000
  H   H210      1.0  0.87875  0.59362  0.29189  1.0000
  C   C209      1.0  0.61865  0.91315  0.03878  1.0000
  S   S66       1.0  0.67905  0.49961  0.32709  1.0000
  C   C210      1.0  0.59184  0.56419  0.04238  1.0000
  H   H211      1.0  0.92227  0.59462  0.33365  1.0000
  C   C211      1.0  0.94019  0.59552  0.23463  1.0000
  H   H212      1.0  0.59558  0.58044  0.06457  1.0000
  H   H213      1.0  0.75973  0.58872  0.09585  1.0000
  S   S67       1.0  0.95620  0.55025  0.09707  1.0000
  H   H214      1.0  0.69893  0.51787  0.25374  1.0000
  C   C212      1.0  0.81849  0.52409  0.11085  1.0000
  C   C213      1.0  0.96442  0.59614  0.25890  1.0000
  C   C214      1.0  0.83754  0.51218  0.09601  1.0000
  H   H215      1.0  0.69041  0.60866  0.04062  1.0000
  S   S68       1.0  0.75792  0.52711  0.11482  1.0000
  H   H216      1.0  0.91343  0.51525  0.27053  1.0000
  C   C215      1.0  0.59556  0.53671  0.04687  1.0000
  H   H217      1.0  0.96222  0.56106  0.32504  1.0000
  Fe  Fe33      1.0  0.94349  0.51318  0.14411  1.0000
  H   H218      1.0  0.60150  0.90214  0.06393  1.0000
  C   C216      1.0  0.98135  0.59347  0.31904  1.0000
  C   C217      1.0  0.92784  0.59531  0.30583  1.0000
  C   C218      1.0  0.78170  0.51219  0.09612  1.0000
  S   S69       1.0  0.93967  0.52796  0.19851  1.0000
  H   H219      1.0  0.50041  0.98058  0.06470  1.0000
  C   C219      1.0  0.90306  0.59474  0.28229  1.0000
  N   N18       1.0  0.95810  0.59607  0.29400  1.0000
  H   H220      1.0  0.72977  0.61836  0.09330  1.0000
  H   H221      1.0  0.83198  0.54213  0.13396  1.0000
  H   H222      1.0  0.88977  0.59353  0.22785  1.0000
  H   H223      1.0  0.94449  0.59431  0.20687  1.0000
  C   C220      1.0  0.73712  0.56298  0.04484  1.0000
  C   C221      1.0  0.74293  0.58513  0.07289  1.0000
  C   C222      1.0  0.93470  0.49871  0.23219  1.0000
  H   H224      1.0  0.74981  0.54973  0.04653  1.0000
  C   C223      1.0  0.90927  0.59474  0.24645  1.0000
  H   H225      1.0  0.86558  0.52100  0.10772  1.0000
  N   N19       1.0  0.71504  0.55743  0.01616  1.0000
  H   H226      1.0  0.52104  0.95420  0.02566  1.0000
  H   H227      1.0  0.61391  0.86441  0.03413  1.0000
  S   S70       1.0  0.51463  0.87611  0.00827  1.0000
  H   H228      1.0  0.98710  0.59504  0.24944  1.0000
  C   C224      1.0  0.59081  0.51562  0.01833  1.0000
  C   C225      1.0  0.63269  0.94795  0.02270  1.0000
  C   C226      1.0  0.70416  0.59637  0.04193  1.0000
  S   S71       1.0  0.98673  0.50619  0.12526  1.0000
  Fe  Fe34      1.0  0.99403  0.53774  0.07604  1.0000
  C   C227      1.0  0.62583  0.89196  0.02176  1.0000
  H   H229      1.0  0.62674  0.96436  0.03533  1.0000
  C   C228      1.0  0.69886  0.57397  0.01438  1.0000
  C   C229      1.0  0.58291  0.57051  0.00949  1.0000
  H   H230      1.0  0.50137  0.52626  0.05079  1.0000
  S   S72       1.0  0.64423  0.49257  0.11884  1.0000
  Fe  Fe35      1.0  0.58099  0.93536  0.60421  1.0000
  S   S73       1.0  0.54495  0.91913  0.65522  1.0000
  Fe  Fe36      1.0  0.55358  0.85385  0.60253  1.0000
  C   C230      1.0  0.51479  0.86139  0.48825  1.0000
  S   S74       1.0  0.55011  0.81295  0.56757  1.0000
  C   C231      1.0  0.68217  0.58638  0.40412  1.0000
  H   H231      1.0  0.63936  0.52144  0.49942  1.0000
  H   H232      1.0  0.57260  0.96168  0.48706  1.0000
  S   S75       1.0  0.52594  0.87614  0.58011  1.0000
  S   S76       1.0  0.61226  0.91497  0.62249  1.0000
  Fe  Fe37      1.0  0.55718  0.59405  0.57434  1.0000
  Fe  Fe38      1.0  0.50153  0.56999  0.63923  1.0000
  S   S77       1.0  0.60256  0.58881  0.55409  1.0000
  Fe  Fe39      1.0  0.55772  0.65489  0.60672  1.0000
  C   C232      1.0  0.62253  0.55085  0.52302  1.0000
  S   S78       1.0  0.59339  0.71710  0.62657  1.0000
  S   S79       1.0  0.67420  0.49987  0.42872  1.0000
  C   C233      1.0  0.56409  0.50258  0.60770  1.0000
  C   C234      1.0  0.56531  0.93419  0.49018  1.0000
  S   S80       1.0  0.57279  0.62085  0.62769  1.0000
  S   S81       1.0  0.54913  0.63357  0.55211  1.0000
  Fe  Fe40      1.0  0.92124  0.50907  0.40370  1.0000
  H   H233      1.0  0.53633  0.74784  0.54019  1.0000
  H   H234      1.0  0.82896  0.52767  0.36650  1.0000
  H   H235      1.0  0.53174  0.95234  0.56170  1.0000
  C   C235      1.0  0.82792  0.52351  0.39452  1.0000
  H   H236      1.0  0.60737  0.78238  0.65390  1.0000
  S   S82       1.0  0.90081  0.53907  0.38412  1.0000
  H   H237      1.0  0.61561  0.87801  0.51152  1.0000
  H   H238      1.0  0.59927  0.52439  0.60703  1.0000
  H   H239      1.0  0.62077  0.90447  0.54823  1.0000
  C   C236      1.0  0.85835  0.52246  0.44645  1.0000
  C   C237      1.0  0.85954  0.52733  0.41017  1.0000
  C   C238      1.0  0.56933  0.54438  0.65002  1.0000
  C   C239      1.0  0.66357  0.59280  0.42834  1.0000
  S   S83       1.0  0.93304  0.50259  0.45881  1.0000
  C   C240      1.0  0.54758  0.86457  0.49927  1.0000
  C   C241      1.0  0.59706  0.93620  0.50183  1.0000
  C   C242      1.0  0.58975  0.54945  0.52993  1.0000
  H   H240      1.0  0.49862  0.89455  0.47563  1.0000
  H   H241      1.0  0.65495  0.57599  0.53216  1.0000
  H   H242      1.0  0.98587  0.60775  0.34406  1.0000
  S   S84       1.0  0.51559  0.83130  0.65304  1.0000
  N   N20       1.0  0.61119  0.52225  0.39043  1.0000
  H   H243      1.0  0.88317  0.52622  0.45877  1.0000
  C   C243      1.0  0.62144  0.90438  0.51923  1.0000
  C   C244      1.0  0.82570  0.51389  0.46700  1.0000
  H   H244      1.0  0.67006  0.54611  0.36628  1.0000
  C   C245      1.0  0.56227  0.78657  0.58441  1.0000
  C   C246      1.0  0.58195  0.79593  0.61664  1.0000
  C   C247      1.0  0.59150  0.77453  0.62921  1.0000
  C   C248      1.0  0.58070  0.74314  0.61000  1.0000
  C   C249      1.0  0.56041  0.73337  0.57801  1.0000
  C   C250      1.0  0.55162  0.75530  0.56512  1.0000
  H   H245      1.0  0.59036  0.82002  0.63169  1.0000
  C   C251      1.0  0.61853  0.56396  0.43295  1.0000
  H   H246      1.0  0.55212  0.70936  0.56294  1.0000
  H   H247      1.0  0.77003  0.51047  0.40273  1.0000
  C   C252      1.0  0.61379  0.51992  0.50450  1.0000
  H   H248      1.0  0.65434  0.93245  0.50925  1.0000
  H   H249      1.0  0.54004  0.83707  0.50350  1.0000
  C   C253      1.0  0.52383  0.89651  0.48366  1.0000
  Fe  Fe41      1.0  0.98791  0.51284  0.43573  1.0000
  H   H250      1.0  0.60375  0.56842  0.45205  1.0000
  N   N21       1.0  0.58815  0.90169  0.50576  1.0000
  Fe  Fe42      1.0  0.57166  0.89401  0.67174  1.0000
  C   C254      1.0  0.54801  0.51677  0.51794  1.0000
  S   S85       1.0  0.98010  0.52581  0.38136  1.0000
  C   C255      1.0  0.59269  0.52852  0.41382  1.0000
  C   C256      1.0  0.79438  0.51353  0.41499  1.0000
  C   C257      1.0  0.79301  0.50836  0.45128  1.0000
  H   H251      1.0  0.62864  0.96550  0.50837  1.0000
  C   C258      1.0  0.65530  0.55089  0.38499  1.0000
  H   H252      1.0  0.55776  0.50550  0.41852  1.0000
  H   H253      1.0  0.68394  0.61986  0.44378  1.0000
  H   H254      1.0  0.52246  0.51526  0.52305  1.0000
  H   H255      1.0  0.71718  0.60847  0.40040  1.0000
  H   H256      1.0  0.82550  0.51104  0.49513  1.0000
  N   N22       1.0  0.54345  0.50887  0.62801  1.0000
  H   H257      1.0  0.50075  0.97185  0.52668  1.0000
  H   H258      1.0  0.59489  0.57246  0.63378  1.0000
  H   H259      1.0  0.58490  0.54168  0.67070  1.0000
  C   C259      1.0  0.55308  0.98127  0.54749  1.0000
  H   H260      1.0  0.54907  0.54760  0.66304  1.0000
  S   S86       1.0  0.74960  0.49275  0.47733  1.0000
  Fe  Fe43      1.0  0.55036  0.61128  0.87638  1.0000
  S   S87       1.0  0.59809  0.66031  0.91381  1.0000
  S   S88       1.0  0.58096  0.61457  0.82672  1.0000
  C   C260      1.0  0.57766  0.89305  0.79470  1.0000
  C   C261      1.0  0.56383  0.67339  0.71397  1.0000
  Fe  Fe44      1.0  0.55471  0.67027  0.91563  1.0000
  S   S89       1.0  0.57817  0.73025  0.89971  1.0000
  Fe  Fe45      1.0  0.55403  0.61163  0.95577  1.0000
  S   S90       1.0  0.56716  0.90645  0.93200  1.0000
  C   C262      1.0  0.60702  0.70980  0.71824  1.0000
  H   H261      1.0  0.60510  0.89729  0.79909  1.0000
  H   H262      1.0  0.67203  0.50552  0.98528  1.0000
  H   H263      1.0  0.56483  0.59783  0.70071  1.0000
  H   H264      1.0  0.58864  0.70160  0.83553  1.0000
  S   S91       1.0  0.53516  0.81171  0.98913  1.0000
  Fe  Fe46      1.0  0.55077  0.92986  0.97130  1.0000
  H   H265      1.0  0.53373  0.64447  0.79931  1.0000
  H   H266      1.0  0.62801  0.72793  0.69543  1.0000
  H   H267      1.0  0.66398  0.98782  0.97702  1.0000
  H   H268      1.0  0.72016  0.55085  0.96226  1.0000
  H   H269      1.0  0.56121  0.88648  0.84968  1.0000
  C   C263      1.0  0.56275  0.75034  0.92397  1.0000
  C   C264      1.0  0.56751  0.78090  0.90859  1.0000
  C   C265      1.0  0.55762  0.79903  0.92786  1.0000
  C   C266      1.0  0.54404  0.78738  0.96291  1.0000
  C   C267      1.0  0.53886  0.75658  0.97816  1.0000
  C   C268      1.0  0.54763  0.73772  0.95864  1.0000
  H   H270      1.0  0.57923  0.79079  0.88173  1.0000
  H   H271      1.0  0.56159  0.82268  0.91585  1.0000
  H   H272      1.0  0.64021  0.74597  0.81717  1.0000
  C   C269      1.0  0.50243  0.55610  0.72760  1.0000
  C   C270      1.0  0.51762  0.88175  0.81754  1.0000
  C   C271      1.0  0.62297  0.72239  0.75200  1.0000
  H   H273      1.0  0.65675  0.75045  0.75507  1.0000
  S   S92       1.0  0.59796  0.90089  0.72481  1.0000
  H   H274      1.0  0.62720  0.69974  0.82340  1.0000
  H   H275      1.0  0.67541  0.94895  0.94766  1.0000
  H   H276      1.0  0.57133  0.55397  0.95559  1.0000
  C   C272      1.0  0.53142  0.88799  0.75475  1.0000
  C   C273      1.0  0.54994  0.59141  0.78909  1.0000
  C   C274      1.0  0.57146  0.60437  0.75638  1.0000
  H   H277      1.0  0.68741  0.89868  0.97279  1.0000
  C   C275      1.0  0.61408  0.71237  0.81582  1.0000
  H   H278      1.0  0.63239  0.85115  0.98338  1.0000
  H   H279      1.0  0.60658  0.62807  0.75476  1.0000
  C   C276      1.0  0.50715  0.88253  0.78328  1.0000
  C   C277      1.0  0.56686  0.89344  0.76036  1.0000
  C   C278      1.0  0.57808  0.54933  0.98104  1.0000
  C   C279      1.0  0.55295  0.88704  0.82331  1.0000
  C   C280      1.0  0.54779  0.58725  0.72569  1.0000
  N   N23       1.0  0.59644  0.69951  0.78069  1.0000
  C   C281      1.0  0.55416  0.66354  0.77668  1.0000
  Fe  Fe47      1.0  0.52565  0.85017  0.96708  1.0000
  H   H280      1.0  0.54399  0.71429  0.97073  1.0000
  H   H281      1.0  0.52303  0.88846  0.72844  1.0000
  C   C282      1.0  0.70752  0.53295  0.98731  1.0000
  C   C283      1.0  0.53713  0.65009  0.74332  1.0000
  C   C284      1.0  0.65277  0.88212  0.97148  1.0000
  Fe  Fe48      1.0  0.50415  0.87780  0.90789  1.0000
  S   S93       1.0  0.57656  0.60396  0.00542  1.0000
  C   C285      1.0  0.58230  0.52226  0.98544  1.0000
  H   H282      1.0  0.68058  0.56884  0.99196  1.0000
  H   H283      1.0  0.64360  0.87796  0.94365  1.0000
  H   H284      1.0  0.72357  0.52250  0.99129  1.0000
  C   C286      1.0  0.50454  0.56100  0.79107  1.0000
  C   C287      1.0  0.65983  0.93894  0.97344  1.0000
  S   S94       1.0  0.50995  0.62419  0.87552  1.0000
  H   H285      1.0  0.55129  0.66297  0.68792  1.0000
  N   N24       1.0  0.64558  0.90461  0.98926  1.0000
  H   H286      1.0  0.52828  0.74738  0.00529  1.0000
  S   S95       1.0  0.51505  0.62661  0.96147  1.0000
  H   H287      1.0  0.57877  0.50621  0.96316  1.0000
  C   C288      1.0  0.65363  0.96112  0.98991  1.0000
  S   S96       1.0  0.50900  0.56164  0.91802  1.0000
  H   H288      1.0  0.50388  0.62109  0.74019  1.0000
