data_image0
_chemical_formula_structural       FeS2FeSFeSFeS3FeCSHCSHCS2HC6H4CHCH2C3H2CNH2CHCHCSH2FeCHC2HNH2C2H2C2HCHSFeS2FeSFeS3Fe2SHC2HNCH2C6H3C3H2CHC3H4C2H2NH2CH5S2CHCH3C2HC2NC3HFeHSH2SFeS2FeS2FeSFeS3HC6H4CNCH2C6H7NC3HCH7CN2C6H3C2H4CHC2HSCSHCHC8H2CH5CHNHCFeCSHC2FeS2FeS2FeSFeS4C6HCH2C2H2C7H4SH2CHCH3NHSH4C3H2CH3CH4C2NHC3HNC2HC3HCHSC2HFeS2FeS2FeSFeS3FeS2FeS2FeSFeS4FeS3FeS2CHCHCHC7H4C6H4C3H2C11H4C6H4C2H2CFeH3CHSHNCSH2NCHCH3CH2C4HCH3CH2NH2C2H2C4NCH3CNHCHCH2CH2FeH4C2FeC2H2CH3N2CHCHCH3C4H2CHCH3CH3FeS2FeS2FeSFeS3FeS2FeS2FeSFeS3HFeSCSFeS2CH3C8HCH2C6H4CHC2H2CH3C6H4C6H5C2HNCH2C3SHSH2NC3H5NC2HCHCFeH2C2H3CH3CHCFeH2FeCH2C2HCHC2HNC4H3C2NCH2CHSH2C2HCSC2H2CH3CH2N2H2CHS2C2HSHFeSCFeS2FeS2FeSFeS3FeS2FeS2FeSFeS4C6H4C2H3C6H4C2NH2C2NH2C6H4SC7H4NHC2H3CHCH2CH2CH2C2H2NC6H7C2H3C4SH2C2HCHCHNC3HCHC3HSCHCH5C2HCSHC2FeHC2H3C2H2CHFe2C2NH6C2SH2FeS2FeSHFeS2FeS2FeSFeS3FeS2FeS2FeSFeS4C6H2CHFeC2H2C6H4CHCH2C3H2C6H4NSC6H2C2HC2H3CHCH2CH3CHFeHCFeNC6H9C2NH5C2H2CHC2H4CHCSHC2H2CNCNC5H7CSHSHCHC5HC2HFeHCHCHSHSC2HFeSHFeS2FeS2FeSFeS3CH3C2H3C6H4CH3C7H4NC2HCHSCSC4H2NC6H9C4H2FeHCHNFeH2CH2CHCSCSC2FeSH2FeS2FeS2FeSFeS3CH3FeC3H2C6H7C8H4CH2CHCH3CH2CHCN2C3H2CHCHC4SHN2C6H2CH5CH2SH5CH3CHC2H5FeS2FeSFeSH2CFeSH2FeSH2SHC3H3CHC6H2C2SC2NCSCS2H2CH3C3HFeSH2SFeSFeSCSFeHSHFeCSC3H2SHCNHC7H3C4H3SCSCH2NCH2C3H2C
_chemical_formula_sum              "Fe96 S192 C576 H576 N48"
_cell_length_a       59.3465
_cell_length_b       59.5122
_cell_length_c       36.0372
_cell_angle_alpha    90.1317
_cell_angle_beta     89.8589
_cell_angle_gamma    119.904

_space_group_name_H-M_alt    "P 1"
_space_group_IT_number       1

loop_
  _space_group_symop_operation_xyz
  'x, y, z'

loop_
  _atom_site_type_symbol
  _atom_site_label
  _atom_site_symmetry_multiplicity
  _atom_site_fract_x
  _atom_site_fract_y
  _atom_site_fract_z
  _atom_site_occupancy
  Fe  Fe1       1.0  0.13637  0.45971  0.37215  1.0000
  S   S1        1.0  0.13675  0.42697  0.34053  1.0000
  S   S2        1.0  0.14959  0.47131  0.43234  1.0000
  Fe  Fe2       1.0  0.12437  0.48136  0.30239  1.0000
  S   S3        1.0  0.12490  0.45080  0.26662  1.0000
  Fe  Fe3       1.0  0.10109  0.42317  0.31142  1.0000
  S   S4        1.0  0.06641  0.38592  0.28947  1.0000
  Fe  Fe4       1.0  0.16046  0.45734  0.29779  1.0000
  S   S5        1.0  0.19406  0.46200  0.26042  1.0000
  S   S6        1.0  0.09896  0.45333  0.34637  1.0000
  S   S7        1.0  0.16185  0.49043  0.33026  1.0000
  Fe  Fe5       1.0  0.32160  0.44813  0.23410  1.0000
  C   C1        1.0  0.16757  0.38745  0.26157  1.0000
  S   S8        1.0  0.28731  0.43762  0.27352  1.0000
  H   H1        1.0  0.14715  0.36844  0.31197  1.0000
  C   C2        1.0  0.02994  0.40217  0.29410  1.0000
  S   S9        1.0  0.32895  0.41847  0.20541  1.0000
  H   H2        1.0  0.20621  0.40995  0.21554  1.0000
  C   C3        1.0  0.12433  0.39179  0.24481  1.0000
  S   S10       1.0  0.32635  0.42642  0.09937  1.0000
  S   S11       1.0  0.33086  0.47347  0.18375  1.0000
  H   H3        1.0  0.10762  0.39385  0.23826  1.0000
  C   C4        1.0  0.22012  0.45555  0.26552  1.0000
  C   C5        1.0  0.23909  0.46373  0.23734  1.0000
  C   C6        1.0  0.25952  0.45810  0.23902  1.0000
  C   C7        1.0  0.26127  0.44418  0.26900  1.0000
  C   C8        1.0  0.24228  0.43594  0.29716  1.0000
  C   C9        1.0  0.22186  0.44163  0.29554  1.0000
  H   H4        1.0  0.23791  0.47444  0.21391  1.0000
  H   H5        1.0  0.27396  0.46462  0.21718  1.0000
  H   H6        1.0  0.24351  0.42525  0.32058  1.0000
  H   H7        1.0  0.20743  0.43516  0.31739  1.0000
  C   C10       1.0  0.13443  0.45774  0.47560  1.0000
  H   H8        1.0  0.19397  0.42846  0.19317  1.0000
  C   C11       1.0  0.11375  0.43230  0.47890  1.0000
  H   H9        1.0  0.18450  0.38587  0.26854  1.0000
  H   H10       1.0  0.10570  0.42060  0.45424  1.0000
  C   C12       1.0  0.14650  0.37750  0.28621  1.0000
  C   C13       1.0  0.03556  0.38325  0.28153  1.0000
  C   C14       1.0  0.18852  0.40864  0.20283  1.0000
  H   H11       1.0  0.18280  0.39537  0.17860  1.0000
  H   H12       1.0  0.04425  0.41844  0.31009  1.0000
  C   C15       1.0  0.14581  0.40175  0.22099  1.0000
  N   N1        1.0  0.16697  0.39933  0.22940  1.0000
  H   H13       1.0  0.14560  0.41170  0.19594  1.0000
  H   H14       1.0  0.07597  0.46527  0.21355  1.0000
  C   C16       1.0  0.12468  0.37952  0.27753  1.0000
  H   H15       1.0  0.10819  0.37204  0.29641  1.0000
  C   C17       1.0  0.29307  0.49504  0.32144  1.0000
  H   H16       1.0  0.31184  0.40580  0.02569  1.0000
  C   C18       1.0  0.01647  0.36202  0.26130  1.0000
  S   S12       1.0  0.10872  0.50409  0.27196  1.0000
  H   H17       1.0  0.05481  0.45836  0.25314  1.0000
  H   H18       1.0  0.01728  0.44815  0.21514  1.0000
  Fe  Fe6       1.0  0.34080  0.44548  0.15608  1.0000
  C   C19       1.0  0.32799  0.42537  0.02306  1.0000
  H   H19       1.0  0.07192  0.44119  0.24741  1.0000
  C   C20       1.0  0.06173  0.44960  0.23188  1.0000
  C   C21       1.0  0.04188  0.40946  0.19542  1.0000
  H   H20       1.0  0.02258  0.37390  0.16374  1.0000
  N   N2        1.0  0.04013  0.42977  0.21003  1.0000
  H   H21       1.0  0.28924  0.48192  0.34451  1.0000
  H   H22       1.0  0.05876  0.40748  0.20110  1.0000
  C   C22       1.0  0.02152  0.39042  0.17427  1.0000
  C   C23       1.0  0.01870  0.43211  0.20340  1.0000
  H   H23       1.0  0.02050  0.34715  0.25167  1.0000
  H   H24       1.0  0.32811  0.49544  0.30541  1.0000
  C   C24       1.0  0.33886  0.44041  0.05520  1.0000
  C   C25       1.0  0.31498  0.50265  0.29903  1.0000
  H   H25       1.0  0.25794  0.49686  0.32912  1.0000
  C   C26       1.0  0.27549  0.50334  0.31272  1.0000
  H   H26       1.0  0.13296  0.39475  0.61708  1.0000
  S   S13       1.0  0.14352  0.47189  0.74490  1.0000
  Fe  Fe7       1.0  0.11961  0.44212  0.64604  1.0000
  S   S14       1.0  0.11988  0.41839  0.69467  1.0000
  S   S15       1.0  0.10280  0.42191  0.59080  1.0000
  Fe  Fe8       1.0  0.10369  0.43942  0.72811  1.0000
  S   S16       1.0  0.06968  0.42924  0.76748  1.0000
  Fe  Fe9       1.0  0.15967  0.45264  0.70758  1.0000
  S   S17       1.0  0.19809  0.45192  0.70970  1.0000
  S   S18       1.0  0.10069  0.46037  0.67845  1.0000
  S   S19       1.0  0.15974  0.47496  0.65677  1.0000
  Fe  Fe10      1.0  0.31335  0.44715  0.82498  1.0000
  Fe  Fe11      1.0  0.14093  0.49148  0.69343  1.0000
  S   S20       1.0  0.27035  0.43620  0.82710  1.0000
  H   H27       1.0  0.07497  0.48200  0.76495  1.0000
  C   C27       1.0  0.20210  0.46004  0.61047  1.0000
  C   C28       1.0  0.03913  0.39677  0.67005  1.0000
  H   H28       1.0  0.28081  0.42737  0.90530  1.0000
  N   N3        1.0  0.29030  0.46549  0.92015  1.0000
  C   C29       1.0  0.09445  0.49949  0.76188  1.0000
  H   H29       1.0  0.17775  0.42531  0.64114  1.0000
  H   H30       1.0  0.03572  0.37814  0.65799  1.0000
  C   C30       1.0  0.21815  0.44860  0.74368  1.0000
  C   C31       1.0  0.20967  0.44005  0.77990  1.0000
  C   C32       1.0  0.22595  0.43654  0.80501  1.0000
  C   C33       1.0  0.25103  0.44182  0.79451  1.0000
  C   C34       1.0  0.25968  0.45082  0.75853  1.0000
  C   C35       1.0  0.24328  0.45398  0.73328  1.0000
  H   H31       1.0  0.19041  0.43567  0.78836  1.0000
  H   H32       1.0  0.21892  0.42943  0.83265  1.0000
  H   H33       1.0  0.27884  0.45493  0.74992  1.0000
  C   C36       1.0  0.27222  0.43746  0.92086  1.0000
  C   C37       1.0  0.13460  0.46224  0.54334  1.0000
  C   C38       1.0  0.11434  0.43664  0.54671  1.0000
  H   H34       1.0  0.12798  0.39112  0.56828  1.0000
  H   H35       1.0  0.14284  0.47394  0.56796  1.0000
  C   C39       1.0  0.14292  0.39624  0.59024  1.0000
  H   H36       1.0  0.26813  0.43015  0.94983  1.0000
  C   C40       1.0  0.03376  0.37618  0.76313  1.0000
  C   C41       1.0  0.03926  0.40077  0.77527  1.0000
  C   C42       1.0  0.19001  0.45977  0.54656  1.0000
  H   H37       1.0  0.04865  0.37387  0.74924  1.0000
  H   H38       1.0  0.10834  0.49732  0.78013  1.0000
  H   H39       1.0  0.15639  0.42489  0.52822  1.0000
  H   H40       1.0  0.05455  0.40287  0.69145  1.0000
  C   C43       1.0  0.33791  0.43536  0.98750  1.0000
  C   C44       1.0  0.20635  0.47265  0.57643  1.0000
  H   H41       1.0  0.03390  0.43501  0.69848  1.0000
  H   H42       1.0  0.25340  0.43232  0.90739  1.0000
  N   N4        1.0  0.16482  0.42259  0.58523  1.0000
  H   H43       1.0  0.19284  0.46945  0.52002  1.0000
  H   H44       1.0  0.04643  0.41141  0.64740  1.0000
  C   C45       1.0  0.18115  0.43483  0.61438  1.0000
  H   H45       1.0  0.14990  0.38207  0.58980  1.0000
  H   H46       1.0  0.08811  0.40201  0.51653  1.0000
  H   H47       1.0  0.21454  0.46987  0.63408  1.0000
  H   H48       1.0  0.22211  0.49245  0.57335  1.0000
  H   H49       1.0  0.25010  0.46057  0.70540  1.0000
  S   S21       1.0  0.32785  0.42370  0.85606  1.0000
  S   S22       1.0  0.33898  0.45326  0.77587  1.0000
  C   C46       1.0  0.16932  0.43451  0.55141  1.0000
  H   H50       1.0  0.32941  0.42352  0.96307  1.0000
  C   C47       1.0  0.01985  0.40325  0.79409  1.0000
  H   H51       1.0  0.02395  0.42209  0.80398  1.0000
  H   H52       1.0  0.10147  0.50041  0.73300  1.0000
  H   H53       1.0  0.31536  0.46323  0.96031  1.0000
  C   C48       1.0  0.31194  0.47566  0.94210  1.0000
  C   C49       1.0  0.10384  0.42181  0.51429  1.0000
  H   H54       1.0  0.26963  0.47291  0.87796  1.0000
  C   C50       1.0  0.28636  0.48107  0.89629  1.0000
  C   C51       1.0  0.14466  0.47263  0.50803  1.0000
  N   N5        1.0  0.01553  0.39458  0.68677  1.0000
  C   C52       1.0  0.01610  0.41641  0.70002  1.0000
  C   C53       1.0  0.00894  0.35441  0.76954  1.0000
  C   C54       1.0  0.33034  0.50207  0.94067  1.0000
  H   H55       1.0  0.16058  0.49235  0.50581  1.0000
  Fe  Fe12      1.0  0.31034  0.84337  0.32645  1.0000
  H   H56       1.0  0.31182  0.77228  0.25922  1.0000
  S   S23       1.0  0.26903  0.80875  0.32892  1.0000
  H   H57       1.0  0.29541  0.78470  0.28788  1.0000
  H   H58       1.0  0.22850  0.71090  0.19185  1.0000
  S   S24       1.0  0.32412  0.88175  0.35571  1.0000
  Fe  Fe13      1.0  0.10576  0.66028  0.20951  1.0000
  S   S25       1.0  0.10954  0.62665  0.18949  1.0000
  S   S26       1.0  0.06817  0.65736  0.23087  1.0000
  Fe  Fe14      1.0  0.16356  0.69961  0.19526  1.0000
  S   S27       1.0  0.17118  0.66859  0.17330  1.0000
  S   S28       1.0  0.19718  0.74136  0.19406  1.0000
  Fe  Fe15      1.0  0.13334  0.65325  0.14263  1.0000
  S   S29       1.0  0.12582  0.63463  0.08519  1.0000
  Fe  Fe16      1.0  0.14701  0.64493  0.22144  1.0000
  S   S30       1.0  0.16310  0.62667  0.26047  1.0000
  S   S31       1.0  0.12722  0.68595  0.16079  1.0000
  S   S32       1.0  0.14162  0.67688  0.24535  1.0000
  H   H59       1.0  0.12054  0.60122  0.31359  1.0000
  C   C55       1.0  0.14887  0.59258  0.26166  1.0000
  C   C56       1.0  0.12609  0.57657  0.24203  1.0000
  C   C57       1.0  0.11416  0.54949  0.24540  1.0000
  C   C58       1.0  0.12498  0.53819  0.26814  1.0000
  C   C59       1.0  0.14785  0.55417  0.28762  1.0000
  C   C60       1.0  0.15968  0.58131  0.28451  1.0000
  H   H60       1.0  0.11756  0.58501  0.22446  1.0000
  H   H61       1.0  0.09648  0.53723  0.23021  1.0000
  H   H62       1.0  0.08779  0.65915  0.35114  1.0000
  H   H63       1.0  0.17720  0.59359  0.30001  1.0000
  C   C61       1.0  0.13059  0.64981  0.04118  1.0000
  N   N6        1.0  0.31927  0.51815  0.26879  1.0000
  C   C62       1.0  0.13722  0.67580  0.03757  1.0000
  H   H64       1.0  0.12251  0.64349  0.31911  1.0000
  H   H65       1.0  0.14099  0.68765  0.06211  1.0000
  C   C63       1.0  0.24870  0.79094  0.29112  1.0000
  C   C64       1.0  0.22615  0.76703  0.29814  1.0000
  C   C65       1.0  0.21004  0.75170  0.26886  1.0000
  C   C66       1.0  0.21614  0.76031  0.23218  1.0000
  C   C67       1.0  0.23846  0.78443  0.22521  1.0000
  C   C68       1.0  0.25472  0.79962  0.25445  1.0000
  H   H66       1.0  0.22123  0.76022  0.32642  1.0000
  H   H67       1.0  0.19291  0.73326  0.27466  1.0000
  H   H68       1.0  0.24326  0.79135  0.19695  1.0000
  H   H69       1.0  0.27184  0.81809  0.24862  1.0000
  H   H70       1.0  0.22737  0.69978  0.30969  1.0000
  H   H71       1.0  0.05328  0.63098  0.15628  1.0000
  H   H72       1.0  0.15626  0.54563  0.30535  1.0000
  N   N7        1.0  0.06561  0.63261  0.10017  1.0000
  C   C69       1.0  0.03852  0.62855  0.24073  1.0000
  C   C70       1.0  0.03485  0.60399  0.23235  1.0000
  C   C71       1.0  0.06571  0.66822  0.13190  1.0000
  H   H73       1.0  0.05027  0.60220  0.21916  1.0000
  C   C72       1.0  0.07597  0.68362  0.10034  1.0000
  H   H74       1.0  0.06231  0.67621  0.15704  1.0000
  H   H75       1.0  0.03718  0.56354  0.30760  1.0000
  H   H76       1.0  0.29637  0.78894  0.23893  1.0000
  H   H77       1.0  0.08060  0.70370  0.10072  1.0000
  H   H78       1.0  0.20778  0.68367  0.24756  1.0000
  H   H79       1.0  0.07798  0.56099  0.30632  1.0000
  H   H80       1.0  0.12054  0.61458  0.01138  1.0000
  C   C73       1.0  0.30230  0.52664  0.26027  1.0000
  N   N8        1.0  0.08130  0.62727  0.31724  1.0000
  N   N9        1.0  0.27057  0.75026  0.25735  1.0000
  C   C74       1.0  0.26003  0.74140  0.22299  1.0000
  C   C75       1.0  0.25926  0.73548  0.28821  1.0000
  C   C76       1.0  0.23736  0.71735  0.21897  1.0000
  C   C77       1.0  0.23659  0.71128  0.28516  1.0000
  C   C78       1.0  0.22559  0.70222  0.25028  1.0000
  C   C79       1.0  0.29476  0.77518  0.26097  1.0000
  H   H81       1.0  0.26863  0.75325  0.19854  1.0000
  H   H82       1.0  0.26744  0.74264  0.31548  1.0000
  H   H83       1.0  0.07909  0.63954  0.04407  1.0000
  C   C80       1.0  0.28008  0.51924  0.28196  1.0000
  C   C81       1.0  0.05601  0.58095  0.31045  1.0000
  H   H84       1.0  0.09784  0.66709  0.30311  1.0000
  H   H85       1.0  0.06423  0.65160  0.31465  1.0000
  H   H86       1.0  0.26615  0.52527  0.27454  1.0000
  H   H87       1.0  0.31351  0.92892  0.33299  1.0000
  C   C82       1.0  0.32586  0.93205  0.41148  1.0000
  H   H88       1.0  0.07151  0.60336  0.12376  1.0000
  C   C83       1.0  0.06071  0.64263  0.13136  1.0000
  C   C84       1.0  0.07509  0.64738  0.06882  1.0000
  H   H89       1.0  0.32146  0.86852  0.46196  1.0000
  S   S33       1.0  0.34000  0.83666  0.35527  1.0000
  C   C85       1.0  0.05762  0.60510  0.31478  1.0000
  S   S34       1.0  0.33515  0.86117  0.27595  1.0000
  H   H90       1.0  0.33875  0.52741  0.21633  1.0000
  C   C86       1.0  0.12576  0.63472  0.00892  1.0000
  H   H91       1.0  0.03979  0.60599  0.31548  1.0000
  C   C87       1.0  0.10370  0.62600  0.31686  1.0000
  C   C88       1.0  0.10275  0.60214  0.31345  1.0000
  C   C89       1.0  0.07878  0.57952  0.30971  1.0000
  C   C90       1.0  0.33367  0.87294  0.48622  1.0000
  C   C91       1.0  0.06052  0.60584  0.10071  1.0000
  C   C92       1.0  0.01118  0.58160  0.24143  1.0000
  C   C93       1.0  0.08063  0.67314  0.06852  1.0000
  C   C94       1.0  0.08286  0.65248  0.32198  1.0000
  H   H92       1.0  0.03942  0.59213  0.10430  1.0000
  H   H93       1.0  0.30571  0.53893  0.23630  1.0000
  C   C95       1.0  0.01826  0.63042  0.25812  1.0000
  H   H94       1.0  0.30512  0.92442  0.41463  1.0000
  H   H95       1.0  0.02087  0.64934  0.26468  1.0000
  H   H96       1.0  0.08897  0.68497  0.04391  1.0000
  H   H97       1.0  0.06727  0.60084  0.07477  1.0000
  H   H98       1.0  0.30844  0.95168  0.36025  1.0000
  C   C96       1.0  0.32328  0.94721  0.34935  1.0000
  H   H99       1.0  0.33603  0.96309  0.32997  1.0000
  N   N10       1.0  0.33829  0.94454  0.37955  1.0000
  H   H100      1.0  0.32975  0.91853  0.46551  1.0000
  C   C97       1.0  0.33961  0.92857  0.44026  1.0000
  Fe  Fe17      1.0  0.32523  0.85052  0.72989  1.0000
  C   C98       1.0  0.22181  0.66125  0.83571  1.0000
  S   S35       1.0  0.29057  0.82582  0.76809  1.0000
  H   H101      1.0  0.26532  0.85113  0.71669  1.0000
  C   C99       1.0  0.25619  0.83420  0.69880  1.0000
  C   C100      1.0  0.08959  0.56635  0.78945  1.0000
  Fe  Fe18      1.0  0.10219  0.63969  0.79976  1.0000
  S   S36       1.0  0.11031  0.62553  0.85340  1.0000
  S   S37       1.0  0.06518  0.61116  0.76818  1.0000
  Fe  Fe19      1.0  0.16037  0.68454  0.79311  1.0000
  S   S38       1.0  0.17130  0.67239  0.84588  1.0000
  S   S39       1.0  0.19148  0.71223  0.75182  1.0000
  Fe  Fe20      1.0  0.14674  0.63152  0.82539  1.0000
  S   S40       1.0  0.15980  0.60167  0.82940  1.0000
  Fe  Fe21      1.0  0.13394  0.66761  0.86918  1.0000
  S   S41       1.0  0.13444  0.68519  0.92586  1.0000
  S   S42       1.0  0.13785  0.64362  0.77151  1.0000
  S   S43       1.0  0.12379  0.68202  0.81687  1.0000
  S   S44       1.0  0.14851  0.53253  0.68848  1.0000
  C   C101      1.0  0.15765  0.58302  0.78990  1.0000
  C   C102      1.0  0.16076  0.56125  0.79382  1.0000
  C   C103      1.0  0.15826  0.54562  0.76293  1.0000
  C   C104      1.0  0.15306  0.55199  0.72784  1.0000
  C   C105      1.0  0.15069  0.57414  0.72382  1.0000
  C   C106      1.0  0.15272  0.58942  0.75472  1.0000
  H   H102      1.0  0.16480  0.55626  0.82089  1.0000
  C   C107      1.0  0.12744  0.64539  0.97342  1.0000
  H   H103      1.0  0.14679  0.57924  0.69673  1.0000
  H   H104      1.0  0.15038  0.60609  0.75110  1.0000
  C   C108      1.0  0.23376  0.69559  0.79276  1.0000
  C   C109      1.0  0.13364  0.67125  0.96979  1.0000
  H   H105      1.0  0.20423  0.77318  0.69574  1.0000
  H   H106      1.0  0.12356  0.63352  0.94888  1.0000
  C   C110      1.0  0.27121  0.81151  0.61026  1.0000
  C   C111      1.0  0.26430  0.79337  0.76434  1.0000
  C   C112      1.0  0.26154  0.77747  0.73401  1.0000
  C   C113      1.0  0.23931  0.75260  0.73096  1.0000
  C   C114      1.0  0.21971  0.74316  0.75832  1.0000
  C   C115      1.0  0.22285  0.75874  0.78918  1.0000
  C   C116      1.0  0.24495  0.78370  0.79204  1.0000
  H   H107      1.0  0.27626  0.78456  0.71254  1.0000
  H   H108      1.0  0.23714  0.74070  0.70700  1.0000
  H   H109      1.0  0.20799  0.75182  0.81046  1.0000
  H   H110      1.0  0.24687  0.79579  0.81566  1.0000
  S   S45       1.0  0.32980  0.88744  0.70542  1.0000
  H   H111      1.0  0.22634  0.77283  0.63764  1.0000
  H   H112      1.0  0.25020  0.71937  0.88041  1.0000
  C   C117      1.0  0.03383  0.60772  0.76181  1.0000
  H   H113      1.0  0.01975  0.57193  0.73147  1.0000
  C   C118      1.0  0.02733  0.62585  0.77521  1.0000
  H   H114      1.0  0.09842  0.56036  0.84519  1.0000
  H   H115      1.0  0.04164  0.64265  0.79031  1.0000
  H   H116      1.0  0.27202  0.82619  0.59044  1.0000
  N   N11       1.0  0.09328  0.52288  0.77124  1.0000
  H   H117      1.0  0.26164  0.79229  0.59636  1.0000
  S   S46       1.0  0.32462  0.87443  0.59839  1.0000
  H   H118      1.0  0.21252  0.64068  0.84174  1.0000
  H   H119      1.0  0.22389  0.81245  0.73573  1.0000
  H   H120      1.0  0.20776  0.63156  0.77732  1.0000
  H   H121      1.0  0.23030  0.67214  0.89337  1.0000
  C   C119      1.0  0.24292  0.70544  0.85782  1.0000
  C   C120      1.0  0.23185  0.67898  0.86508  1.0000
  C   C121      1.0  0.23291  0.81249  0.70946  1.0000
  H   H122      1.0  0.29154  0.81664  0.61679  1.0000
  H   H123      1.0  0.28646  0.85036  0.65772  1.0000
  C   C122      1.0  0.08610  0.55763  0.75285  1.0000
  H   H124      1.0  0.23399  0.70222  0.76466  1.0000
  H   H125      1.0  0.08602  0.52944  0.71545  1.0000
  H   H126      1.0  0.08242  0.56821  0.73142  1.0000
  C   C123      1.0  0.22194  0.79043  0.68704  1.0000
  H   H127      1.0  0.22297  0.65755  0.74444  1.0000
  H   H128      1.0  0.10089  0.52121  0.82870  1.0000
  H   H129      1.0  0.16049  0.52878  0.76622  1.0000
  H   H130      1.0  0.30278  0.86510  0.52500  1.0000
  C   C124      1.0  0.21073  0.65098  0.76983  1.0000
  C   C125      1.0  0.09641  0.53115  0.80730  1.0000
  N   N12       1.0  0.22287  0.66970  0.80010  1.0000
  H   H131      1.0  0.25218  0.73435  0.81547  1.0000
  C   C126      1.0  0.24402  0.71386  0.82142  1.0000
  C   C127      1.0  0.32645  0.51814  0.91657  1.0000
  C   C128      1.0  0.08803  0.53571  0.74414  1.0000
  H   H132      1.0  0.08868  0.58360  0.79639  1.0000
  N   N13       1.0  0.25766  0.81165  0.64428  1.0000
  C   C129      1.0  0.23471  0.79030  0.65438  1.0000
  C   C130      1.0  0.26829  0.83349  0.66581  1.0000
  H   H133      1.0  0.19146  0.64884  0.76341  1.0000
  C   C131      1.0  0.01491  0.58601  0.74213  1.0000
  C   C132      1.0  0.09481  0.55311  0.81690  1.0000
  C   C133      1.0  0.32312  0.87097  0.52202  1.0000
  H   H134      1.0  0.30139  0.51974  0.87462  1.0000
  C   C134      1.0  0.13852  0.68636  0.00207  1.0000
  H   H135      1.0  0.14341  0.70641  0.99955  1.0000
  S   S47       1.0  0.33723  0.83836  0.67784  1.0000
  C   C135      1.0  0.33867  0.87650  0.55395  1.0000
  C   C136      1.0  0.30430  0.50762  0.89424  1.0000
  H   H136      1.0  0.34092  0.53854  0.91449  1.0000
  Fe  Fe22      1.0  0.51321  0.13142  0.19898  1.0000
  S   S48       1.0  0.49112  0.11882  0.25237  1.0000
  S   S49       1.0  0.55627  0.14624  0.19283  1.0000
  Fe  Fe23      1.0  0.46489  0.11862  0.15404  1.0000
  S   S50       1.0  0.43890  0.10396  0.20484  1.0000
  S   S51       1.0  0.45194  0.12779  0.09933  1.0000
  Fe  Fe24      1.0  0.47058  0.13976  0.23292  1.0000
  S   S52       1.0  0.46180  0.16389  0.27391  1.0000
  Fe  Fe25      1.0  0.46170  0.08406  0.22009  1.0000
  S   S53       1.0  0.45467  0.04650  0.24816  1.0000
  S   S54       1.0  0.49515  0.15517  0.18196  1.0000
  S   S55       1.0  0.48516  0.09615  0.16699  1.0000
  Fe  Fe26      1.0  0.44544  0.33378  0.31637  1.0000
  S   S56       1.0  0.46886  0.35593  0.36609  1.0000
  S   S57       1.0  0.40895  0.33442  0.29770  1.0000
  Fe  Fe27      1.0  0.47800  0.30672  0.30395  1.0000
  S   S58       1.0  0.50424  0.32776  0.35225  1.0000
  S   S59       1.0  0.48626  0.28140  0.26413  1.0000
  Fe  Fe28      1.0  0.46780  0.31916  0.38321  1.0000
  S   S60       1.0  0.45890  0.30087  0.44095  1.0000
  Fe  Fe29      1.0  0.50339  0.36291  0.33132  1.0000
  S   S61       1.0  0.53873  0.40319  0.33346  1.0000
  S   S62       1.0  0.44140  0.29586  0.33600  1.0000
  S   S63       1.0  0.48004  0.34303  0.28052  1.0000
  S   S64       1.0  0.60474  0.45646  0.18886  1.0000
  Fe  Fe30      1.0  0.65234  0.13310  0.32532  1.0000
  S   S65       1.0  0.61925  0.14145  0.33020  1.0000
  S   S66       1.0  0.63120  0.04352  0.30637  1.0000
  S   S67       1.0  0.64830  0.10212  0.36433  1.0000
  Fe  Fe31      1.0  0.37055  0.44232  0.22433  1.0000
  S   S68       1.0  0.38262  0.46733  0.17313  1.0000
  S   S69       1.0  0.40200  0.43290  0.24230  1.0000
  C   C137      1.0  0.36981  0.47556  0.01589  1.0000
  H   H137      1.0  0.45482  0.17673  0.12077  1.0000
  C   C138      1.0  0.42649  0.01574  0.25609  1.0000
  H   H138      1.0  0.37942  0.26150  0.38445  1.0000
  C   C139      1.0  0.40648  0.30664  0.45167  1.0000
  H   H139      1.0  0.44486  0.46678  0.12586  1.0000
  C   C140      1.0  0.60948  0.40721  0.27836  1.0000
  C   C141      1.0  0.40733  0.36201  0.28242  1.0000
  C   C142      1.0  0.38307  0.35917  0.27272  1.0000
  C   C143      1.0  0.38091  0.38058  0.26060  1.0000
  C   C144      1.0  0.40309  0.40512  0.25802  1.0000
  C   C145      1.0  0.42735  0.40794  0.26770  1.0000
  C   C146      1.0  0.42949  0.38656  0.27991  1.0000
  H   H140      1.0  0.36580  0.34027  0.27460  1.0000
  H   H141      1.0  0.36212  0.37809  0.25338  1.0000
  H   H142      1.0  0.44460  0.42683  0.26585  1.0000
  H   H143      1.0  0.44826  0.38905  0.28729  1.0000
  C   C147      1.0  0.55670  0.41751  0.29292  1.0000
  C   C148      1.0  0.57815  0.44265  0.29502  1.0000
  C   C149      1.0  0.59303  0.45473  0.26330  1.0000
  C   C150      1.0  0.58645  0.44183  0.22917  1.0000
  C   C151      1.0  0.56484  0.41677  0.22698  1.0000
  C   C152      1.0  0.55001  0.40459  0.25880  1.0000
  H   H144      1.0  0.58335  0.45277  0.32134  1.0000
  H   H145      1.0  0.60941  0.47409  0.26534  1.0000
  H   H146      1.0  0.55960  0.40667  0.20064  1.0000
  H   H147      1.0  0.53351  0.38518  0.25692  1.0000
  C   C153      1.0  0.47359  0.34362  0.48682  1.0000
  C   C154      1.0  0.46451  0.31700  0.48430  1.0000
  C   C155      1.0  0.39663  0.31101  0.38922  1.0000
  H   H148      1.0  0.47821  0.35509  0.46177  1.0000
  H   H149      1.0  0.42139  0.34086  0.48602  1.0000
  C   C156      1.0  0.40153  0.01034  0.24599  1.0000
  C   C157      1.0  0.53161  0.18261  0.30678  1.0000
  C   C158      1.0  0.55608  0.19303  0.24974  1.0000
  C   C159      1.0  0.35981  0.46563  0.05142  1.0000
  C   C160      1.0  0.41270  0.34779  0.43048  1.0000
  C   C161      1.0  0.60124  0.13926  0.29052  1.0000
  C   C162      1.0  0.57501  0.13197  0.29469  1.0000
  C   C163      1.0  0.56083  0.13323  0.26453  1.0000
  C   C164      1.0  0.57290  0.14210  0.23011  1.0000
  C   C165      1.0  0.59898  0.14872  0.22566  1.0000
  C   C166      1.0  0.61312  0.14709  0.25577  1.0000
  H   H150      1.0  0.56575  0.12585  0.32156  1.0000
  H   H151      1.0  0.54080  0.12798  0.26828  1.0000
  H   H152      1.0  0.60841  0.15555  0.19903  1.0000
  H   H153      1.0  0.63345  0.15294  0.25248  1.0000
  C   C167      1.0  0.47006  0.19704  0.27169  1.0000
  C   C168      1.0  0.48567  0.21361  0.24342  1.0000
  C   C169      1.0  0.49085  0.23948  0.24209  1.0000
  C   C170      1.0  0.48053  0.24916  0.26889  1.0000
  C   C171      1.0  0.46522  0.23267  0.29744  1.0000
  C   C172      1.0  0.46006  0.20681  0.29879  1.0000
  H   H154      1.0  0.49338  0.20644  0.22216  1.0000
  H   H155      1.0  0.50269  0.25204  0.21985  1.0000
  H   H156      1.0  0.45716  0.23978  0.31827  1.0000
  H   H157      1.0  0.44804  0.19423  0.32090  1.0000
  C   C173      1.0  0.45496  0.11718  0.05436  1.0000
  C   C174      1.0  0.45536  0.13156  0.02315  1.0000
  H   H158      1.0  0.40311  0.34868  0.37295  1.0000
  H   H159      1.0  0.38784  0.43674  0.03868  1.0000
  C   C175      1.0  0.40844  0.43240  0.13869  1.0000
  Fe  Fe32      1.0  0.63984  0.49664  0.19299  1.0000
  H   H160      1.0  0.41162  0.13370  0.24259  1.0000
  H   H161      1.0  0.50453  0.05265  0.28214  1.0000
  H   H162      1.0  0.45504  0.14942  0.02705  1.0000
  C   C176      1.0  0.42880  0.15681  0.16632  1.0000
  H   H163      1.0  0.51374  0.17781  0.32146  1.0000
  S   S70       1.0  0.36240  0.46976  0.25734  1.0000
  H   H164      1.0  0.42512  0.13796  0.15684  1.0000
  N   N14       1.0  0.57524  0.18975  0.30671  1.0000
  C   C177      1.0  0.41847  0.45407  0.07937  1.0000
  S   S71       1.0  0.66236  0.11674  0.27600  1.0000
  H   H165      1.0  0.51686  0.18600  0.25389  1.0000
  H   H166      1.0  0.54425  0.48032  0.32105  1.0000
  N   N15       1.0  0.38403  0.41494  0.12645  1.0000
  C   C178      1.0  0.44560  0.17875  0.14568  1.0000
  H   H167      1.0  0.61195  0.19091  0.30836  1.0000
  C   C179      1.0  0.45056  0.20313  0.15754  1.0000
  H   H168      1.0  0.45456  0.08258  0.07255  1.0000
  H   H169      1.0  0.54236  0.05330  0.31282  1.0000
  H   H170      1.0  0.50932  0.07040  0.21874  1.0000
  C   C180      1.0  0.45512  0.09398  0.04887  1.0000
  H   H171      1.0  0.39894  0.02512  0.23255  1.0000
  H   H172      1.0  0.39169  0.11814  0.20253  1.0000
  C   C181      1.0  0.62405  0.41636  0.24569  1.0000
  C   C182      1.0  0.55292  0.18400  0.32551  1.0000
  C   C183      1.0  0.37687  0.41599  0.09071  1.0000
  C   C184      1.0  0.40028  0.13598  0.21988  1.0000
  H   H173      1.0  0.55728  0.19582  0.21987  1.0000
  C   C185      1.0  0.65149  0.02147  0.25741  1.0000
  H   H174      1.0  0.55146  0.18034  0.35513  1.0000
  H   H175      1.0  0.40944  0.26840  0.40645  1.0000
  H   H176      1.0  0.49787  0.44344  0.27324  1.0000
  C   C186      1.0  0.59755  0.19184  0.32719  1.0000
  H   H177      1.0  0.58928  0.08946  0.21785  1.0000
  H   H178      1.0  0.39033  0.30293  0.36166  1.0000
  N   N16       1.0  0.41728  0.15908  0.19796  1.0000
  H   H179      1.0  0.59450  0.19846  0.25413  1.0000
  H   H180      1.0  0.60740  0.21039  0.34278  1.0000
  C   C187      1.0  0.61875  0.42156  0.31099  1.0000
  C   C188      1.0  0.64252  0.44471  0.31069  1.0000
  H   H181      1.0  0.41431  0.18495  0.23618  1.0000
  H   H182      1.0  0.55202  0.08927  0.18658  1.0000
  C   C189      1.0  0.57056  0.08072  0.23174  1.0000
  C   C190      1.0  0.58991  0.07104  0.28520  1.0000
  C   C191      1.0  0.42590  0.45242  0.11553  1.0000
  C   C192      1.0  0.54958  0.08063  0.21386  1.0000
  N   N17       1.0  0.56766  0.07043  0.26653  1.0000
  C   C193      1.0  0.65673  0.45314  0.27762  1.0000
  H   H183      1.0  0.58375  0.05342  0.30241  1.0000
  H   H184      1.0  0.59973  0.08838  0.30340  1.0000
  H   H185      1.0  0.66951  0.03978  0.25810  1.0000
  C   C194      1.0  0.52569  0.07031  0.23204  1.0000
  N   N18       1.0  0.64734  0.43905  0.24566  1.0000
  H   H186      1.0  0.46380  0.22035  0.14204  1.0000
  C   C195      1.0  0.40387  0.33696  0.39547  1.0000
  H   H187      1.0  0.61633  0.40556  0.22014  1.0000
  C   C196      1.0  0.41401  0.33256  0.45885  1.0000
  H   H188      1.0  0.43158  0.46975  0.06127  1.0000
  H   H189      1.0  0.65007  0.44870  0.18853  1.0000
  C   C197      1.0  0.42243  0.18297  0.21019  1.0000
  H   H190      1.0  0.59069  0.38955  0.27811  1.0000
  H   H191      1.0  0.35754  0.40211  0.08092  1.0000
  Fe  Fe33      1.0  0.66049  0.08665  0.31566  1.0000
  H   H192      1.0  0.44307  0.22425  0.19996  1.0000
  H   H193      1.0  0.60436  0.07157  0.26498  1.0000
  H   H194      1.0  0.51182  0.42374  0.25918  1.0000
  H   H195      1.0  0.53817  0.45262  0.21038  1.0000
  C   C198      1.0  0.54442  0.06072  0.28483  1.0000
  C   C199      1.0  0.52305  0.06037  0.26778  1.0000
  Fe  Fe34      1.0  0.37207  0.49311  0.20520  1.0000
  C   C200      1.0  0.43879  0.20529  0.18988  1.0000
  C   C201      1.0  0.53331  0.18722  0.26870  1.0000
  H   H196      1.0  0.38009  0.25658  0.43352  1.0000
  H   H197      1.0  0.38398  0.13757  0.23229  1.0000
  C   C202      1.0  0.57706  0.19442  0.26932  1.0000
  H   H198      1.0  0.59123  0.17542  0.34695  1.0000
  H   H199      1.0  0.40836  0.29514  0.47349  1.0000
  H   H200      1.0  0.41428  0.43137  0.16686  1.0000
  N   N19       1.0  0.53891  0.46411  0.26674  1.0000
  N   N20       1.0  0.39788  0.29618  0.41722  1.0000
  C   C203      1.0  0.39393  0.43557  0.06667  1.0000
  H   H201      1.0  0.36843  0.47741  0.07586  1.0000
  C   C204      1.0  0.55164  0.48301  0.29289  1.0000
  H   H202      1.0  0.36661  0.37646  0.14682  1.0000
  C   C205      1.0  0.63011  0.01845  0.27798  1.0000
  H   H203      1.0  0.64979  0.45620  0.33578  1.0000
  H   H204      1.0  0.60716  0.41503  0.33618  1.0000
  H   H205      1.0  0.51541  0.43470  0.30587  1.0000
  C   C206      1.0  0.39130  0.26932  0.41000  1.0000
  C   C207      1.0  0.66233  0.44778  0.21111  1.0000
  C   C208      1.0  0.54808  0.46762  0.23110  1.0000
  C   C209      1.0  0.51477  0.44042  0.27667  1.0000
  H   H206      1.0  0.41886  0.36803  0.43544  1.0000
  H   H207      1.0  0.37008  0.40027  0.18087  1.0000
  C   C210      1.0  0.36567  0.39444  0.15124  1.0000
  H   H208      1.0  0.66925  0.43425  0.20296  1.0000
  C   C211      1.0  0.45475  0.08488  0.01256  1.0000
  H   H209      1.0  0.57873  0.49243  0.19322  1.0000
  H   H210      1.0  0.38606  0.49509  0.01331  1.0000
  H   H211      1.0  0.45398  0.06648  0.00867  1.0000
  C   C212      1.0  0.57101  0.49018  0.22116  1.0000
  H   H212      1.0  0.67520  0.47117  0.27764  1.0000
  H   H213      1.0  0.64170  0.49078  0.00914  1.0000
  H   H214      1.0  0.34548  0.39039  0.14617  1.0000
  Fe  Fe35      1.0  0.51197  0.12400  0.82900  1.0000
  S   S72       1.0  0.49258  0.13142  0.78103  1.0000
  S   S73       1.0  0.55213  0.12885  0.83312  1.0000
  Fe  Fe36      1.0  0.46523  0.10664  0.88103  1.0000
  S   S74       1.0  0.44171  0.11261  0.83687  1.0000
  S   S75       1.0  0.45185  0.08551  0.93641  1.0000
  Fe  Fe37      1.0  0.45727  0.09361  0.79798  1.0000
  S   S76       1.0  0.43228  0.06299  0.75513  1.0000
  Fe  Fe38      1.0  0.47865  0.14999  0.82311  1.0000
  S   S77       1.0  0.48705  0.19208  0.81911  1.0000
  S   S78       1.0  0.47797  0.08519  0.84263  1.0000
  S   S79       1.0  0.50082  0.14493  0.87036  1.0000
  Fe  Fe39      1.0  0.46644  0.30052  0.71367  1.0000
  S   S80       1.0  0.49935  0.32533  0.67484  1.0000
  S   S81       1.0  0.45088  0.25677  0.71742  1.0000
  Fe  Fe40      1.0  0.45875  0.34652  0.73668  1.0000
  S   S82       1.0  0.49095  0.37396  0.69935  1.0000
  S   S83       1.0  0.44267  0.36227  0.78119  1.0000
  Fe  Fe41      1.0  0.47447  0.34195  0.65658  1.0000
  S   S84       1.0  0.47477  0.35668  0.59795  1.0000
  Fe  Fe42      1.0  0.51298  0.35518  0.72032  1.0000
  S   S85       1.0  0.55475  0.37671  0.73994  1.0000
  S   S86       1.0  0.44023  0.31546  0.69271  1.0000
  S   S87       1.0  0.48193  0.32925  0.76044  1.0000
  H   H215      1.0  0.58569  0.05645  0.74323  1.0000
  Fe  Fe43      1.0  0.65338  0.13222  0.69731  1.0000
  S   S88       1.0  0.62466  0.14677  0.69403  1.0000
  C   C213      1.0  0.35892  0.46056  0.98374  1.0000
  S   S89       1.0  0.63813  0.09143  0.67748  1.0000
  Fe  Fe44      1.0  0.35619  0.43299  0.80833  1.0000
  S   S90       1.0  0.38767  0.46965  0.83429  1.0000
  S   S91       1.0  0.36456  0.40684  0.77069  1.0000
  C   C214      1.0  0.47637  0.35535  0.52183  1.0000
  H   H216      1.0  0.45563  0.13388  0.96314  1.0000
  H   H217      1.0  0.59785  0.08026  0.77990  1.0000
  H   H218      1.0  0.56598  0.20417  0.73370  1.0000
  C   C215      1.0  0.39013  0.26954  0.75658  1.0000
  C   C216      1.0  0.42495  0.03017  0.75496  1.0000
  C   C217      1.0  0.42233  0.37623  0.77684  1.0000
  C   C218      1.0  0.41790  0.38762  0.80825  1.0000
  C   C219      1.0  0.40082  0.39768  0.80672  1.0000
  C   C220      1.0  0.38755  0.39598  0.77387  1.0000
  C   C221      1.0  0.39217  0.38479  0.74239  1.0000
  C   C222      1.0  0.40961  0.37517  0.74371  1.0000
  H   H219      1.0  0.42754  0.38848  0.83409  1.0000
  C   C223      1.0  0.41965  0.26202  0.79335  1.0000
  H   H220      1.0  0.38204  0.38340  0.71680  1.0000
  H   H221      1.0  0.41284  0.36657  0.71925  1.0000
  C   C224      1.0  0.57061  0.41074  0.74377  1.0000
  C   C225      1.0  0.55890  0.42459  0.73097  1.0000
  C   C226      1.0  0.57146  0.45158  0.73527  1.0000
  C   C227      1.0  0.59567  0.46491  0.75289  1.0000
  C   C228      1.0  0.60768  0.45121  0.76526  1.0000
  C   C229      1.0  0.59521  0.42415  0.76047  1.0000
  H   H222      1.0  0.54015  0.41460  0.71778  1.0000
  H   H223      1.0  0.56214  0.46213  0.72552  1.0000
  H   H224      1.0  0.62653  0.46143  0.77849  1.0000
  H   H225      1.0  0.60450  0.41356  0.77016  1.0000
  C   C230      1.0  0.47037  0.34070  0.55468  1.0000
  H   H226      1.0  0.39339  0.31857  0.74392  1.0000
  C   C231      1.0  0.46146  0.31413  0.55217  1.0000
  C   C232      1.0  0.52773  0.07493  0.72143  1.0000
  H   H227      1.0  0.45667  0.30258  0.57717  1.0000
  H   H228      1.0  0.42956  0.25115  0.79864  1.0000
  C   C233      1.0  0.42519  0.28377  0.81467  1.0000
  H   H229      1.0  0.49949  0.39264  0.79396  1.0000
  H   H230      1.0  0.52769  0.38572  0.57286  1.0000
  H   H231      1.0  0.51941  0.07714  0.69587  1.0000
  C   C234      1.0  0.57172  0.13375  0.79388  1.0000
  C   C235      1.0  0.56422  0.13692  0.75842  1.0000
  C   C236      1.0  0.58080  0.14135  0.72796  1.0000
  C   C237      1.0  0.60462  0.14204  0.73275  1.0000
  C   C238      1.0  0.61202  0.13887  0.76825  1.0000
  C   C239      1.0  0.59568  0.13486  0.79871  1.0000
  H   H232      1.0  0.54580  0.13618  0.75450  1.0000
  H   H233      1.0  0.57504  0.14389  0.70053  1.0000
  H   H234      1.0  0.63047  0.13973  0.77232  1.0000
  H   H235      1.0  0.60164  0.13254  0.82614  1.0000
  C   C240      1.0  0.47693  0.20954  0.78975  1.0000
  C   C241      1.0  0.45774  0.19745  0.76259  1.0000
  C   C242      1.0  0.45018  0.21222  0.74059  1.0000
  C   C243      1.0  0.46183  0.23926  0.74515  1.0000
  C   C244      1.0  0.48113  0.25139  0.77215  1.0000
  C   C245      1.0  0.48854  0.23660  0.79432  1.0000
  H   H236      1.0  0.44856  0.17670  0.75869  1.0000
  H   H237      1.0  0.43521  0.20258  0.71985  1.0000
  H   H238      1.0  0.49029  0.27213  0.77609  1.0000
  H   H239      1.0  0.50338  0.24621  0.81523  1.0000
  H   H240      1.0  0.46243  0.48848  0.75402  1.0000
  C   C246      1.0  0.45498  0.09917  0.98135  1.0000
  C   C247      1.0  0.58588  0.19730  0.77839  1.0000
  H   H241      1.0  0.59951  0.19539  0.76032  1.0000
  N   N21       1.0  0.54268  0.36375  0.59899  1.0000
  C   C248      1.0  0.40952  0.02432  0.88831  1.0000
  H   H242      1.0  0.58173  0.42374  0.66166  1.0000
  H   H243      1.0  0.60153  0.09068  0.73291  1.0000
  C   C249      1.0  0.54058  0.38542  0.59393  1.0000
  C   C250      1.0  0.56700  0.20207  0.76346  1.0000
  C   C251      1.0  0.55809  0.36302  0.62661  1.0000
  S   S92       1.0  0.37225  0.47440  0.93980  1.0000
  H   H244      1.0  0.39819  0.23833  0.74683  1.0000
  S   S93       1.0  0.67041  0.12695  0.74991  1.0000
  H   H245      1.0  0.58454  0.38395  0.67142  1.0000
  H   H246      1.0  0.59636  0.00903  0.81032  1.0000
  N   N22       1.0  0.56884  0.19553  0.83958  1.0000
  C   C252      1.0  0.55038  0.20038  0.82518  1.0000
  C   C253      1.0  0.58636  0.19382  0.81671  1.0000
  C   C254      1.0  0.56922  0.19086  0.87946  1.0000
  H   H247      1.0  0.53622  0.20140  0.84315  1.0000
  H   H248      1.0  0.60031  0.18890  0.82793  1.0000
  H   H249      1.0  0.58942  0.20128  0.89025  1.0000
  H   H250      1.0  0.55760  0.19748  0.89558  1.0000
  H   H251      1.0  0.56088  0.16975  0.88452  1.0000
  N   N23       1.0  0.56617  0.44142  0.83637  1.0000
  C   C255      1.0  0.54988  0.07020  0.78646  1.0000
  C   C256      1.0  0.55832  0.41554  0.83562  1.0000
  H   H252      1.0  0.43935  0.28986  0.83688  1.0000
  C   C257      1.0  0.53426  0.39763  0.82037  1.0000
  H   H253      1.0  0.55257  0.42432  0.61254  1.0000
  C   C258      1.0  0.59130  0.45994  0.85284  1.0000
  Fe  Fe45      1.0  0.36905  0.48927  0.80465  1.0000
  H   H254      1.0  0.57097  0.40865  0.84586  1.0000
  H   H255      1.0  0.49573  0.07024  0.75564  1.0000
  C   C259      1.0  0.44663  0.48939  0.74039  1.0000
  C   C260      1.0  0.42121  0.46888  0.74382  1.0000
  H   H256      1.0  0.58881  0.46324  0.88257  1.0000
  H   H257      1.0  0.60548  0.45295  0.85059  1.0000
  H   H258      1.0  0.36637  0.48361  0.70733  1.0000
  C   C261      1.0  0.52714  0.34060  0.57630  1.0000
  H   H259      1.0  0.55894  0.34551  0.63172  1.0000
  H   H260      1.0  0.38944  0.04922  0.81986  1.0000
  H   H261      1.0  0.64659  0.02469  0.71630  1.0000
  C   C262      1.0  0.58810  0.07537  0.75238  1.0000
  H   H262      1.0  0.55666  0.47061  0.82316  1.0000
  C   C263      1.0  0.57258  0.38468  0.64920  1.0000
  Fe  Fe46      1.0  0.35835  0.46197  0.88000  1.0000
  H   H263      1.0  0.41758  0.31511  0.82283  1.0000
  H   H264      1.0  0.38126  0.45453  0.72963  1.0000
  Fe  Fe47      1.0  0.65705  0.08660  0.72826  1.0000
  C   C264      1.0  0.51804  0.40629  0.80635  1.0000
  H   H265      1.0  0.44488  0.03242  0.80582  1.0000
  H   H266      1.0  0.48324  0.37592  0.52345  1.0000
  C   C265      1.0  0.40193  0.25477  0.76422  1.0000
  C   C266      1.0  0.38340  0.30627  0.76843  1.0000
  H   H267      1.0  0.39742  0.40615  0.83120  1.0000
  C   C267      1.0  0.51445  0.07106  0.75496  1.0000
  H   H268      1.0  0.37702  0.26422  0.73312  1.0000
  C   C268      1.0  0.55459  0.40733  0.61630  1.0000
  C   C269      1.0  0.62246  0.02015  0.76353  1.0000
  H   H269      1.0  0.37038  0.01742  0.77033  1.0000
  N   N24       1.0  0.39543  0.29067  0.77788  1.0000
  C   C270      1.0  0.52602  0.43265  0.80770  1.0000
  C   C271      1.0  0.41283  0.29797  0.80650  1.0000
  C   C272      1.0  0.52558  0.06868  0.78770  1.0000
  C   C273      1.0  0.55206  0.07645  0.72121  1.0000
  H   H270      1.0  0.41707  0.45180  0.75982  1.0000
  H   H271      1.0  0.51364  0.43955  0.79643  1.0000
  H   H272      1.0  0.50867  0.32748  0.59092  1.0000
  C   C274      1.0  0.55029  0.45006  0.82294  1.0000
  C   C275      1.0  0.43292  0.01994  0.78365  1.0000
  N   N25       1.0  0.56287  0.07425  0.75351  1.0000
  C   C276      1.0  0.54913  0.20367  0.78695  1.0000
  H   H273      1.0  0.56255  0.07996  0.69517  1.0000
  H   H274      1.0  0.55858  0.06882  0.81216  1.0000
  C   C277      1.0  0.38435  0.49394  0.69031  1.0000
  H   H275      1.0  0.60017  0.47884  0.83807  1.0000
  S   S94       1.0  0.63268  0.05357  0.76873  1.0000
  H   H276      1.0  0.51580  0.06638  0.81408  1.0000
  H   H277      1.0  0.53411  0.20706  0.77571  1.0000
  C   C278      1.0  0.40932  0.01353  0.72643  1.0000
  C   C279      1.0  0.45574  0.12282  0.98684  1.0000
  H   H278      1.0  0.36242  0.29370  0.76212  1.0000
  C   C280      1.0  0.63264  0.01116  0.73597  1.0000
  S   S95       1.0  0.60947  0.49844  0.76024  1.0000
  C   C281      1.0  0.39130  0.03478  0.83583  1.0000
  C   C282      1.0  0.57084  0.40696  0.64391  1.0000
  H   H279      1.0  0.53777  0.32998  0.57080  1.0000
  H   H280      1.0  0.52858  0.37728  0.81838  1.0000
  C   C283      1.0  0.40095  0.47061  0.72689  1.0000
  H   H281      1.0  0.52225  0.34567  0.54893  1.0000
  H   H282      1.0  0.41562  0.06246  0.87738  1.0000
  H   H283      1.0  0.42142  0.03030  0.91323  1.0000
  C   C284      1.0  0.40637  0.04249  0.86807  1.0000
  H   H284      1.0  0.38497  0.31938  0.79159  1.0000
  H   H285      1.0  0.45136  0.28174  0.51548  1.0000
  N   N26       1.0  0.40585  0.49239  0.70766  1.0000
  N   N27       1.0  0.37945  0.00953  0.82424  1.0000
  H   H286      1.0  0.38059  0.48537  0.66209  1.0000
  H   H287      1.0  0.40314  0.02126  0.70400  1.0000
  C   C285      1.0  0.45848  0.30237  0.51714  1.0000
  H   H288      1.0  0.64938  0.00596  0.83014  1.0000
  S   S96       1.0  0.34236  0.48469  0.85167  1.0000
  S   S97       1.0  0.63891  0.53233  0.17513  1.0000
  C   C286      1.0  0.64959  0.00062  0.23608  1.0000
  C   C287      1.0  0.36425  0.95316  0.37493  1.0000
  H   H289      1.0  0.49404  0.86605  0.08690  1.0000
  S   S98       1.0  0.38387  0.89620  0.33355  1.0000
  H   H290      1.0  0.65620  0.51117  0.07124  1.0000
  Fe  Fe48      1.0  0.36575  0.85692  0.30671  1.0000
  S   S99       1.0  0.38608  0.83604  0.28470  1.0000
  C   C288      1.0  0.46285  0.87310  0.33922  1.0000
  Fe  Fe49      1.0  0.54955  0.86990  0.14893  1.0000
  S   S100      1.0  0.58443  0.87479  0.18106  1.0000
  S   S101      1.0  0.53465  0.85362  0.09094  1.0000
  Fe  Fe50      1.0  0.52904  0.88709  0.21476  1.0000
  S   S102      1.0  0.56175  0.89270  0.25161  1.0000
  S   S103      1.0  0.50304  0.90294  0.23250  1.0000
  Fe  Fe51      1.0  0.58728  0.91196  0.20263  1.0000
  S   S104      1.0  0.62495  0.95051  0.20879  1.0000
  Fe  Fe52      1.0  0.55612  0.85496  0.22806  1.0000
  S   S105      1.0  0.55774  0.82801  0.27236  1.0000
  S   S106      1.0  0.55496  0.90845  0.16669  1.0000
  S   S107      1.0  0.52091  0.84794  0.19504  1.0000
  Fe  Fe53      1.0  0.56682  0.64300  0.29275  1.0000
  S   S108      1.0  0.54565  0.62406  0.34533  1.0000
  S   S109      1.0  0.58165  0.62475  0.25015  1.0000
  Fe  Fe54      1.0  0.55429  0.68781  0.30031  1.0000
  S   S110      1.0  0.53210  0.67177  0.35389  1.0000
  S   S111      1.0  0.55655  0.71963  0.26163  1.0000
  Fe  Fe55      1.0  0.56445  0.66424  0.36973  1.0000
  S   S112      1.0  0.58281  0.66908  0.42704  1.0000
  Fe  Fe56      1.0  0.51485  0.63268  0.32615  1.0000
  S   S113      1.0  0.47258  0.60269  0.33594  1.0000
  S   S114      1.0  0.58825  0.68302  0.31786  1.0000
  S   S115      1.0  0.53435  0.64882  0.27185  1.0000
  S   S116      1.0  0.39893  0.53659  0.20286  1.0000
  C   C289      1.0  0.45344  0.58299  0.29865  1.0000
  C   C290      1.0  0.46129  0.58954  0.26173  1.0000
  C   C291      1.0  0.44457  0.57495  0.23261  1.0000
  C   C292      1.0  0.42035  0.55301  0.24007  1.0000
  C   C293      1.0  0.41293  0.54581  0.27700  1.0000
  C   C294      1.0  0.42924  0.56100  0.30614  1.0000
  H   H291      1.0  0.48007  0.60604  0.25547  1.0000
  H   H292      1.0  0.45049  0.58057  0.20414  1.0000
  H   H293      1.0  0.50835  0.59923  0.40431  1.0000
  H   H294      1.0  0.42305  0.55570  0.33460  1.0000
  C   C295      1.0  0.56866  0.66728  0.47129  1.0000
  C   C296      1.0  0.54511  0.66706  0.47542  1.0000
  H   H295      1.0  0.66628  0.00312  0.22045  1.0000
  H   H296      1.0  0.53535  0.66881  0.45122  1.0000
  H   H297      1.0  0.46869  0.60031  0.42104  1.0000
  C   C297      1.0  0.55731  0.79783  0.26870  1.0000
  C   C298      1.0  0.55716  0.78476  0.30138  1.0000
  C   C299      1.0  0.55712  0.76098  0.29995  1.0000
  C   C300      1.0  0.55737  0.74997  0.26569  1.0000
  C   C301      1.0  0.55739  0.76298  0.23305  1.0000
  C   C302      1.0  0.55730  0.78667  0.23448  1.0000
  H   H298      1.0  0.55720  0.79315  0.32806  1.0000
  H   H299      1.0  0.55708  0.75129  0.32532  1.0000
  H   H300      1.0  0.55759  0.75473  0.20635  1.0000
  H   H301      1.0  0.55746  0.79640  0.20907  1.0000
  C   C303      1.0  0.57530  0.88421  0.04250  1.0000
  C   C304      1.0  0.54944  0.86453  0.04666  1.0000
  N   N28       1.0  0.42366  0.86093  0.37357  1.0000
  H   H302      1.0  0.58704  0.89325  0.06683  1.0000
  H   H303      1.0  0.46071  0.92625  0.36879  1.0000
  C   C305      1.0  0.60490  0.97371  0.25518  1.0000
  C   C306      1.0  0.62628  0.97666  0.23472  1.0000
  N   N29       1.0  0.52150  0.60253  0.46026  1.0000
  H   H304      1.0  0.58685  0.95542  0.25454  1.0000
  H   H305      1.0  0.48516  0.64700  0.21657  1.0000
  C   C307      1.0  0.41794  0.85458  0.26753  1.0000
  C   C308      1.0  0.43185  0.84214  0.25727  1.0000
  C   C309      1.0  0.45794  0.85667  0.24588  1.0000
  C   C310      1.0  0.47010  0.88370  0.24456  1.0000
  C   C311      1.0  0.45599  0.89607  0.25391  1.0000
  C   C312      1.0  0.43000  0.88157  0.26552  1.0000
  H   H306      1.0  0.42253  0.82123  0.25874  1.0000
  H   H307      1.0  0.46871  0.84701  0.23872  1.0000
  H   H308      1.0  0.46529  0.91699  0.25271  1.0000
  H   H309      1.0  0.41936  0.89128  0.27314  1.0000
  S   S117      1.0  0.37490  0.88551  0.43757  1.0000
  C   C313      1.0  0.53345  0.93128  0.08826  1.0000
  C   C314      1.0  0.63029  0.58467  0.26490  1.0000
  C   C315      1.0  0.62723  0.59823  0.29468  1.0000
  C   C316      1.0  0.61142  0.60962  0.29130  1.0000
  C   C317      1.0  0.59862  0.60766  0.25791  1.0000
  C   C318      1.0  0.60125  0.59362  0.22836  1.0000
  C   C319      1.0  0.61691  0.58208  0.23183  1.0000
  H   H310      1.0  0.63754  0.60038  0.32037  1.0000
  H   H311      1.0  0.60977  0.62055  0.31414  1.0000
  H   H312      1.0  0.59149  0.59209  0.20238  1.0000
  H   H313      1.0  0.61919  0.57187  0.20857  1.0000
  N   N30       1.0  0.62275  0.90585  0.28904  1.0000
  H   H314      1.0  0.51634  0.67637  0.21468  1.0000
  C   C320      1.0  0.38280  0.96609  0.27047  1.0000
  C   C321      1.0  0.40775  0.97150  0.28067  1.0000
  H   H315      1.0  0.48815  0.67505  0.19343  1.0000
  H   H316      1.0  0.41038  0.95667  0.29388  1.0000
  H   H317      1.0  0.45943  0.87741  0.16360  1.0000
  C   C322      1.0  0.63107  0.94689  0.31354  1.0000
  H   H318      1.0  0.63782  0.63616  0.14720  1.0000
  C   C323      1.0  0.58117  0.66524  0.50319  1.0000
  H   H319      1.0  0.66361  0.67803  0.20776  1.0000
  H   H320      1.0  0.54107  0.58179  0.44762  1.0000
  C   C324      1.0  0.42942  0.99618  0.27352  1.0000
  H   H321      1.0  0.61169  0.87126  0.25775  1.0000
  H   H322      1.0  0.65291  0.60824  0.11765  1.0000
  C   C325      1.0  0.51609  0.60372  0.49691  1.0000
  H   H323      1.0  0.47474  0.86764  0.32283  1.0000
  H   H324      1.0  0.59948  0.66556  0.50034  1.0000
  C   C326      1.0  0.37984  0.98568  0.25324  1.0000
  C   C327      1.0  0.65907  0.61566  0.14556  1.0000
  H   H325      1.0  0.47957  0.86279  0.16756  1.0000
  H   H326      1.0  0.38785  0.84855  0.40295  1.0000
  N   N31       1.0  0.48975  0.67784  0.25238  1.0000
  C   C328      1.0  0.49538  0.70306  0.25494  1.0000
  C   C329      1.0  0.48081  0.66193  0.28270  1.0000
  C   C330      1.0  0.49236  0.71303  0.28859  1.0000
  C   C331      1.0  0.47736  0.67118  0.31670  1.0000
  C   C332      1.0  0.48338  0.69697  0.31968  1.0000
  C   C333      1.0  0.49502  0.66852  0.21753  1.0000
  H   H327      1.0  0.50352  0.71597  0.23134  1.0000
  H   H328      1.0  0.47674  0.64208  0.28101  1.0000
  H   H329      1.0  0.49789  0.73335  0.29072  1.0000
  H   H330      1.0  0.47074  0.65849  0.34073  1.0000
  H   H331      1.0  0.48156  0.70464  0.34615  1.0000
  H   H332      1.0  0.56095  0.61277  0.47043  1.0000
  H   H333      1.0  0.59024  0.99181  0.29259  1.0000
  C   C334      1.0  0.58434  0.50933  0.24782  1.0000
  C   C335      1.0  0.53452  0.85302  0.01464  1.0000
  H   H334      1.0  0.55296  0.61211  0.42296  1.0000
  H   H335      1.0  0.43249  0.83385  0.34815  1.0000
  H   H336      1.0  0.64156  0.96792  0.31199  1.0000
  C   C336      1.0  0.45493  0.90601  0.36478  1.0000
  C   C337      1.0  0.37853  0.94980  0.40301  1.0000
  C   C338      1.0  0.47070  0.89920  0.34450  1.0000
  C   C339      1.0  0.60379  0.89314  0.31515  1.0000
  S   S118      1.0  0.65988  0.51357  0.24662  1.0000
  H   H337      1.0  0.45730  0.85464  0.12912  1.0000
  H   H338      1.0  0.48872  0.91406  0.33215  1.0000
  C   C340      1.0  0.52316  0.93693  0.11944  1.0000
  C   C341      1.0  0.43142  0.88650  0.37949  1.0000
  H   H339      1.0  0.37401  0.96247  0.34929  1.0000
  C   C342      1.0  0.66132  0.52318  0.04670  1.0000
  H   H340      1.0  0.39435  0.52898  0.28316  1.0000
  C   C343      1.0  0.50223  0.91676  0.13831  1.0000
  H   H341      1.0  0.49482  0.92122  0.16315  1.0000
  N   N32       1.0  0.49174  0.89170  0.12628  1.0000
  C   C344      1.0  0.36613  0.93761  0.43596  1.0000
  C   C345      1.0  0.43899  0.85410  0.35369  1.0000
  C   C346      1.0  0.47645  0.60308  0.47998  1.0000
  H   H342      1.0  0.35050  0.51323  0.24884  1.0000
  C   C347      1.0  0.50175  0.88600  0.09579  1.0000
  H   H343      1.0  0.40243  0.82866  0.40907  1.0000
  C   C348      1.0  0.63682  0.93235  0.28870  1.0000
  C   C349      1.0  0.60689  0.99441  0.27677  1.0000
  C   C350      1.0  0.61114  0.93413  0.33937  1.0000
  H   H344      1.0  0.38651  0.82779  0.36579  1.0000
  S   S119      1.0  0.35463  0.93565  0.27999  1.0000
  C   C351      1.0  0.64970  0.65749  0.21462  1.0000
  H   H345      1.0  0.39899  0.95627  0.39904  1.0000
  C   C352      1.0  0.57459  0.50585  0.28386  1.0000
  H   H346      1.0  0.53175  0.95668  0.12959  1.0000
  H   H347      1.0  0.58198  0.89689  0.36041  1.0000
  H   H348      1.0  0.41929  0.89196  0.39530  1.0000
  H   H349      1.0  0.65202  0.94245  0.26819  1.0000
  H   H350      1.0  0.60618  0.94525  0.35824  1.0000
  C   C353      1.0  0.39892  0.84050  0.38865  1.0000
  C   C354      1.0  0.65065  0.63143  0.16241  1.0000
  H   H351      1.0  0.36065  0.98172  0.24522  1.0000
  C   C355      1.0  0.48180  0.60120  0.44272  1.0000
  S   S120      1.0  0.65215  0.57265  0.26970  1.0000
  H   H352      1.0  0.51449  0.83779  0.01751  1.0000
  C   C356      1.0  0.54517  0.60207  0.44987  1.0000
  C   C357      1.0  0.62859  0.89110  0.26184  1.0000
  Fe  Fe57      1.0  0.35568  0.87607  0.38050  1.0000
  H   H353      1.0  0.64547  0.88941  0.27125  1.0000
  C   C358      1.0  0.36005  0.88088  0.48196  1.0000
  C   C359      1.0  0.65314  0.51167  0.01141  1.0000
  H   H354      1.0  0.63304  0.90082  0.23428  1.0000
  H   H355      1.0  0.35824  0.54624  0.25530  1.0000
  H   H356      1.0  0.55008  0.94660  0.07387  1.0000
  C   C360      1.0  0.50445  0.60075  0.43334  1.0000
  C   C361      1.0  0.47094  0.87058  0.14762  1.0000
  H   H357      1.0  0.59287  0.87211  0.31581  1.0000
  H   H358      1.0  0.58493  0.52075  0.30463  1.0000
  C   C362      1.0  0.52267  0.90567  0.07626  1.0000
  H   H359      1.0  0.53091  0.90089  0.05266  1.0000
  Fe  Fe58      1.0  0.35139  0.89934  0.30680  1.0000
  Fe  Fe59      1.0  0.66162  0.55019  0.22706  1.0000
  C   C363      1.0  0.59755  0.90707  0.34051  1.0000
  C   C364      1.0  0.34276  0.52672  0.24630  1.0000
  N   N33       1.0  0.65820  0.64047  0.19778  1.0000
  H   H360      1.0  0.60235  0.52675  0.24074  1.0000
  H   H361      1.0  0.37691  0.93461  0.45784  1.0000
  H   H362      1.0  0.44862  0.00010  0.28138  1.0000
  H   H363      1.0  0.62998  0.65251  0.20476  1.0000
  H   H364      1.0  0.45924  0.60399  0.48765  1.0000
  H   H365      1.0  0.64814  0.65523  0.24532  1.0000
  C   C365      1.0  0.67447  0.63458  0.21692  1.0000
  C   C366      1.0  0.58622  0.89178  0.00670  1.0000
  S   S121      1.0  0.63553  0.53953  0.84407  1.0000
  H   H366      1.0  0.52970  0.60544  0.51831  1.0000
  H   H367      1.0  0.46941  0.92315  0.80938  1.0000
  Fe  Fe60      1.0  0.37160  0.90744  0.72443  1.0000
  S   S122      1.0  0.38602  0.89905  0.67118  1.0000
  S   S123      1.0  0.39603  0.94264  0.76175  1.0000
  Fe  Fe61      1.0  0.37824  0.86214  0.69924  1.0000
  S   S124      1.0  0.40962  0.85118  0.69423  1.0000
  H   H368      1.0  0.65660  0.73002  0.62461  1.0000
  Fe  Fe62      1.0  0.51911  0.86896  0.82837  1.0000
  S   S125      1.0  0.53714  0.86697  0.77483  1.0000
  S   S126      1.0  0.47956  0.86536  0.83475  1.0000
  Fe  Fe63      1.0  0.56554  0.87754  0.87432  1.0000
  S   S127      1.0  0.58721  0.87571  0.82356  1.0000
  S   S128      1.0  0.58629  0.88974  0.93022  1.0000
  Fe  Fe64      1.0  0.57360  0.90109  0.79672  1.0000
  S   S129      1.0  0.60016  0.93412  0.75811  1.0000
  Fe  Fe65      1.0  0.54907  0.84155  0.80559  1.0000
  S   S130      1.0  0.53783  0.80367  0.77434  1.0000
  S   S131      1.0  0.55463  0.90506  0.84812  1.0000
  S   S132      1.0  0.52842  0.84155  0.85846  1.0000
  Fe  Fe66      1.0  0.58824  0.65270  0.69007  1.0000
  S   S133      1.0  0.55023  0.62242  0.66620  1.0000
  S   S134      1.0  0.62160  0.64427  0.68710  1.0000
  Fe  Fe67      1.0  0.56572  0.68717  0.71560  1.0000
  S   S135      1.0  0.52559  0.65831  0.69508  1.0000
  S   S136      1.0  0.58108  0.72512  0.74861  1.0000
  Fe  Fe68      1.0  0.53285  0.62735  0.71878  1.0000
  S   S137      1.0  0.51158  0.59158  0.75505  1.0000
  Fe  Fe69      1.0  0.54647  0.65562  0.64371  1.0000
  S   S138      1.0  0.52966  0.65476  0.58614  1.0000
  S   S139      1.0  0.57126  0.65631  0.74338  1.0000
  S   S140      1.0  0.58617  0.68588  0.66326  1.0000
  S   S141      1.0  0.38886  0.52602  0.77036  1.0000
  C   C367      1.0  0.47754  0.57503  0.76108  1.0000
  C   C368      1.0  0.46156  0.58113  0.74004  1.0000
  C   C369      1.0  0.43438  0.56642  0.74403  1.0000
  C   C370      1.0  0.42302  0.54547  0.76887  1.0000
  C   C371      1.0  0.43903  0.53962  0.79029  1.0000
  C   C372      1.0  0.46620  0.55439  0.78642  1.0000
  H   H369      1.0  0.47013  0.59704  0.72052  1.0000
  H   H370      1.0  0.42209  0.57110  0.72749  1.0000
  C   C373      1.0  0.37556  0.88640  0.51386  1.0000
  H   H371      1.0  0.47846  0.54964  0.80290  1.0000
  Fe  Fe70      1.0  0.66185  0.53148  0.87901  1.0000
  C   C374      1.0  0.54621  0.66164  0.54281  1.0000
  C   C375      1.0  0.56998  0.66229  0.53872  1.0000
  H   H372      1.0  0.39599  0.89260  0.51095  1.0000
  H   H373      1.0  0.57954  0.66012  0.56285  1.0000
  C   C376      1.0  0.55044  0.78224  0.76775  1.0000
  C   C377      1.0  0.57340  0.78625  0.78450  1.0000
  C   C378      1.0  0.58237  0.76854  0.77838  1.0000
  C   C379      1.0  0.56853  0.74657  0.75556  1.0000
  C   C380      1.0  0.54551  0.74252  0.73895  1.0000
  C   C381      1.0  0.53657  0.76024  0.74502  1.0000
  H   H374      1.0  0.58428  0.80299  0.80211  1.0000
  H   H375      1.0  0.60016  0.77190  0.79149  1.0000
  H   H376      1.0  0.53465  0.72580  0.72127  1.0000
  H   H377      1.0  0.51886  0.75692  0.73172  1.0000
  C   C382      1.0  0.57136  0.88006  0.97468  1.0000
  H   H378      1.0  0.43472  0.52966  0.68829  1.0000
  C   C383      1.0  0.54533  0.86080  0.97886  1.0000
  H   H379      1.0  0.37715  0.88841  0.57390  1.0000
  H   H380      1.0  0.53366  0.85158  0.95456  1.0000
  C   C384      1.0  0.59659  0.97569  0.78691  1.0000
  C   C385      1.0  0.60724  0.96682  0.75982  1.0000
  C   C386      1.0  0.62510  0.98466  0.73423  1.0000
  H   H381      1.0  0.58293  0.96223  0.80688  1.0000
  H   H382      1.0  0.63338  0.97798  0.71308  1.0000
  C   C387      1.0  0.42815  0.85352  0.73369  1.0000
  C   C388      1.0  0.45198  0.85422  0.72914  1.0000
  C   C389      1.0  0.46791  0.85770  0.75992  1.0000
  C   C390      1.0  0.45989  0.86010  0.79551  1.0000
  C   C391      1.0  0.43574  0.85865  0.80016  1.0000
  C   C392      1.0  0.41995  0.85541  0.76936  1.0000
  H   H383      1.0  0.45837  0.85260  0.70161  1.0000
  H   H384      1.0  0.48638  0.85862  0.75601  1.0000
  H   H385      1.0  0.42929  0.86025  0.82766  1.0000
  H   H386      1.0  0.40139  0.85430  0.77332  1.0000
  N   N34       1.0  0.64249  0.72510  0.73000  1.0000
  S   S142      1.0  0.36583  0.87134  0.75305  1.0000
  C   C393      1.0  0.63288  0.63444  0.72592  1.0000
  C   C394      1.0  0.62910  0.64018  0.76230  1.0000
  C   C395      1.0  0.65595  0.61308  0.75014  1.0000
  C   C396      1.0  0.65251  0.61913  0.78649  1.0000
  C   C397      1.0  0.59935  0.55890  0.76398  1.0000
  C   C398      1.0  0.64652  0.62106  0.72002  1.0000
  H   H387      1.0  0.65003  0.71908  0.78587  1.0000
  H   H388      1.0  0.64974  0.61672  0.69198  1.0000
  C   C399      1.0  0.63128  0.93791  0.86579  1.0000
  C   C400      1.0  0.64999  0.70905  0.71376  1.0000
  H   H389      1.0  0.44325  0.93769  0.74407  1.0000
  C   C401      1.0  0.40812  0.97642  0.75669  1.0000
  C   C402      1.0  0.40091  0.98677  0.72726  1.0000
  H   H390      1.0  0.54672  0.58035  0.80992  1.0000
  H   H391      1.0  0.38837  0.97410  0.70562  1.0000
  H   H392      1.0  0.49009  0.60639  0.53637  1.0000
  C   C403      1.0  0.63982  0.74280  0.70908  1.0000
  H   H393      1.0  0.61311  0.94571  0.91215  1.0000
  C   C404      1.0  0.36493  0.88404  0.54966  1.0000
  H   H394      1.0  0.60271  0.55099  0.70658  1.0000
  H   H395      1.0  0.63299  0.75494  0.72163  1.0000
  C   C405      1.0  0.65115  0.97104  0.82042  1.0000
  H   H396      1.0  0.42989  0.91092  0.77627  1.0000
  H   H397      1.0  0.57860  0.57270  0.68392  1.0000
  H   H398      1.0  0.62581  0.91867  0.87581  1.0000
  C   C406      1.0  0.43081  0.51231  0.70332  1.0000
  H   H399      1.0  0.63771  0.92207  0.78732  1.0000
  Fe  Fe71      1.0  0.64462  0.52075  0.79702  1.0000
  H   H400      1.0  0.61607  0.70542  0.77371  1.0000
  C   C407      1.0  0.63594  0.72218  0.76961  1.0000
  Fe  Fe72      1.0  0.34397  0.87617  0.65396  1.0000
  N   N35       1.0  0.47651  0.77716  0.81708  1.0000
  C   C408      1.0  0.47335  0.77482  0.77938  1.0000
  C   C409      1.0  0.46595  0.78912  0.83733  1.0000
  C   C410      1.0  0.45884  0.78410  0.76113  1.0000
  C   C411      1.0  0.45120  0.79848  0.82000  1.0000
  C   C412      1.0  0.44750  0.79578  0.78169  1.0000
  C   C413      1.0  0.49179  0.76747  0.83614  1.0000
  H   H401      1.0  0.48253  0.76623  0.76308  1.0000
  H   H402      1.0  0.46918  0.79179  0.86702  1.0000
  H   H403      1.0  0.45671  0.78257  0.73119  1.0000
  H   H404      1.0  0.44318  0.80834  0.83605  1.0000
  H   H405      1.0  0.43626  0.80315  0.76791  1.0000
  H   H406      1.0  0.48062  0.75471  0.85965  1.0000
  H   H407      1.0  0.49731  0.75622  0.81716  1.0000
  H   H408      1.0  0.51019  0.78403  0.84669  1.0000
  H   H409      1.0  0.56185  0.59222  0.72902  1.0000
  C   C414      1.0  0.56718  0.59446  0.80243  1.0000
  C   C415      1.0  0.57228  0.58276  0.73903  1.0000
  N   N36       1.0  0.64476  0.94696  0.83324  1.0000
  H   H410      1.0  0.43029  0.98544  0.80730  1.0000
  H   H411      1.0  0.63598  0.73960  0.78095  1.0000
  H   H412      1.0  0.65132  0.69442  0.73001  1.0000
  H   H413      1.0  0.39979  0.98431  0.89175  1.0000
  H   H414      1.0  0.63667  0.63783  0.82038  1.0000
  C   C416      1.0  0.38210  0.99143  0.84418  1.0000
  C   C417      1.0  0.65984  0.52691  0.97910  1.0000
  H   H415      1.0  0.62512  0.98990  0.88957  1.0000
  H   H416      1.0  0.51581  0.66420  0.51389  1.0000
  C   C418      1.0  0.59504  0.55944  0.72606  1.0000
  H   H417      1.0  0.59443  0.57086  0.81812  1.0000
  C   C419      1.0  0.58146  0.57148  0.71341  1.0000
  C   C420      1.0  0.65145  0.93045  0.81097  1.0000
  H   H418      1.0  0.66076  0.97776  0.79379  1.0000
  H   H419      1.0  0.66088  0.69761  0.66297  1.0000
  H   H420      1.0  0.56753  0.61171  0.79000  1.0000
  H   H421      1.0  0.34791  0.50974  0.95727  1.0000
  C   C421      1.0  0.63923  0.63289  0.79237  1.0000
  H   H422      1.0  0.38869  0.51440  0.68879  1.0000
  C   C422      1.0  0.63084  0.97794  0.87396  1.0000
  S   S143      1.0  0.66492  0.61041  0.82518  1.0000
  H   H423      1.0  0.47119  0.52751  0.71743  1.0000
  C   C423      1.0  0.53411  0.66452  0.51103  1.0000
  C   C424      1.0  0.64511  0.74505  0.67098  1.0000
  H   H424      1.0  0.65039  0.91423  0.82757  1.0000
  H   H425      1.0  0.57928  0.60117  0.82793  1.0000
  C   C425      1.0  0.42453  0.99324  0.78446  1.0000
  N   N37       1.0  0.57706  0.58259  0.77612  1.0000
  C   C426      1.0  0.60429  0.00225  0.78884  1.0000
  N   N38       1.0  0.46584  0.91927  0.75049  1.0000
  C   C427      1.0  0.47846  0.92254  0.78352  1.0000
  C   C428      1.0  0.47709  0.91797  0.71796  1.0000
  C   C429      1.0  0.50280  0.92411  0.78460  1.0000
  C   C430      1.0  0.50147  0.91960  0.71802  1.0000
  C   C431      1.0  0.51436  0.92266  0.75161  1.0000
  H   H426      1.0  0.37288  0.97143  0.83482  1.0000
  H   H427      1.0  0.43049  0.52361  0.80959  1.0000
  H   H428      1.0  0.46688  0.91501  0.69184  1.0000
  H   H429      1.0  0.51224  0.92562  0.81100  1.0000
  H   H430      1.0  0.51010  0.91805  0.69226  1.0000
  H   H431      1.0  0.53308  0.92348  0.75215  1.0000
  H   H432      1.0  0.42789  0.90458  0.72775  1.0000
  C   C432      1.0  0.44059  0.91816  0.74964  1.0000
  S   S144      1.0  0.66765  0.50903  0.83330  1.0000
  H   H433      1.0  0.61042  0.55009  0.77395  1.0000
  S   S145      1.0  0.65042  0.51126  0.93523  1.0000
  H   H434      1.0  0.61882  0.65062  0.76729  1.0000
  C   C433      1.0  0.59021  0.57066  0.78880  1.0000
  H   H435      1.0  0.64238  0.75871  0.65442  1.0000
  C   C434      1.0  0.65303  0.72894  0.65428  1.0000
  C   C435      1.0  0.65550  0.71082  0.67576  1.0000
  C   C436      1.0  0.45156  0.51116  0.71969  1.0000
  C   C437      1.0  0.62409  0.95321  0.88659  1.0000
  C   C438      1.0  0.64459  0.98702  0.84077  1.0000
  H   H436      1.0  0.66637  0.60275  0.74520  1.0000
  C   C439      1.0  0.36274  0.00161  0.79133  1.0000
  C   C440      1.0  0.39737  0.99859  0.87632  1.0000
  H   H437      1.0  0.67152  0.94186  0.79982  1.0000
  Fe  Fe73      1.0  0.67122  0.57565  0.82547  1.0000
  H   H438      1.0  0.36208  0.98451  0.77767  1.0000
  C   C441      1.0  0.67458  0.55390  0.98248  1.0000
  H   H439      1.0  0.60639  0.90665  0.00384  1.0000
  C   C442      1.0  0.49357  0.60414  0.50733  1.0000
  H   H440      1.0  0.34272  0.99670  0.79928  1.0000
  S   S146      1.0  0.86211  0.45277  0.32296  1.0000
  H   H441      1.0  0.81185  0.35562  0.14630  1.0000
  S   S147      1.0  0.70306  0.11025  0.33131  1.0000
  C   C443      1.0  0.99226  0.36002  0.25303  1.0000
  C   C444      1.0  0.68751  0.10069  0.48105  1.0000
  H   H442      1.0  0.93066  0.45159  0.21517  1.0000
  Fe  Fe74      1.0  0.70410  0.14175  0.29487  1.0000
  S   S148      1.0  0.73735  0.16407  0.25342  1.0000
  H   H443      1.0  0.92271  0.42500  0.34653  1.0000
  Fe  Fe75      1.0  0.92179  0.35206  0.21932  1.0000
  S   S149      1.0  0.91752  0.36809  0.16501  1.0000
  S   S150      1.0  0.95745  0.37884  0.25424  1.0000
  Fe  Fe76      1.0  0.86335  0.30830  0.21903  1.0000
  S   S151      1.0  0.85564  0.32197  0.16474  1.0000
  S   S152      1.0  0.83139  0.28104  0.25961  1.0000
  Fe  Fe77      1.0  0.89405  0.32671  0.14612  1.0000
  S   S153      1.0  0.90108  0.31414  0.08926  1.0000
  Fe  Fe78      1.0  0.87978  0.36220  0.18780  1.0000
  S   S154      1.0  0.86976  0.39394  0.18074  1.0000
  S   S155      1.0  0.90072  0.31045  0.19953  1.0000
  S   S156      1.0  0.88512  0.34867  0.24287  1.0000
  C   C445      1.0  0.98685  0.37920  0.26522  1.0000
  H   H444      1.0  0.78537  0.28125  0.23070  1.0000
  H   H445      1.0  0.94852  0.50131  0.26179  1.0000
  H   H446      1.0  0.81872  0.36245  0.21369  1.0000
  C   C446      1.0  0.89671  0.32516  0.04533  1.0000
  C   C447      1.0  0.88602  0.34137  0.04203  1.0000
  H   H447      1.0  0.79079  0.31075  0.12058  1.0000
  H   H448      1.0  0.88043  0.34775  0.06674  1.0000
  H   H449      1.0  0.80832  0.34450  0.27566  1.0000
  C   C448      1.0  0.76202  0.19735  0.25398  1.0000
  C   C449      1.0  0.76431  0.21405  0.28295  1.0000
  C   C450      1.0  0.78535  0.23974  0.28367  1.0000
  C   C451      1.0  0.80423  0.24917  0.25532  1.0000
  C   C452      1.0  0.80157  0.23272  0.22583  1.0000
  C   C453      1.0  0.78068  0.20694  0.22533  1.0000
  H   H450      1.0  0.75014  0.20700  0.30518  1.0000
  H   H451      1.0  0.78716  0.25226  0.30665  1.0000
  H   H452      1.0  0.81594  0.23961  0.20386  1.0000
  H   H453      1.0  0.77911  0.19420  0.20277  1.0000
  C   C454      1.0  0.99936  0.39237  0.16800  1.0000
  H   H454      1.0  0.91673  0.48998  0.28161  1.0000
  H   H455      1.0  0.91957  0.48420  0.23374  1.0000
  H   H456      1.0  0.00175  0.41495  0.29591  1.0000
  C   C455      1.0  0.00575  0.40010  0.28606  1.0000
  C   C456      1.0  0.86263  0.43597  0.28292  1.0000
  C   C457      1.0  0.86169  0.41208  0.28694  1.0000
  C   C458      1.0  0.86387  0.39903  0.25581  1.0000
  C   C459      1.0  0.86660  0.40961  0.22036  1.0000
  C   C460      1.0  0.86663  0.43304  0.21620  1.0000
  C   C461      1.0  0.86478  0.44626  0.24740  1.0000
  H   H457      1.0  0.85986  0.40395  0.31435  1.0000
  H   H458      1.0  0.86347  0.38086  0.25937  1.0000
  H   H459      1.0  0.86835  0.44116  0.18880  1.0000
  H   H460      1.0  0.86498  0.46439  0.24391  1.0000
  N   N39       1.0  0.92691  0.46081  0.27129  1.0000
  C   C462      1.0  0.92728  0.41570  0.29014  1.0000
  C   C463      1.0  0.92936  0.44607  0.24410  1.0000
  H   H461      1.0  0.82809  0.32938  0.27058  1.0000
  C   C464      1.0  0.80846  0.32685  0.26578  1.0000
  H   H462      1.0  0.77752  0.27338  0.16345  1.0000
  S   S157      1.0  0.69386  0.16049  0.34088  1.0000
  C   C465      1.0  0.78615  0.29299  0.17427  1.0000
  S   S158      1.0  0.70961  0.14283  0.43337  1.0000
  C   C466      1.0  0.92480  0.43087  0.31768  1.0000
  C   C467      1.0  0.92805  0.48525  0.26158  1.0000
  C   C468      1.0  0.92950  0.42327  0.25309  1.0000
  C   C469      1.0  0.69633  0.12712  0.47633  1.0000
  H   H463      1.0  0.98053  0.41470  0.17849  1.0000
  H   H464      1.0  0.98306  0.37735  0.15261  1.0000
  N   N40       1.0  0.80911  0.20631  0.32738  1.0000
  C   C470      1.0  0.79544  0.18224  0.31161  1.0000
  C   C471      1.0  0.80051  0.21189  0.35951  1.0000
  C   C472      1.0  0.77232  0.16315  0.32773  1.0000
  C   C473      1.0  0.77739  0.19323  0.37630  1.0000
  C   C474      1.0  0.76329  0.16874  0.36025  1.0000
  C   C475      1.0  0.83370  0.22587  0.31067  1.0000
  H   H465      1.0  0.80188  0.17787  0.28577  1.0000
  H   H466      1.0  0.81134  0.23095  0.37203  1.0000
  H   H467      1.0  0.76108  0.14440  0.31438  1.0000
  H   H468      1.0  0.77019  0.19763  0.40143  1.0000
  H   H469      1.0  0.74526  0.15422  0.37289  1.0000
  H   H470      1.0  0.85014  0.22443  0.32263  1.0000
  H   H471      1.0  0.83352  0.22335  0.28005  1.0000
  H   H472      1.0  0.83701  0.24579  0.31537  1.0000
  H   H473      1.0  0.91225  0.30465  0.01499  1.0000
  C   C476      1.0  0.80525  0.33904  0.16464  1.0000
  C   C477      1.0  0.80934  0.34284  0.20289  1.0000
  C   C478      1.0  0.79069  0.29756  0.21235  1.0000
  C   C479      1.0  0.79357  0.31392  0.15028  1.0000
  H   H474      1.0  0.92240  0.46508  0.32919  1.0000
  H   H475      1.0  0.97787  0.34375  0.23715  1.0000
  Fe  Fe79      1.0  0.69052  0.12798  0.37675  1.0000
  H   H476      1.0  0.92733  0.39801  0.29736  1.0000
  C   C480      1.0  0.92474  0.45356  0.30771  1.0000
  H   H477      1.0  0.93098  0.41133  0.23149  1.0000
  N   N41       1.0  0.80214  0.32225  0.22619  1.0000
  Fe  Fe80      1.0  0.87558  0.49566  0.31967  1.0000
  H   H478      1.0  0.75202  0.49334  0.28377  1.0000
  H   H479      1.0  0.79427  0.31020  0.28280  1.0000
  C   C481      1.0  0.99796  0.41341  0.18245  1.0000
  H   H480      1.0  0.67964  0.46744  0.21396  1.0000
  H   H481      1.0  0.68649  0.08901  0.45738  1.0000
  C   C482      1.0  0.90386  0.31709  0.01277  1.0000
  H   H482      1.0  0.70484  0.16254  0.50429  1.0000
  C   C483      1.0  0.88243  0.34925  0.00666  1.0000
  S   S159      1.0  0.85882  0.47113  0.75782  1.0000
  C   C484      1.0  0.94068  0.48285  0.82010  1.0000
  S   S160      1.0  0.69494  0.09919  0.69876  1.0000
  C   C485      1.0  0.97155  0.39086  0.72051  1.0000
  C   C486      1.0  0.85880  0.41396  0.68137  1.0000
  Fe  Fe81      1.0  0.70702  0.14025  0.71627  1.0000
  S   S161      1.0  0.74934  0.16404  0.73658  1.0000
  H   H483      1.0  0.84488  0.42183  0.78940  1.0000
  H   H484      1.0  0.69254  0.14255  0.56707  1.0000
  Fe  Fe82      1.0  0.89218  0.34255  0.87157  1.0000
  S   S162      1.0  0.88797  0.30600  0.84590  1.0000
  S   S163      1.0  0.88352  0.35092  0.93026  1.0000
  Fe  Fe83      1.0  0.90274  0.37003  0.79572  1.0000
  S   S164      1.0  0.89854  0.33544  0.76487  1.0000
  S   S165      1.0  0.91851  0.40790  0.76441  1.0000
  Fe  Fe84      1.0  0.86397  0.31108  0.80159  1.0000
  S   S166      1.0  0.82211  0.28354  0.78213  1.0000
  Fe  Fe85      1.0  0.92303  0.33356  0.81097  1.0000
  S   S167      1.0  0.95777  0.32956  0.79303  1.0000
  S   S168      1.0  0.86661  0.34646  0.82902  1.0000
  S   S169      1.0  0.92868  0.36928  0.84019  1.0000
  C   C487      1.0  0.98932  0.35706  0.78759  1.0000
  H   H485      1.0  0.82480  0.44583  0.67470  1.0000
  H   H486      1.0  0.99471  0.43215  0.72806  1.0000
  H   H487      1.0  0.98032  0.38403  0.81412  1.0000
  Fe  Fe86      1.0  0.67679  0.10702  0.64904  1.0000
  C   C488      1.0  0.88962  0.34123  0.97414  1.0000
  C   C489      1.0  0.90046  0.32514  0.97739  1.0000
  C   C490      1.0  0.99409  0.41492  0.71688  1.0000
  H   H488      1.0  0.90625  0.31893  0.95271  1.0000
  H   H489      1.0  0.72884  0.08976  0.59207  1.0000
  C   C491      1.0  0.76924  0.19740  0.74891  1.0000
  C   C492      1.0  0.79520  0.20652  0.75976  1.0000
  C   C493      1.0  0.81178  0.23277  0.76962  1.0000
  C   C494      1.0  0.80258  0.25032  0.76878  1.0000
  C   C495      1.0  0.77662  0.24119  0.75802  1.0000
  C   C496      1.0  0.76008  0.21498  0.74806  1.0000
  H   H490      1.0  0.80257  0.19316  0.76046  1.0000
  H   H491      1.0  0.83166  0.23939  0.77773  1.0000
  H   H492      1.0  0.76920  0.25451  0.75737  1.0000
  H   H493      1.0  0.74021  0.20837  0.73988  1.0000
  H   H494      1.0  0.75046  0.17086  0.54490  1.0000
  H   H495      1.0  0.95072  0.45334  0.83014  1.0000
  H   H496      1.0  0.79715  0.28751  0.90289  1.0000
  C   C497      1.0  0.92168  0.48996  0.82434  1.0000
  C   C498      1.0  0.89876  0.47356  0.84332  1.0000
  C   C499      1.0  0.87510  0.45324  0.75800  1.0000
  C   C500      1.0  0.89929  0.46260  0.74084  1.0000
  C   C501      1.0  0.91216  0.44822  0.74248  1.0000
  C   C502      1.0  0.90092  0.42441  0.76119  1.0000
  C   C503      1.0  0.87651  0.41476  0.77776  1.0000
  C   C504      1.0  0.86367  0.42921  0.77624  1.0000
  H   H497      1.0  0.90826  0.48107  0.72680  1.0000
  H   H498      1.0  0.93107  0.45578  0.72966  1.0000
  H   H499      1.0  0.86761  0.39631  0.79198  1.0000
  H   H500      1.0  0.82306  0.40787  0.70611  1.0000
  C   C505      1.0  0.90952  0.41848  0.86797  1.0000
  H   H501      1.0  0.82394  0.22436  0.85584  1.0000
  H   H502      1.0  0.72695  0.09296  0.64077  1.0000
  C   C506      1.0  0.85243  0.26475  0.92928  1.0000
  H   H503      1.0  0.85409  0.23161  0.90844  1.0000
  C   C507      1.0  0.86080  0.45632  0.64633  1.0000
  H   H504      1.0  0.74027  0.12559  0.55297  1.0000
  H   H505      1.0  0.87704  0.43730  0.87185  1.0000
  H   H506      1.0  0.92791  0.41971  0.87749  1.0000
  C   C508      1.0  0.84605  0.24430  0.90464  1.0000
  H   H507      1.0  0.82981  0.31487  0.89876  1.0000
  H   H508      1.0  0.95418  0.34973  0.71157  1.0000
  C   C509      1.0  0.83982  0.44086  0.66958  1.0000
  H   H509      1.0  0.95460  0.38929  0.73458  1.0000
  C   C510      1.0  0.97123  0.36867  0.70728  1.0000
  N   N42       1.0  0.88043  0.45091  0.64109  1.0000
  N   N43       1.0  0.82637  0.27753  0.89396  1.0000
  C   C511      1.0  0.81927  0.25698  0.87048  1.0000
  C   C512      1.0  0.84216  0.28113  0.92364  1.0000
  C   C513      1.0  0.89523  0.45027  0.85809  1.0000
  H   H510      1.0  0.85857  0.39783  0.69573  1.0000
  H   H511      1.0  0.81315  0.29707  0.85819  1.0000
  C   C514      1.0  0.81603  0.29506  0.88827  1.0000
  H   H512      1.0  0.80601  0.25357  0.84772  1.0000
  C   C515      1.0  0.99352  0.37087  0.69038  1.0000
  H   H513      1.0  0.00485  0.33545  0.76024  1.0000
  C   C516      1.0  0.87967  0.43005  0.65830  1.0000
  C   C517      1.0  0.82921  0.24024  0.87516  1.0000
  C   C518      1.0  0.99501  0.38163  0.79992  1.0000
  C   C519      1.0  0.83884  0.41954  0.68715  1.0000
  S   S170      1.0  0.67922  0.09054  0.59287  1.0000
  H   H514      1.0  0.86143  0.47287  0.63279  1.0000
  N   N44       1.0  0.91407  0.44357  0.85413  1.0000
  N   N45       1.0  0.74556  0.12880  0.61172  1.0000
  C   C520      1.0  0.74558  0.13818  0.57708  1.0000
  C   C521      1.0  0.75191  0.14464  0.64211  1.0000
  C   C522      1.0  0.75133  0.16383  0.57233  1.0000
  C   C523      1.0  0.75779  0.17040  0.63834  1.0000
  C   C524      1.0  0.75729  0.17995  0.60325  1.0000
  C   C525      1.0  0.73975  0.10195  0.61630  1.0000
  H   H515      1.0  0.89550  0.46928  0.58927  1.0000
  H   H516      1.0  0.75214  0.13733  0.66961  1.0000
  C   C526      1.0  0.68342  0.10463  0.54814  1.0000
  H   H517      1.0  0.76236  0.18276  0.66262  1.0000
  H   H518      1.0  0.76129  0.19973  0.60013  1.0000
  H   H519      1.0  0.84711  0.29690  0.94296  1.0000
  H   H520      1.0  0.86538  0.26807  0.95249  1.0000
  H   H521      1.0  0.91672  0.46119  0.61423  1.0000
  C   C527      1.0  0.90249  0.46801  0.61739  1.0000
  H   H522      1.0  0.89544  0.42598  0.65488  1.0000
  H   H523      1.0  0.89591  0.41157  0.89199  1.0000
  S   S171      1.0  0.69090  0.14854  0.66462  1.0000
  H   H524      1.0  0.95823  0.49513  0.80444  1.0000
  H   H525      1.0  0.91279  0.48790  0.62936  1.0000
  H   H526      1.0  0.88344  0.47844  0.84530  1.0000
  H   H527      1.0  0.90121  0.40383  0.84547  1.0000
  H   H528      1.0  0.99330  0.35338  0.68136  1.0000
  C   C528      1.0  0.93640  0.45930  0.83492  1.0000
  H   H529      1.0  0.75801  0.10137  0.61985  1.0000
  H   H530      1.0  0.89052  0.49653  0.51537  1.0000
  H   H531      1.0  0.68693  0.49566  0.90783  1.0000
  C   C529      1.0  0.68140  0.08962  0.51679  1.0000
  H   H532      1.0  0.69997  0.50156  0.98030  1.0000
  C   C530      1.0  0.69795  0.14207  0.50761  1.0000
  C   C531      1.0  0.69102  0.13079  0.54324  1.0000
  H   H533      1.0  0.71496  0.49161  0.91461  1.0000
  H   H534      1.0  0.87399  0.36165  0.00455  1.0000
  H   H535      1.0  0.67554  0.06937  0.52024  1.0000
  H   H536      1.0  0.81230  0.57750  0.31154  1.0000
  H   H537      1.0  0.84215  0.54776  0.41886  1.0000
  Fe  Fe87      1.0  0.89267  0.54303  0.36921  1.0000
  S   S172      1.0  0.90601  0.56987  0.31962  1.0000
  S   S173      1.0  0.89542  0.56173  0.42581  1.0000
  Fe  Fe88      1.0  0.86820  0.54013  0.29309  1.0000
  S   S174      1.0  0.84524  0.55524  0.26044  1.0000
  Fe  Fe89      1.0  0.92358  0.54646  0.29775  1.0000
  S   S175      1.0  0.96184  0.55441  0.27034  1.0000
  H   H538      1.0  0.69546  0.61359  0.21671  1.0000
  H   H539      1.0  0.68200  0.59703  0.15231  1.0000
  C   C532      1.0  0.86367  0.60549  0.32219  1.0000
  Fe  Fe90      1.0  0.69735  0.52613  0.21574  1.0000
  S   S176      1.0  0.88690  0.51887  0.26714  1.0000
  H   H540      1.0  0.89214  0.51342  0.45181  1.0000
  H   H541      1.0  0.85616  0.60534  0.29387  1.0000
  Fe  Fe91      1.0  0.67771  0.54402  0.14902  1.0000
  S   S177      1.0  0.70093  0.56459  0.20045  1.0000
  H   H542      1.0  0.88176  0.60455  0.31815  1.0000
  H   H543      1.0  0.86837  0.62387  0.33641  1.0000
  S   S178      1.0  0.72281  0.51311  0.24653  1.0000
  H   H544      1.0  0.87350  0.58517  0.38142  1.0000
  C   C533      1.0  0.80911  0.54127  0.38594  1.0000
  C   C534      1.0  0.99093  0.58344  0.25898  1.0000
  C   C535      1.0  0.85305  0.57536  0.37410  1.0000
  H   H545      1.0  0.69429  0.58629  0.02009  1.0000
  H   H546      1.0  0.97923  0.60975  0.28079  1.0000
  H   H547      1.0  0.78042  0.53977  0.34774  1.0000
  C   C536      1.0  0.81106  0.54236  0.25534  1.0000
  H   H548      1.0  0.74469  0.58239  0.00698  1.0000
  C   C537      1.0  0.68274  0.56542  0.01781  1.0000
  C   C538      1.0  0.75696  0.52489  0.24886  1.0000
  C   C539      1.0  0.77527  0.54763  0.23106  1.0000
  C   C540      1.0  0.80210  0.55628  0.23433  1.0000
  C   C541      1.0  0.80074  0.54985  0.35577  1.0000
  C   C542      1.0  0.99461  0.60801  0.26732  1.0000
  H   H549      1.0  0.76878  0.55860  0.21482  1.0000
  H   H550      1.0  0.81604  0.57395  0.22052  1.0000
  C   C543      1.0  0.89360  0.54843  0.47068  1.0000
  C   C544      1.0  0.89223  0.52448  0.47572  1.0000
  S   S179      1.0  0.91292  0.52190  0.34931  1.0000
  C   C545      1.0  0.79276  0.51959  0.27309  1.0000
  C   C546      1.0  0.83537  0.55424  0.39545  1.0000
  N   N46       1.0  0.84477  0.58329  0.34409  1.0000
  C   C547      1.0  0.81891  0.57120  0.33529  1.0000
  S   S180      1.0  0.67679  0.50667  0.16250  1.0000
  C   C548      1.0  0.76593  0.51097  0.26989  1.0000
  S   S181      1.0  0.68841  0.56543  0.09366  1.0000
  S   S182      1.0  0.85410  0.51474  0.34374  1.0000
  H   H551      1.0  0.89485  0.58110  0.49867  1.0000
  H   H552      1.0  0.79534  0.52454  0.40183  1.0000
  C   C549      1.0  0.89374  0.56253  0.50220  1.0000
  H   H553      1.0  0.71712  0.53675  0.02707  1.0000
  H   H554      1.0  0.68016  0.64137  0.24517  1.0000
  H   H555      1.0  0.79928  0.50868  0.28942  1.0000
  C   C550      1.0  0.68322  0.61885  0.20093  1.0000
  C   C551      1.0  0.67631  0.55014  0.05007  1.0000
  C   C552      1.0  0.67545  0.60936  0.16502  1.0000
  H   H556      1.0  0.00853  0.56268  0.23488  1.0000
  Fe  Fe92      1.0  0.88812  0.53115  0.64573  1.0000
  S   S183      1.0  0.89534  0.56997  0.66610  1.0000
  H   H557      1.0  0.87152  0.60170  0.81991  1.0000
  H   H558      1.0  0.84845  0.59715  0.76056  1.0000
  S   S184      1.0  0.88016  0.54483  0.74970  1.0000
  Fe  Fe93      1.0  0.85866  0.54759  0.70030  1.0000
  S   S185      1.0  0.82781  0.56011  0.69903  1.0000
  Fe  Fe94      1.0  0.91631  0.56409  0.71420  1.0000
  S   S186      1.0  0.95251  0.59777  0.74047  1.0000
  C   C553      1.0  0.98988  0.58247  0.73573  1.0000
  S   S187      1.0  0.91170  0.52682  0.69155  1.0000
  Fe  Fe95      1.0  0.70260  0.54720  0.81714  1.0000
  H   H559      1.0  0.71518  0.51272  0.87902  1.0000
  S   S188      1.0  0.74080  0.54610  0.81742  1.0000
  H   H560      1.0  0.89289  0.56406  0.56227  1.0000
  Fe  Fe96      1.0  0.87433  0.50788  0.72370  1.0000
  C   C554      1.0  0.88373  0.61518  0.72806  1.0000
  S   S189      1.0  0.69727  0.56917  0.86461  1.0000
  C   C555      1.0  0.88247  0.60905  0.79437  1.0000
  C   C556      1.0  0.73429  0.55205  0.92344  1.0000
  C   C557      1.0  0.92320  0.63007  0.76115  1.0000
  H   H561      1.0  0.73900  0.55656  0.89430  1.0000
  H   H562      1.0  0.78269  0.53514  0.82047  1.0000
  S   S190      1.0  0.89091  0.51625  0.58825  1.0000
  H   H563      1.0  0.91246  0.62874  0.66897  1.0000
  C   C558      1.0  0.98349  0.60075  0.74874  1.0000
  N   N47       1.0  0.91025  0.62664  0.72841  1.0000
  H   H564      1.0  0.97571  0.56582  0.72024  1.0000
  C   C559      1.0  0.90953  0.62101  0.79451  1.0000
  C   C560      1.0  0.76379  0.54877  0.78309  1.0000
  C   C561      1.0  0.76427  0.55796  0.74722  1.0000
  C   C562      1.0  0.78373  0.56090  0.72175  1.0000
  C   C563      1.0  0.80269  0.55432  0.73149  1.0000
  C   C564      1.0  0.80199  0.54479  0.76720  1.0000
  C   C565      1.0  0.78280  0.54224  0.79284  1.0000
  H   H565      1.0  0.74995  0.56322  0.73926  1.0000
  H   H566      1.0  0.78412  0.56843  0.69431  1.0000
  H   H567      1.0  0.93605  0.65743  0.69337  1.0000
  C   C566      1.0  0.73790  0.56684  0.98672  1.0000
  C   C567      1.0  0.74386  0.57237  0.94917  1.0000
  C   C568      1.0  0.89156  0.52910  0.54340  1.0000
  C   C569      1.0  0.89264  0.55292  0.53836  1.0000
  H   H568      1.0  0.75554  0.59228  0.93991  1.0000
  H   H569      1.0  0.67987  0.56589  0.95790  1.0000
  H   H570      1.0  0.87329  0.61236  0.70220  1.0000
  S   S191      1.0  0.85025  0.50920  0.67669  1.0000
  C   C570      1.0  0.00234  0.62241  0.76857  1.0000
  S   S192      1.0  0.67966  0.55726  0.77673  1.0000
  C   C571      1.0  0.86949  0.60639  0.76105  1.0000
  H   H571      1.0  0.91992  0.62295  0.82013  1.0000
  H   H572      1.0  0.81643  0.53971  0.77523  1.0000
  N   N48       1.0  0.71891  0.52694  0.93477  1.0000
  C   C572      1.0  0.92518  0.63592  0.69385  1.0000
  H   H573      1.0  0.94425  0.63916  0.76140  1.0000
  H   H574      1.0  0.93926  0.62876  0.69161  1.0000
  C   C573      1.0  0.71287  0.52137  0.97149  1.0000
  C   C574      1.0  0.72247  0.54117  0.99806  1.0000
  C   C575      1.0  0.89132  0.51496  0.51187  1.0000
  H   H575      1.0  0.99768  0.63671  0.77876  1.0000
  H   H576      1.0  0.92432  0.50773  0.81190  1.0000
  C   C576      1.0  0.70852  0.50570  0.90773  1.0000
