data_image0
_chemical_formula_structural       H2FeS2CHCHCHNH2CH2C4HCHCHS2HFeHCSFeS2FeS2FeHFeS4FeS2C2HC4HC6H7C3H3C3HCH2CNHCHCH4CHC3HSHC2H2SCH3SC2H3CHNC2NCSC3FeC2FeHC2HNH3C2HC3SH8NC3FeS2FeSCFeSFeS3FeCSHFe2S2CFeSC2FeSHCSC3H5NC2H3C7H4CH6C2H2CH2SC3H2C6H3CHCHCHCH5NHCSH3CSHCHN2H2SC3SHFeCHSC2HFeCHCHC3HC5HNC3H3C4H2CFeH2FeHSHCH4FeS2FeSCFeSFeS3CH2C6H7C3SC4H3C3H2NHC2NC3HCH3C3HCHNH3CHCH3SCHSC3HSHCHSCHC2H2SH2CHCNCH2NCH2CH2CHC5H3CFeC4HCH3CH3C2HC3HCSH2SCSH3S3FeS2FeSHS2HCH2FeHSC2HCFeHC6H4NC5HCH3CHC2NC3H2SH3SCHCH2NCNC2HCH7CSCHCHCFeC5SC2Fe2H2CSCH2FeH5CS2HFeH2C2FeHFeSHFeS2FeSFeS3FeSHFeHCFeS2C2H3CHC6H4CHSHC2SHC2H2C2H4C2HC2NC6H7CNC7SHC3HS2CNHSH2CHFeCH2S2C2SHCHCHCS2HC2Fe2S2FeS2FeSFeS3HCH3C6H4C2HC6H5CHCH3C2FeH3C2H2CH2CHCSCH3SNFeSCHCNC7H7NC6H2SC3HCH2SNH4CHC2H2FeSHSHFeSHFeS2FeSFeS3H2CHCHCHC2H2C6H4CHC3SCH4C2H2C4NC4HCHC3HC2HCH2N2HC2H2SH2C2HFeH3FeSHCSH3C4HCSHSCFeSH2FeS2FeC2FeS3H5SC3H2CH4C2FeCHCHCNCHCHNC
_chemical_formula_sum              "H384 Fe64 S128 C384 N32"
_cell_length_a       52.7127
_cell_length_b       53.2223
_cell_length_c       37.0798
_cell_angle_alpha    87.8446
_cell_angle_beta     88.2516
_cell_angle_gamma    118.929

_space_group_name_H-M_alt    "P 1"
_space_group_IT_number       1

loop_
  _space_group_symop_operation_xyz
  'x, y, z'

loop_
  _atom_site_type_symbol
  _atom_site_label
  _atom_site_symmetry_multiplicity
  _atom_site_fract_x
  _atom_site_fract_y
  _atom_site_fract_z
  _atom_site_occupancy
  H   H1        1.0  0.47046  0.02024  0.36620  1.0000
  H   H2        1.0  0.47719  0.05696  0.26753  1.0000
  Fe  Fe1       1.0  0.47864  0.07939  0.40607  1.0000
  S   S1        1.0  0.47915  0.12228  0.40324  1.0000
  S   S2        1.0  0.43669  0.03653  0.41490  1.0000
  C   C1        1.0  0.44029  0.03860  0.30585  1.0000
  H   H3        1.0  0.42114  0.10074  0.36609  1.0000
  C   C2        1.0  0.46341  0.06122  0.28577  1.0000
  H   H4        1.0  0.46479  0.21078  0.47509  1.0000
  C   C3        1.0  0.46899  0.08939  0.28972  1.0000
  H   H5        1.0  0.38957  0.07183  0.34776  1.0000
  N   N1        1.0  0.42915  0.07227  0.33416  1.0000
  H   H6        1.0  0.48306  0.17736  0.45815  1.0000
  H   H7        1.0  0.48716  0.10726  0.27465  1.0000
  C   C4        1.0  0.45151  0.09456  0.31416  1.0000
  H   H8        1.0  0.45636  0.11661  0.31739  1.0000
  H   H9        1.0  0.43592  0.01660  0.30347  1.0000
  C   C5        1.0  0.41073  0.07779  0.35948  1.0000
  C   C6        1.0  0.43137  0.00285  0.40052  1.0000
  C   C7        1.0  0.42317  0.04455  0.32988  1.0000
  C   C8        1.0  0.49146  0.19046  0.48102  1.0000
  H   H10       1.0  0.40559  0.02688  0.34597  1.0000
  C   C9        1.0  0.48111  0.20940  0.49072  1.0000
  H   H11       1.0  0.40680  0.06496  0.38548  1.0000
  C   C10       1.0  0.45086  0.00097  0.37578  1.0000
  H   H12       1.0  0.49774  0.29088  0.46819  1.0000
  S   S3        1.0  0.46575  0.28543  0.61958  1.0000
  S   S4        1.0  0.47776  0.24979  0.53176  1.0000
  H   H13       1.0  0.49295  0.20923  0.80425  1.0000
  Fe  Fe2       1.0  0.49441  0.28202  0.57563  1.0000
  H   H14       1.0  0.49418  0.23694  0.77331  1.0000
  C   C11       1.0  0.49144  0.22625  0.52073  1.0000
  S   S5        1.0  0.50113  0.27868  0.71085  1.0000
  Fe  Fe3       1.0  0.17823  0.46215  0.36689  1.0000
  S   S6        1.0  0.16048  0.42032  0.40103  1.0000
  S   S7        1.0  0.20495  0.47275  0.31369  1.0000
  Fe  Fe4       1.0  0.15325  0.48751  0.41865  1.0000
  S   S8        1.0  0.13406  0.44873  0.45718  1.0000
  S   S9        1.0  0.15174  0.52852  0.42472  1.0000
  Fe  Fe5       1.0  0.17644  0.44865  0.44806  1.0000
  H   H15       1.0  0.42038  0.54846  0.33045  1.0000
  Fe  Fe6       1.0  0.11925  0.42352  0.40769  1.0000
  S   S10       1.0  0.07356  0.38455  0.41197  1.0000
  S   S11       1.0  0.19674  0.48988  0.41345  1.0000
  S   S12       1.0  0.13575  0.46267  0.36960  1.0000
  S   S13       1.0  0.45949  0.58043  0.43498  1.0000
  Fe  Fe7       1.0  0.32220  0.62214  0.21598  1.0000
  S   S14       1.0  0.34052  0.60139  0.17975  1.0000
  S   S15       1.0  0.28511  0.60307  0.25897  1.0000
  C   C12       1.0  0.45799  0.62228  0.25823  1.0000
  C   C13       1.0  0.44910  0.66465  0.09889  1.0000
  H   H16       1.0  0.45142  0.60015  0.25305  1.0000
  C   C14       1.0  0.47792  0.57764  0.50286  1.0000
  C   C15       1.0  0.45541  0.56568  0.47919  1.0000
  C   C16       1.0  0.42808  0.56390  0.35213  1.0000
  C   C17       1.0  0.14571  0.53415  0.46972  1.0000
  H   H17       1.0  0.45151  0.57090  0.35471  1.0000
  C   C18       1.0  0.23083  0.50894  0.30121  1.0000
  C   C19       1.0  0.23383  0.53131  0.32238  1.0000
  C   C20       1.0  0.25191  0.56009  0.30989  1.0000
  C   C21       1.0  0.26743  0.56686  0.27631  1.0000
  C   C22       1.0  0.26563  0.54455  0.25584  1.0000
  C   C23       1.0  0.24720  0.51568  0.26816  1.0000
  H   H18       1.0  0.22134  0.52652  0.34774  1.0000
  H   H19       1.0  0.25315  0.57719  0.32589  1.0000
  H   H20       1.0  0.27744  0.54949  0.22986  1.0000
  H   H21       1.0  0.24508  0.49849  0.25167  1.0000
  H   H22       1.0  0.23608  0.58789  0.21474  1.0000
  H   H23       1.0  0.20312  0.56420  0.19350  1.0000
  H   H24       1.0  0.18997  0.57929  0.32777  1.0000
  C   C24       1.0  0.03834  0.40433  0.38113  1.0000
  C   C25       1.0  0.04002  0.38167  0.39924  1.0000
  C   C26       1.0  0.01414  0.35600  0.40867  1.0000
  H   H25       1.0  0.05804  0.42410  0.37339  1.0000
  H   H26       1.0  0.41631  0.55276  0.37823  1.0000
  H   H27       1.0  0.38331  0.60815  0.05128  1.0000
  C   C27       1.0  0.44084  0.61417  0.35905  1.0000
  C   C28       1.0  0.40200  0.58592  0.32242  1.0000
  C   C29       1.0  0.43702  0.63806  0.35180  1.0000
  H   H28       1.0  0.49805  0.59656  0.49425  1.0000
  C   C30       1.0  0.41525  0.63559  0.32937  1.0000
  H   H29       1.0  0.45803  0.61635  0.37615  1.0000
  H   H30       1.0  0.22561  0.55239  0.46694  1.0000
  C   C31       1.0  0.39749  0.60935  0.31469  1.0000
  N   N2        1.0  0.42374  0.58867  0.34396  1.0000
  H   H31       1.0  0.06274  0.41265  0.47299  1.0000
  C   C32       1.0  0.42915  0.54149  0.49079  1.0000
  H   H32       1.0  0.38097  0.60738  0.29644  1.0000
  C   C33       1.0  0.17008  0.51540  0.29081  1.0000
  H   H33       1.0  0.49184  0.62655  0.29312  1.0000
  H   H34       1.0  0.41265  0.65417  0.32255  1.0000
  H   H35       1.0  0.45161  0.65856  0.36250  1.0000
  H   H36       1.0  0.38837  0.56574  0.31044  1.0000
  C   C34       1.0  0.27314  0.44564  0.47817  1.0000
  H   H37       1.0  0.23816  0.44378  0.44718  1.0000
  C   C35       1.0  0.05665  0.42969  0.46750  1.0000
  C   C36       1.0  0.38843  0.58912  0.11645  1.0000
  C   C37       1.0  0.45222  0.66444  0.24910  1.0000
  H   H38       1.0  0.22856  0.55224  0.20676  1.0000
  S   S16       1.0  0.33760  0.61858  0.07990  1.0000
  H   H39       1.0  0.16675  0.58018  0.46034  1.0000
  C   C38       1.0  0.44346  0.63577  0.24244  1.0000
  C   C39       1.0  0.18832  0.56419  0.30790  1.0000
  H   H40       1.0  0.39360  0.57292  0.10544  1.0000
  H   H41       1.0  0.39067  0.58917  0.14620  1.0000
  S   S17       1.0  0.19579  0.44367  0.50035  1.0000
  C   C40       1.0  0.01107  0.40132  0.37283  1.0000
  H   H42       1.0  0.43612  0.63202  0.14195  1.0000
  H   H43       1.0  0.15790  0.49239  0.29728  1.0000
  H   H44       1.0  0.14256  0.65197  0.47793  1.0000
  S   S18       1.0  0.36517  0.65113  0.23837  1.0000
  C   C41       1.0  0.18579  0.52593  0.25756  1.0000
  C   C42       1.0  0.21820  0.56532  0.21439  1.0000
  H   H45       1.0  0.16002  0.52682  0.34250  1.0000
  H   H46       1.0  0.18531  0.51072  0.23857  1.0000
  H   H47       1.0  0.21743  0.59695  0.26844  1.0000
  C   C43       1.0  0.43126  0.63720  0.11535  1.0000
  H   H48       1.0  0.41166  0.53222  0.47259  1.0000
  N   N3        1.0  0.40756  0.61752  0.09862  1.0000
  C   C44       1.0  0.40189  0.62390  0.06474  1.0000
  C   C45       1.0  0.00670  0.38990  0.47835  1.0000
  N   N4        1.0  0.02514  0.41765  0.46579  1.0000
  C   C46       1.0  0.01436  0.43462  0.45222  1.0000
  S   S19       1.0  0.41418  0.61595  0.21508  1.0000
  C   C47       1.0  0.15569  0.56224  0.48011  1.0000
  C   C48       1.0  0.34510  0.63308  0.03399  1.0000
  C   C49       1.0  0.41913  0.65116  0.04757  1.0000
  Fe  Fe8       1.0  0.34797  0.63607  0.13677  1.0000
  C   C50       1.0  0.20372  0.57401  0.27430  1.0000
  C   C51       1.0  0.21698  0.54413  0.49436  1.0000
  Fe  Fe9       1.0  0.38395  0.63302  0.19903  1.0000
  H   H49       1.0  0.36530  0.58265  0.11213  1.0000
  C   C52       1.0  0.17144  0.53469  0.31616  1.0000
  C   C53       1.0  0.23029  0.44591  0.50397  1.0000
  H   H50       1.0  0.12338  0.48936  0.48754  1.0000
  N   N5        1.0  0.20245  0.55489  0.24977  1.0000
  H   H51       1.0  0.06490  0.44522  0.48903  1.0000
  H   H52       1.0  0.28523  0.44454  0.45474  1.0000
  H   H53       1.0  0.06788  0.44078  0.44115  1.0000
  C   C54       1.0  0.24647  0.44522  0.47380  1.0000
  C   C55       1.0  0.13168  0.51107  0.49547  1.0000
  H   H54       1.0  0.02900  0.45653  0.44204  1.0000
  C   C56       1.0  0.20976  0.51605  0.50547  1.0000
  C   C57       1.0  0.48083  0.63715  0.28104  1.0000
  C   C58       1.0  0.35829  0.66262  0.02475  1.0000
  S   S20       1.0  0.32581  0.65448  0.17209  1.0000
  H   H55       1.0  0.01521  0.37621  0.48839  1.0000
  H   H56       1.0  0.01004  0.41896  0.35877  1.0000
  H   H57       1.0  0.32763  0.59117  0.01248  1.0000
  H   H58       1.0  0.21355  0.50264  0.48721  1.0000
  H   H59       1.0  0.01519  0.33826  0.42247  1.0000
  H   H60       1.0  0.30619  0.38911  0.49665  1.0000
  H   H61       1.0  0.41373  0.65639  0.02130  1.0000
  H   H62       1.0  0.16155  0.58909  0.52428  1.0000
  N   N6        1.0  0.46584  0.42970  0.65455  1.0000
  C   C59       1.0  0.33104  0.37683  0.53070  1.0000
  C   C60       1.0  0.49040  0.45926  0.60064  1.0000
  C   C61       1.0  0.23475  0.65484  0.69972  1.0000
  Fe  Fe10      1.0  0.36349  0.42621  0.62574  1.0000
  S   S21       1.0  0.38330  0.46645  0.65656  1.0000
  S   S22       1.0  0.36846  0.38749  0.64454  1.0000
  Fe  Fe11      1.0  0.33942  0.45213  0.56975  1.0000
  S   S23       1.0  0.35876  0.49462  0.59487  1.0000
  C   C62       1.0  0.46211  0.40733  0.68183  1.0000
  Fe  Fe12      1.0  0.39774  0.48894  0.60160  1.0000
  S   S24       1.0  0.44326  0.52527  0.59327  1.0000
  Fe  Fe13      1.0  0.34264  0.46891  0.64785  1.0000
  S   S25       1.0  0.31930  0.48382  0.68669  1.0000
  S   S26       1.0  0.38057  0.44887  0.57117  1.0000
  S   S27       1.0  0.32058  0.42609  0.62231  1.0000
  Fe  Fe14      1.0  0.36850  0.62012  0.79605  1.0000
  C   C63       1.0  0.35559  0.59397  0.67690  1.0000
  S   S28       1.0  0.38808  0.59204  0.78045  1.0000
  H   H63       1.0  0.39894  0.53665  0.64949  1.0000
  Fe  Fe15      1.0  0.18323  0.65612  0.55331  1.0000
  Fe  Fe16      1.0  0.31693  0.63041  0.79156  1.0000
  S   S29       1.0  0.27133  0.60875  0.77132  1.0000
  S   S30       1.0  0.32995  0.60826  0.83465  1.0000
  C   C64       1.0  0.45368  0.46550  0.63305  1.0000
  Fe  Fe17      1.0  0.12797  0.63930  0.60152  1.0000
  S   S31       1.0  0.13875  0.61391  0.64234  1.0000
  C   C65       1.0  0.20070  0.54994  0.55343  1.0000
  C   C66       1.0  0.12791  0.51606  0.53159  1.0000
  Fe  Fe18      1.0  0.15053  0.59726  0.59346  1.0000
  S   S32       1.0  0.13535  0.55043  0.58766  1.0000
  H   H64       1.0  0.06233  0.55871  0.58588  1.0000
  C   C67       1.0  0.17918  0.51004  0.59976  1.0000
  S   S33       1.0  0.13729  0.62044  0.55339  1.0000
  C   C68       1.0  0.25843  0.62704  0.74273  1.0000
  C   C69       1.0  0.23276  0.61100  0.72490  1.0000
  C   C70       1.0  0.22113  0.62480  0.70316  1.0000
  H   H65       1.0  0.42326  0.33430  0.64490  1.0000
  H   H66       1.0  0.22176  0.58776  0.72795  1.0000
  H   H67       1.0  0.20128  0.61220  0.68973  1.0000
  H   H68       1.0  0.24441  0.56727  0.83526  1.0000
  H   H69       1.0  0.47677  0.49016  0.58423  1.0000
  N   N7        1.0  0.01818  0.52851  0.60151  1.0000
  C   C71       1.0  0.44797  0.54087  0.54945  1.0000
  C   C72       1.0  0.19732  0.50515  0.54025  1.0000
  H   H70       1.0  0.27639  0.44969  0.56936  1.0000
  H   H71       1.0  0.26367  0.58218  0.90385  1.0000
  H   H72       1.0  0.40512  0.51028  0.53443  1.0000
  C   C73       1.0  0.44976  0.44347  0.65817  1.0000
  C   C74       1.0  0.33829  0.51271  0.71462  1.0000
  C   C75       1.0  0.36756  0.52277  0.72103  1.0000
  C   C76       1.0  0.38234  0.54661  0.74210  1.0000
  C   C77       1.0  0.36810  0.56079  0.75660  1.0000
  C   C78       1.0  0.33871  0.55046  0.75066  1.0000
  C   C79       1.0  0.32383  0.52637  0.73000  1.0000
  H   H73       1.0  0.37872  0.51201  0.71004  1.0000
  H   H74       1.0  0.40498  0.55429  0.74693  1.0000
  H   H75       1.0  0.32748  0.56111  0.76185  1.0000
  H   H76       1.0  0.30112  0.51856  0.72542  1.0000
  C   C80       1.0  0.13829  0.54419  0.54205  1.0000
  H   H77       1.0  0.43337  0.43708  0.68016  1.0000
  H   H78       1.0  0.06595  0.60211  0.65813  1.0000
  H   H79       1.0  0.35121  0.36349  0.57135  1.0000
  H   H80       1.0  0.16290  0.48687  0.59930  1.0000
  H   H81       1.0  0.11717  0.49815  0.55145  1.0000
  H   H82       1.0  0.39360  0.62375  0.70330  1.0000
  C   C81       1.0  0.47422  0.56518  0.53801  1.0000
  C   C82       1.0  0.24135  0.44765  0.53839  1.0000
  H   H83       1.0  0.43069  0.57135  0.64484  1.0000
  H   H84       1.0  0.43898  0.39450  0.69181  1.0000
  C   C83       1.0  0.26824  0.44854  0.54270  1.0000
  H   H85       1.0  0.34191  0.60216  0.68796  1.0000
  H   H86       1.0  0.05071  0.57301  0.52717  1.0000
  S   S34       1.0  0.47093  0.36475  0.58908  1.0000
  C   C84       1.0  0.02708  0.60812  0.59009  1.0000
  C   C85       1.0  0.05148  0.61358  0.60973  1.0000
  C   C86       1.0  0.04747  0.59774  0.64237  1.0000
  H   H87       1.0  0.02986  0.62050  0.56506  1.0000
  H   H88       1.0  0.49162  0.57441  0.55631  1.0000
  C   C87       1.0  0.43978  0.36770  0.60222  1.0000
  C   C88       1.0  0.43571  0.38927  0.58460  1.0000
  C   C89       1.0  0.41370  0.39522  0.59681  1.0000
  C   C90       1.0  0.39517  0.37938  0.62663  1.0000
  C   C91       1.0  0.39830  0.35687  0.64322  1.0000
  C   C92       1.0  0.42055  0.35110  0.63120  1.0000
  H   H89       1.0  0.45026  0.40204  0.56192  1.0000
  H   H90       1.0  0.41144  0.41240  0.58351  1.0000
  H   H91       1.0  0.19143  0.48310  0.54837  1.0000
  C   C93       1.0  0.40770  0.55896  0.63767  1.0000
  H   H92       1.0  0.01634  0.56568  0.68141  1.0000
  C   C94       1.0  0.03350  0.55654  0.54494  1.0000
  H   H93       1.0  0.26818  0.35484  0.60230  1.0000
  C   C95       1.0  0.23200  0.57709  0.84755  1.0000
  H   H94       1.0  0.04564  0.53769  0.64592  1.0000
  C   C96       1.0  0.34321  0.62427  0.96909  1.0000
  H   H95       1.0  0.44095  0.47639  0.63582  1.0000
  H   H96       1.0  0.22896  0.44811  0.56190  1.0000
  H   H97       1.0  0.35186  0.54017  0.62744  1.0000
  H   H98       1.0  0.42381  0.60349  0.68011  1.0000
  H   H99       1.0  0.40757  0.55837  0.60773  1.0000
  N   N8        1.0  0.25210  0.60391  0.86353  1.0000
  H   H100      1.0  0.46833  0.39193  0.67031  1.0000
  C   C97       1.0  0.48621  0.43754  0.62649  1.0000
  S   S35       1.0  0.08634  0.64137  0.59371  1.0000
  H   H101      1.0  0.00776  0.51576  0.65747  1.0000
  H   H102      1.0  0.47566  0.41728  0.70494  1.0000
  H   H103      1.0  0.19623  0.51259  0.61842  1.0000
  C   C98       1.0  0.36147  0.55921  0.64286  1.0000
  S   S36       1.0  0.35350  0.63893  0.75204  1.0000
  H   H104      1.0  0.23901  0.35456  0.54363  1.0000
  C   C99       1.0  0.40161  0.59451  0.67220  1.0000
  H   H105      1.0  0.33735  0.60927  0.94796  1.0000
  N   N9        1.0  0.19236  0.52189  0.56344  1.0000
  N   N10       1.0  0.38999  0.57142  0.65102  1.0000
  H   H106      1.0  0.19699  0.56332  0.57192  1.0000
  H   H107      1.0  0.21579  0.56173  0.86839  1.0000
  S   S37       1.0  0.31658  0.44535  0.51710  1.0000
  C   C100      1.0  0.26680  0.60269  0.89273  1.0000
  C   C101      1.0  0.01929  0.57716  0.65557  1.0000
  C   C102      1.0  0.29136  0.65443  0.89356  1.0000
  S   S38       1.0  0.39653  0.66284  0.81986  1.0000
  H   H108      1.0  0.16742  0.52106  0.61044  1.0000
  Fe  Fe19      1.0  0.18512  0.65012  0.63459  1.0000
  C   C103      1.0  0.38463  0.60618  0.68533  1.0000
  H   H109      1.0  0.22012  0.58087  0.82556  1.0000
  S   S39       1.0  0.19738  0.63086  0.58902  1.0000
  C   C104      1.0  0.28413  0.44724  0.51260  1.0000
  C   C105      1.0  0.34386  0.57030  0.65559  1.0000
  H   H110      1.0  0.32101  0.55987  0.65013  1.0000
  Fe  Fe20      1.0  0.35679  0.65232  0.85587  1.0000
  C   C106      1.0  0.33775  0.61406  0.00583  1.0000
  H   H111      1.0  0.26114  0.38486  0.51267  1.0000
  C   C107      1.0  0.02514  0.52012  0.63638  1.0000
  H   H112      1.0  0.24577  0.63100  0.82504  1.0000
  C   C108      1.0  0.35584  0.65379  0.95983  1.0000
  C   C109      1.0  0.27238  0.65708  0.73873  1.0000
  C   C110      1.0  0.28644  0.62787  0.90832  1.0000
  H   H113      1.0  0.31067  0.34908  0.61725  1.0000
  C   C111      1.0  0.27638  0.65552  0.86368  1.0000
  C   C112      1.0  0.25671  0.62990  0.84890  1.0000
  C   C113      1.0  0.30671  0.37967  0.52290  1.0000
  C   C114      1.0  0.42543  0.52908  0.52586  1.0000
  C   C115      1.0  0.03993  0.54843  0.57830  1.0000
  H   H114      1.0  0.25791  0.39065  0.55933  1.0000
  N   N11       1.0  0.28445  0.37175  0.54843  1.0000
  C   C116      1.0  0.30946  0.35728  0.59045  1.0000
  C   C117      1.0  0.33232  0.36549  0.56469  1.0000
  C   C118      1.0  0.47399  0.47332  0.60404  1.0000
  H   H115      1.0  0.02740  0.50058  0.63391  1.0000
  H   H116      1.0  0.38386  0.34424  0.66606  1.0000
  H   H117      1.0  0.29829  0.62691  0.93125  1.0000
  C   C119      1.0  0.15236  0.56727  0.51630  1.0000
  C   C120      1.0  0.28556  0.36063  0.58184  1.0000
  C   C121      1.0  0.25934  0.37551  0.54059  1.0000
  C   C122      1.0  0.21278  0.56137  0.51860  1.0000
  H   H118      1.0  0.34898  0.38388  0.51074  1.0000
  H   H119      1.0  0.49860  0.42627  0.62324  1.0000
  C   C123      1.0  0.00470  0.54383  0.53522  1.0000
  Fe  Fe21      1.0  0.48737  0.33294  0.60351  1.0000
  H   H120      1.0  0.21804  0.58317  0.51018  1.0000
  H   H121      1.0  0.38052  0.93127  0.40965  1.0000
  Fe  Fe22      1.0  0.37010  0.68219  0.19270  1.0000
  H   H122      1.0  0.30084  0.72274  0.50541  1.0000
  S   S40       1.0  0.39106  0.72904  0.20617  1.0000
  H   H123      1.0  0.36875  0.69392  0.28903  1.0000
  C   C124      1.0  0.25058  0.72289  0.46074  1.0000
  H   H124      1.0  0.45602  0.69309  0.05216  1.0000
  H   H125      1.0  0.39078  0.97867  0.43179  1.0000
  H   H126      1.0  0.48367  0.89239  0.39069  1.0000
  H   H127      1.0  0.43697  0.92019  0.42462  1.0000
  Fe  Fe23      1.0  0.38184  0.86883  0.37552  1.0000
  S   S41       1.0  0.39468  0.83840  0.34996  1.0000
  S   S42       1.0  0.41230  0.91582  0.35615  1.0000
  Fe  Fe24      1.0  0.33569  0.82011  0.42643  1.0000
  S   S43       1.0  0.34590  0.78697  0.40553  1.0000
  C   C125      1.0  0.27651  0.77130  0.48139  1.0000
  Fe  Fe25      1.0  0.39213  0.82097  0.40645  1.0000
  S   S44       1.0  0.42627  0.80974  0.42196  1.0000
  Fe  Fe26      1.0  0.34730  0.80673  0.35047  1.0000
  S   S45       1.0  0.32439  0.77388  0.30894  1.0000
  S   S46       1.0  0.38254  0.85302  0.43226  1.0000
  S   S47       1.0  0.33379  0.83825  0.37114  1.0000
  C   C126      1.0  0.40607  0.97748  0.41273  1.0000
  H   H128      1.0  0.43000  0.77162  0.33334  1.0000
  H   H129      1.0  0.28388  0.75939  0.42887  1.0000
  C   C127      1.0  0.37185  0.74208  0.23258  1.0000
  C   C128      1.0  0.34186  0.72581  0.24006  1.0000
  C   C129      1.0  0.32750  0.73623  0.26267  1.0000
  C   C130      1.0  0.34308  0.76256  0.27882  1.0000
  C   C131      1.0  0.37305  0.77887  0.27123  1.0000
  C   C132      1.0  0.38728  0.76884  0.24780  1.0000
  H   H130      1.0  0.32970  0.70525  0.22837  1.0000
  H   H131      1.0  0.30428  0.72359  0.26820  1.0000
  H   H132      1.0  0.38521  0.79933  0.28312  1.0000
  H   H133      1.0  0.41042  0.78173  0.24183  1.0000
  H   H134      1.0  0.39056  0.77284  0.36947  1.0000
  H   H135      1.0  0.19157  0.72734  0.46185  1.0000
  H   H136      1.0  0.40030  0.82401  0.48230  1.0000
  C   C133      1.0  0.44899  0.91563  0.44462  1.0000
  C   C134      1.0  0.46279  0.82018  0.47646  1.0000
  C   C135      1.0  0.46284  0.89146  0.39920  1.0000
  S   S48       1.0  0.30355  0.80770  0.47474  1.0000
  C   C136      1.0  0.14810  0.67299  0.46393  1.0000
  C   C137      1.0  0.37390  0.71060  0.30784  1.0000
  C   C138      1.0  0.47547  0.67950  0.27132  1.0000
  C   C139      1.0  0.40796  0.75415  0.33214  1.0000
  H   H137      1.0  0.41797  0.71286  0.27223  1.0000
  H   H138      1.0  0.24691  0.70812  0.43970  1.0000
  H   H139      1.0  0.47539  0.81465  0.45800  1.0000
  C   C140      1.0  0.35118  0.71068  0.32825  1.0000
  C   C141      1.0  0.41926  0.94880  0.37466  1.0000
  C   C142      1.0  0.40019  0.95054  0.40024  1.0000
  H   H140      1.0  0.45963  0.97306  0.34300  1.0000
  H   H141      1.0  0.48886  0.88239  0.45477  1.0000
  N   N12       1.0  0.40186  0.73219  0.30993  1.0000
  H   H142      1.0  0.33958  0.73427  0.36514  1.0000
  C   C143      1.0  0.38574  0.75495  0.35278  1.0000
  C   C144      1.0  0.43693  0.81875  0.46593  1.0000
  N   N13       1.0  0.15333  0.69451  0.49044  1.0000
  C   C145      1.0  0.35717  0.73315  0.35062  1.0000
  C   C146      1.0  0.44466  0.97415  0.36267  1.0000
  C   C147      1.0  0.42538  0.73282  0.28703  1.0000
  H   H143      1.0  0.36413  0.67762  0.04590  1.0000
  C   C148      1.0  0.27167  0.75193  0.45460  1.0000
  H   H144      1.0  0.44130  0.67509  0.23688  1.0000
  H   H145      1.0  0.13013  0.67043  0.44694  1.0000
  H   H146      1.0  0.33297  0.77276  0.49928  1.0000
  C   C149      1.0  0.17644  0.72169  0.48514  1.0000
  C   C150      1.0  0.47812  0.89476  0.46138  1.0000
  C   C151      1.0  0.23430  0.71288  0.49378  1.0000
  H   H147      1.0  0.32891  0.69424  0.32525  1.0000
  C   C152      1.0  0.44881  0.92429  0.47974  1.0000
  H   H148      1.0  0.43329  0.75097  0.26621  1.0000
  N   N14       1.0  0.46375  0.90131  0.43576  1.0000
  H   H149      1.0  0.44366  0.73545  0.30351  1.0000
  H   H150      1.0  0.43692  0.93553  0.48655  1.0000
  H   H151      1.0  0.48239  0.70177  0.27609  1.0000
  C   C153      1.0  0.47870  0.90339  0.49667  1.0000
  H   H152      1.0  0.44517  0.86893  0.39848  1.0000
  C   C154      1.0  0.42064  0.82576  0.48996  1.0000
  H   H153      1.0  0.45882  0.90497  0.37901  1.0000
  H   H154      1.0  0.16787  0.67909  0.44620  1.0000
  H   H155      1.0  0.49949  0.71663  0.48683  1.0000
  S   S49       1.0  0.20808  0.67621  0.49990  1.0000
  C   C155      1.0  0.49748  0.69846  0.50476  1.0000
  H   H156      1.0  0.46736  0.68045  0.11276  1.0000
  S   S50       1.0  0.39276  0.66635  0.15436  1.0000
  C   C156      1.0  0.48970  0.66586  0.28764  1.0000
  C   C157      1.0  0.44276  0.67171  0.06493  1.0000
  C   C158      1.0  0.46379  0.91809  0.50590  1.0000
  H   H157      1.0  0.43832  0.75018  0.80138  1.0000
  S   S51       1.0  0.47122  0.85154  0.57535  1.0000
  H   H158      1.0  0.25220  0.68384  0.60582  1.0000
  C   C159      1.0  0.50285  0.72799  0.55612  1.0000
  H   H159      1.0  0.49327  0.83122  0.51796  1.0000
  S   S52       1.0  0.40022  0.72209  0.74316  1.0000
  C   C160      1.0  0.44778  0.79530  0.76022  1.0000
  H   H160      1.0  0.47438  0.75561  0.79726  1.0000
  C   C161      1.0  0.13438  0.68745  0.51989  1.0000
  C   C162      1.0  0.23898  0.73221  0.52065  1.0000
  H   H161      1.0  0.16637  0.75086  0.56065  1.0000
  H   H162      1.0  0.49099  0.73699  0.54217  1.0000
  S   S53       1.0  0.17334  0.67753  0.59810  1.0000
  H   H163      1.0  0.22650  0.72471  0.54622  1.0000
  H   H164      1.0  0.27107  0.69414  0.71514  1.0000
  C   C163      1.0  0.46158  0.76699  0.80082  1.0000
  H   H165      1.0  0.37316  0.69568  0.98135  1.0000
  C   C164      1.0  0.28491  0.72828  0.60618  1.0000
  N   N15       1.0  0.46860  0.78881  0.77125  1.0000
  C   C165      1.0  0.45421  0.81629  0.73230  1.0000
  H   H166      1.0  0.33382  0.79477  0.53461  1.0000
  H   H167      1.0  0.28022  0.72987  0.63450  1.0000
  N   N16       1.0  0.31205  0.74992  0.54977  1.0000
  C   C166      1.0  0.45708  0.83728  0.53423  1.0000
  H   H168      1.0  0.43741  0.82070  0.72283  1.0000
  H   H169      1.0  0.26357  0.77630  0.53519  1.0000
  C   C167      1.0  0.26910  0.70229  0.59007  1.0000
  H   H170      1.0  0.41847  0.84108  0.54245  1.0000
  H   H171      1.0  0.31873  0.77222  0.59820  1.0000
  C   C168      1.0  0.33510  0.77502  0.52891  1.0000
  H   H172      1.0  0.29212  0.66969  0.75237  1.0000
  C   C169      1.0  0.46970  0.76980  0.67424  1.0000
  C   C170      1.0  0.44150  0.75580  0.69060  1.0000
  C   C171      1.0  0.43379  0.73453  0.71866  1.0000
  C   C172      1.0  0.45417  0.72637  0.72918  1.0000
  C   C173      1.0  0.48259  0.74069  0.71311  1.0000
  H   H173      1.0  0.47557  0.78683  0.65351  1.0000
  H   H174      1.0  0.42584  0.76219  0.68230  1.0000
  H   H175      1.0  0.44843  0.71001  0.75081  1.0000
  C   C174      1.0  0.30652  0.75203  0.58553  1.0000
  Fe  Fe27      1.0  0.37827  0.68056  0.77842  1.0000
  C   C175      1.0  0.36343  0.67282  0.98800  1.0000
  C   C176      1.0  0.43075  0.83511  0.52412  1.0000
  C   C177      1.0  0.13871  0.70762  0.54547  1.0000
  C   C178      1.0  0.49058  0.76287  0.68615  1.0000
  H   H176      1.0  0.48727  0.84666  0.69364  1.0000
  C   C179      1.0  0.49619  0.80327  0.75567  1.0000
  H   H177      1.0  0.46608  0.77719  0.82712  1.0000
  H   H178      1.0  0.42576  0.78345  0.77210  1.0000
  H   H179      1.0  0.47437  0.68155  0.50803  1.0000
  C   C180      1.0  0.25994  0.76140  0.51435  1.0000
  H   H180      1.0  0.35676  0.77806  0.53571  1.0000
  H   H181      1.0  0.30731  0.67411  0.90483  1.0000
  H   H182      1.0  0.12380  0.70167  0.56910  1.0000
  C   C181      1.0  0.48218  0.83084  0.71593  1.0000
  C   C182      1.0  0.27500  0.70024  0.55370  1.0000
  H   H183      1.0  0.46359  0.92431  0.53341  1.0000
  C   C183      1.0  0.16255  0.73518  0.54070  1.0000
  C   C184      1.0  0.26043  0.67090  0.71757  1.0000
  C   C185      1.0  0.18152  0.74236  0.51027  1.0000
  H   H184      1.0  0.28053  0.67608  0.85143  1.0000
  C   C186      1.0  0.29680  0.72438  0.53386  1.0000
  S   S54       1.0  0.34044  0.67338  0.81543  1.0000
  H   H185      1.0  0.26224  0.68030  0.54070  1.0000
  H   H186      1.0  0.49000  0.89804  0.51700  1.0000
  S   S55       1.0  0.36167  0.66808  0.91390  1.0000
  C   C187      1.0  0.47291  0.82954  0.51050  1.0000
  S   S56       1.0  0.21994  0.67307  0.67435  1.0000
  H   H187      1.0  0.49862  0.73515  0.72236  1.0000
  H   H188      1.0  0.20034  0.76364  0.50637  1.0000
  H   H189      1.0  0.11589  0.66599  0.52399  1.0000
  S   S57       1.0  0.55047  0.15266  0.39830  1.0000
  S   S58       1.0  0.51864  0.16330  0.31044  1.0000
  S   S59       1.0  0.58035  0.09705  0.40339  1.0000
  Fe  Fe28      1.0  0.86680  0.27750  0.42882  1.0000
  S   S60       1.0  0.86488  0.23606  0.44792  1.0000
  S   S61       1.0  0.88077  0.29414  0.37103  1.0000
  Fe  Fe29      1.0  0.66342  0.27435  0.20674  1.0000
  S   S62       1.0  0.64200  0.22713  0.22475  1.0000
  H   H190      1.0  0.54484  0.21300  0.26030  1.0000
  S   S63       1.0  0.70130  0.29484  0.16551  1.0000
  S   S64       1.0  0.64040  0.29687  0.18432  1.0000
  H   H191      1.0  0.63391  0.28716  0.29458  1.0000
  C   C188      1.0  0.72492  0.15826  0.47078  1.0000
  H   H192      1.0  0.76242  0.23759  0.39008  1.0000
  H   H193      1.0  0.61104  0.27045  0.05634  1.0000
  Fe  Fe30      1.0  0.85748  0.32684  0.44729  1.0000
  H   H194      1.0  0.76232  0.26536  0.28406  1.0000
  S   S65       1.0  0.82755  0.28299  0.42934  1.0000
  C   C189      1.0  0.76250  0.30321  0.26080  1.0000
  C   C190      1.0  0.67842  0.31934  0.04137  1.0000
  H   H195      1.0  0.85188  0.30986  0.21152  1.0000
  C   C191      1.0  0.60743  0.11939  0.43129  1.0000
  Fe  Fe31      1.0  0.54422  0.10793  0.40177  1.0000
  H   H196      1.0  0.87713  0.30367  0.28011  1.0000
  C   C192      1.0  0.55291  0.18092  0.28657  1.0000
  C   C193      1.0  0.57307  0.17121  0.29067  1.0000
  C   C194      1.0  0.60016  0.18543  0.27129  1.0000
  C   C195      1.0  0.60772  0.21001  0.24861  1.0000
  C   C196      1.0  0.58780  0.22011  0.24504  1.0000
  C   C197      1.0  0.56030  0.20532  0.26352  1.0000
  H   H197      1.0  0.56762  0.15241  0.30831  1.0000
  H   H198      1.0  0.61540  0.17741  0.27411  1.0000
  H   H199      1.0  0.59334  0.23901  0.22762  1.0000
  H   H200      1.0  0.81001  0.19135  0.40032  1.0000
  N   N17       1.0  0.63961  0.22795  0.11307  1.0000
  C   C198      1.0  0.64708  0.23383  0.07683  1.0000
  C   C199      1.0  0.62208  0.23704  0.12932  1.0000
  C   C200      1.0  0.63626  0.24848  0.05573  1.0000
  C   C201      1.0  0.61123  0.25213  0.10911  1.0000
  C   C202      1.0  0.61837  0.25780  0.07209  1.0000
  H   H201      1.0  0.73317  0.14601  0.48710  1.0000
  C   C203      1.0  0.66473  0.32416  0.01187  1.0000
  H   H202      1.0  0.61674  0.23301  0.15821  1.0000
  H   H203      1.0  0.81208  0.23190  0.48416  1.0000
  H   H204      1.0  0.65890  0.20070  0.11859  1.0000
  C   C204      1.0  0.51956  0.30884  0.46938  1.0000
  H   H205      1.0  0.53470  0.28422  0.50013  1.0000
  C   C205      1.0  0.64034  0.12445  0.47826  1.0000
  C   C206      1.0  0.63172  0.16394  0.46161  1.0000
  N   N18       1.0  0.74688  0.17825  0.44350  1.0000
  C   C207      1.0  0.74383  0.20035  0.42811  1.0000
  C   C208      1.0  0.76981  0.17438  0.43293  1.0000
  C   C209      1.0  0.64491  0.15218  0.48355  1.0000
  H   H206      1.0  0.58944  0.29132  0.29915  1.0000
  H   H207      1.0  0.63802  0.22285  0.32805  1.0000
  S   S66       1.0  0.80962  0.28450  0.33057  1.0000
  H   H208      1.0  0.65797  0.25885  0.34370  1.0000
  H   H209      1.0  0.71869  0.17013  0.49004  1.0000
  H   H210      1.0  0.66175  0.22752  0.06404  1.0000
  S   S67       1.0  0.51144  0.09313  0.44851  1.0000
  C   C210      1.0  0.76451  0.21976  0.40201  1.0000
  H   H211      1.0  0.60217  0.15642  0.41958  1.0000
  C   C211      1.0  0.79108  0.19362  0.40730  1.0000
  H   H212      1.0  0.74495  0.29128  0.24344  1.0000
  H   H213      1.0  0.56305  0.05214  0.49754  1.0000
  N   N19       1.0  0.56761  0.32790  0.49077  1.0000
  C   C212      1.0  0.79555  0.30372  0.30599  1.0000
  N   N20       1.0  0.61592  0.24761  0.32668  1.0000
  C   C213      1.0  0.78833  0.21639  0.39176  1.0000
  C   C214      1.0  0.54049  0.30519  0.48765  1.0000
  H   H214      1.0  0.63508  0.19796  0.15588  1.0000
  C   C215      1.0  0.61273  0.14743  0.43582  1.0000
  H   H215      1.0  0.54774  0.21210  0.36538  1.0000
  H   H216      1.0  0.59808  0.26011  0.12221  1.0000
  H   H217      1.0  0.80485  0.23169  0.37215  1.0000
  H   H218      1.0  0.61791  0.08651  0.44826  1.0000
  H   H219      1.0  0.77241  0.15700  0.44530  1.0000
  H   H220      1.0  0.83051  0.29082  0.25256  1.0000
  H   H221      1.0  0.54563  0.25333  0.33456  1.0000
  C   C216      1.0  0.59233  0.22716  0.34703  1.0000
  S   S68       1.0  0.68578  0.30671  0.24747  1.0000
  C   C217      1.0  0.62200  0.10824  0.45169  1.0000
  H   H222      1.0  0.59290  0.20889  0.36011  1.0000
  C   C218      1.0  0.56553  0.25201  0.33282  1.0000
  H   H223      1.0  0.65320  0.25283  0.29606  1.0000
  C   C219      1.0  0.58994  0.27315  0.31284  1.0000
  Fe  Fe32      1.0  0.84302  0.30285  0.37304  1.0000
  C   C220      1.0  0.64262  0.24549  0.32367  1.0000
  C   C221      1.0  0.83896  0.18535  0.48746  1.0000
  C   C222      1.0  0.56675  0.22896  0.35027  1.0000
  C   C223      1.0  0.77236  0.28856  0.28389  1.0000
  C   C224      1.0  0.61514  0.27065  0.31022  1.0000
  S   S69       1.0  0.89601  0.31997  0.45147  1.0000
  C   C225      1.0  0.51217  0.18809  0.50144  1.0000
  C   C226      1.0  0.69772  0.30877  0.03459  1.0000
  Fe  Fe33      1.0  0.67959  0.31974  0.14480  1.0000
  Fe  Fe34      1.0  0.51492  0.13521  0.35986  1.0000
  H   H224      1.0  0.72545  0.20318  0.43628  1.0000
  H   H225      1.0  0.64260  0.25360  0.02710  1.0000
  C   C227      1.0  0.83725  0.21009  0.47790  1.0000
  S   S70       1.0  0.52524  0.16392  0.49124  1.0000
  C   C228      1.0  0.65164  0.21324  0.13516  1.0000
  H   H226      1.0  0.67037  0.22927  0.14948  1.0000
  H   H227      1.0  0.70519  0.14279  0.45754  1.0000
  Fe  Fe35      1.0  0.51494  0.13695  0.44203  1.0000
  H   H228      1.0  0.56018  0.09628  0.48377  1.0000
  H   H229      1.0  0.70849  0.30494  0.05679  1.0000
  H   H230      1.0  0.85709  0.18303  0.47705  1.0000
  H   H231      1.0  0.63540  0.18549  0.46541  1.0000
  H   H232      1.0  0.65032  0.11516  0.49502  1.0000
  C   C229      1.0  0.81364  0.21287  0.49159  1.0000
  S   S71       1.0  0.51139  0.09138  0.35943  1.0000
  S   S72       1.0  0.66955  0.32579  0.08592  1.0000
  H   H233      1.0  0.57126  0.14324  0.49621  1.0000
  Fe  Fe36      1.0  0.72162  0.32955  0.20523  1.0000
  H   H234      1.0  0.59486  0.30918  0.49733  1.0000
  H   H235      1.0  0.82510  0.31819  0.23090  1.0000
  C   C230      1.0  0.84197  0.31208  0.23720  1.0000
  C   C231      1.0  0.88121  0.32572  0.27874  1.0000
  Fe  Fe37      1.0  0.66565  0.33125  0.22240  1.0000
  H   H236      1.0  0.76379  0.22576  0.63453  1.0000
  Fe  Fe38      1.0  0.67858  0.14816  0.55825  1.0000
  S   S73       1.0  0.68445  0.11025  0.54668  1.0000
  H   H237      1.0  0.75663  0.31980  0.89456  1.0000
  Fe  Fe39      1.0  0.69932  0.15235  0.63462  1.0000
  S   S74       1.0  0.70636  0.11393  0.62950  1.0000
  S   S75       1.0  0.71666  0.18206  0.68091  1.0000
  Fe  Fe40      1.0  0.72606  0.13420  0.57421  1.0000
  S   S76       1.0  0.76741  0.13683  0.55185  1.0000
  Fe  Fe41      1.0  0.66373  0.09289  0.60231  1.0000
  S   S77       1.0  0.62441  0.04748  0.60822  1.0000
  S   S78       1.0  0.72199  0.17346  0.58100  1.0000
  S   S79       1.0  0.65511  0.13003  0.61226  1.0000
  Fe  Fe42      1.0  0.63834  0.31212  0.82142  1.0000
  S   S80       1.0  0.70910  0.30676  0.81878  1.0000
  H   H238      1.0  0.78791  0.17503  0.61155  1.0000
  Fe  Fe43      1.0  0.68167  0.30473  0.86857  1.0000
  H   H239      1.0  0.59664  0.08347  0.60024  1.0000
  C   C232      1.0  0.62278  0.01334  0.60516  1.0000
  Fe  Fe44      1.0  0.66670  0.27827  0.79383  1.0000
  S   S81       1.0  0.65001  0.24034  0.75785  1.0000
  S   S82       1.0  0.63976  0.27333  0.84487  1.0000
  C   C233      1.0  0.70309  0.30312  0.99894  1.0000
  C   C234      1.0  0.79371  0.16579  0.52382  1.0000
  H   H240      1.0  0.80256  0.19528  0.65105  1.0000
  H   H241      1.0  0.59653  0.16044  0.53011  1.0000
  H   H242      1.0  0.52062  0.23702  0.56395  1.0000
  C   C235      1.0  0.78752  0.19139  0.62904  1.0000
  H   H243      1.0  0.66881  0.02899  0.60509  1.0000
  C   C236      1.0  0.69825  0.19886  0.70113  1.0000
  C   C237      1.0  0.71239  0.21981  0.72622  1.0000
  C   C238      1.0  0.69821  0.23319  0.74338  1.0000
  C   C239      1.0  0.66958  0.22543  0.73586  1.0000
  C   C240      1.0  0.65552  0.20459  0.71065  1.0000
  C   C241      1.0  0.66982  0.19150  0.69317  1.0000
  H   H244      1.0  0.73435  0.22555  0.73265  1.0000
  H   H245      1.0  0.70921  0.24906  0.76286  1.0000
  H   H246      1.0  0.63336  0.19836  0.70475  1.0000
  H   H247      1.0  0.65867  0.17536  0.67404  1.0000
  C   C242      1.0  0.56798  0.09358  0.50950  1.0000
  H   H248      1.0  0.56150  0.29040  0.70211  1.0000
  S   S83       1.0  0.51330  0.32851  0.55710  1.0000
  H   H249      1.0  0.84511  0.26222  0.54198  1.0000
  C   C243      1.0  0.57908  0.30323  0.75457  1.0000
  C   C244      1.0  0.55783  0.29616  0.72869  1.0000
  S   S84       1.0  0.69703  0.30025  0.92501  1.0000
  H   H250      1.0  0.77808  0.27139  0.59909  1.0000
  C   C245      1.0  0.58737  0.11143  0.56570  1.0000
  C   C246      1.0  0.58004  0.06486  0.54998  1.0000
  H   H251      1.0  0.76507  0.18189  0.64144  1.0000
  H   H252      1.0  0.83000  0.21648  0.57772  1.0000
  C   C247      1.0  0.58868  0.08630  0.57458  1.0000
  C   C248      1.0  0.67011  0.31852  0.97626  1.0000
  H   H253      1.0  0.59478  0.12831  0.58463  1.0000
  H   H254      1.0  0.71807  0.29499  0.99418  1.0000
  H   H255      1.0  0.59761  0.23226  0.72178  1.0000
  H   H256      1.0  0.54352  0.31449  0.82484  1.0000
  C   C249      1.0  0.82735  0.25445  0.56242  1.0000
  C   C250      1.0  0.52641  0.30173  0.77273  1.0000
  H   H257      1.0  0.77348  0.19264  0.52496  1.0000
  C   C251      1.0  0.78967  0.25954  0.59430  1.0000
  C   C252      1.0  0.57376  0.30951  0.78953  1.0000
  N   N21       1.0  0.53223  0.23223  0.77217  1.0000
  C   C253      1.0  0.53110  0.22717  0.73616  1.0000
  C   C254      1.0  0.55619  0.23698  0.79045  1.0000
  C   C255      1.0  0.81262  0.26992  0.56815  1.0000
  C   C256      1.0  0.57996  0.23703  0.77256  1.0000
  C   C257      1.0  0.57915  0.23216  0.73583  1.0000
  C   C258      1.0  0.56954  0.06844  0.51720  1.0000
  H   H258      1.0  0.59927  0.30344  0.74764  1.0000
  H   H259      1.0  0.55727  0.24126  0.81891  1.0000
  H   H260      1.0  0.81899  0.28991  0.55231  1.0000
  H   H261      1.0  0.59898  0.24090  0.78702  1.0000
  H   H262      1.0  0.51224  0.22377  0.72156  1.0000
  H   H263      1.0  0.53869  0.20345  0.54722  1.0000
  H   H264      1.0  0.55775  0.14117  0.54181  1.0000
  C   C259      1.0  0.54772  0.30947  0.79802  1.0000
  N   N22       1.0  0.79587  0.21835  0.60788  1.0000
  C   C260      1.0  0.78166  0.23366  0.61423  1.0000
  C   C261      1.0  0.81871  0.22862  0.58275  1.0000
  C   C262      1.0  0.55460  0.22724  0.71740  1.0000
  C   C263      1.0  0.53112  0.29472  0.73815  1.0000
  C   C264      1.0  0.79174  0.19060  0.51454  1.0000
  C   C265      1.0  0.64765  0.01019  0.60423  1.0000
  C   C266      1.0  0.51253  0.22426  0.54076  1.0000
  S   S85       1.0  0.53093  0.29003  0.61126  1.0000
  H   H265      1.0  0.55382  0.22364  0.68876  1.0000
  C   C267      1.0  0.58858  0.32355  0.51142  1.0000
  C   C268      1.0  0.57560  0.14117  0.52505  1.0000
  C   C269      1.0  0.52272  0.20518  0.53122  1.0000
  H   H266      1.0  0.65930  0.32237  0.95409  1.0000
  S   S86       1.0  0.66241  0.31536  0.76953  1.0000
  S   S87       1.0  0.66595  0.17222  0.51818  1.0000
  C   C270      1.0  0.68936  0.30794  0.96945  1.0000
  N   N23       1.0  0.57721  0.11484  0.53340  1.0000
  H   H267      1.0  0.58172  0.04564  0.55634  1.0000
  S   S88       1.0  0.59852  0.31769  0.82391  1.0000
  H   H268      1.0  0.51418  0.24692  0.81311  1.0000
  H   H269      1.0  0.57885  0.31371  0.53884  1.0000
  C   C271      1.0  0.81743  0.16343  0.51028  1.0000
  H   H270      1.0  0.81914  0.14440  0.51734  1.0000
  Fe  Fe45      1.0  0.50427  0.29694  0.65392  1.0000
  C   C272      1.0  0.50711  0.23117  0.79173  1.0000
  H   H271      1.0  0.50575  0.30032  0.78042  1.0000
  H   H272      1.0  0.78702  0.32258  0.84018  1.0000
  S   S89       1.0  0.51287  0.66129  0.41447  1.0000
  S   S90       1.0  0.86971  0.34767  0.39098  1.0000
  C   C273      1.0  0.90008  0.42572  0.47444  1.0000
  C   C274      1.0  0.89144  0.38200  0.27672  1.0000
  S   S91       1.0  0.95134  0.37342  0.37266  1.0000
  H   H273      1.0  0.96205  0.35615  0.48605  1.0000
  C   C275      1.0  0.96543  0.39550  0.46308  1.0000
  H   H274      1.0  0.63557  0.63536  0.40401  1.0000
  C   C276      1.0  0.67650  0.62414  0.31571  1.0000
  H   H275      1.0  0.54738  0.55725  0.47499  1.0000
  C   C277      1.0  0.52665  0.33594  0.45401  1.0000
  S   S92       1.0  0.70286  0.35634  0.18174  1.0000
  S   S93       1.0  0.76655  0.35234  0.22718  1.0000
  H   H276      1.0  0.68426  0.64490  0.32716  1.0000
  C   C278      1.0  0.86957  0.36127  0.25703  1.0000
  C   C279      1.0  0.98438  0.42380  0.45056  1.0000
  Fe  Fe46      1.0  0.90671  0.33755  0.39376  1.0000
  Fe  Fe47      1.0  0.64860  0.47374  0.42684  1.0000
  S   S94       1.0  0.68369  0.51075  0.45364  1.0000
  S   S95       1.0  0.60421  0.44777  0.45370  1.0000
  Fe  Fe48      1.0  0.68298  0.48727  0.35517  1.0000
  S   S96       1.0  0.72005  0.52675  0.37566  1.0000
  S   S97       1.0  0.68789  0.47601  0.29793  1.0000
  Fe  Fe49      1.0  0.71439  0.49848  0.42540  1.0000
  S   S98       1.0  0.75270  0.49199  0.44000  1.0000
  Fe  Fe50      1.0  0.68587  0.53533  0.40173  1.0000
  S   S99       1.0  0.68660  0.57852  0.40423  1.0000
  S   S100      1.0  0.67830  0.45870  0.40358  1.0000
  S   S101      1.0  0.64964  0.49863  0.37626  1.0000
  H   H277      1.0  0.74494  0.44853  0.36757  1.0000
  C   C280      1.0  0.79900  0.34843  0.28169  1.0000
  H   H278      1.0  0.74918  0.39905  0.23269  1.0000
  H   H279      1.0  0.71250  0.61906  0.33241  1.0000
  H   H280      1.0  0.70611  0.42771  0.36326  1.0000
  C   C281      1.0  0.65630  0.58369  0.39637  1.0000
  C   C282      1.0  0.65718  0.60953  0.40555  1.0000
  C   C283      1.0  0.63431  0.61515  0.39750  1.0000
  C   C284      1.0  0.61059  0.59517  0.37950  1.0000
  C   C285      1.0  0.60952  0.56917  0.37091  1.0000
  C   C286      1.0  0.63206  0.56332  0.37958  1.0000
  H   H281      1.0  0.67588  0.62550  0.41846  1.0000
  H   H282      1.0  0.72094  0.36710  0.28601  1.0000
  H   H283      1.0  0.59132  0.55360  0.35689  1.0000
  H   H284      1.0  0.63101  0.54340  0.37228  1.0000
  C   C287      1.0  0.79952  0.50070  0.47878  1.0000
  C   C288      1.0  0.77448  0.50376  0.47789  1.0000
  H   H285      1.0  0.80566  0.49242  0.45588  1.0000
  C   C289      1.0  0.65732  0.38171  0.27439  1.0000
  C   C290      1.0  0.64893  0.38855  0.30729  1.0000
  C   C291      1.0  0.65812  0.41733  0.31474  1.0000
  C   C292      1.0  0.67552  0.43955  0.28911  1.0000
  C   C293      1.0  0.68373  0.43272  0.25606  1.0000
  C   C294      1.0  0.67493  0.40392  0.24884  1.0000
  H   H286      1.0  0.63512  0.37149  0.32707  1.0000
  H   H287      1.0  0.65133  0.42226  0.34007  1.0000
  H   H288      1.0  0.69704  0.44977  0.23600  1.0000
  H   H289      1.0  0.68132  0.39889  0.22328  1.0000
  H   H290      1.0  0.59671  0.37220  0.47645  1.0000
  C   C295      1.0  0.97660  0.37841  0.47713  1.0000
  H   H291      1.0  0.57643  0.48420  0.44073  1.0000
  C   C296      1.0  0.88442  0.39581  0.47192  1.0000
  H   H292      1.0  0.91579  0.43912  0.45304  1.0000
  H   H293      1.0  0.88827  0.38624  0.44873  1.0000
  H   H294      1.0  0.89504  0.40388  0.27606  1.0000
  C   C297      1.0  0.90365  0.34606  0.29810  1.0000
  C   C298      1.0  0.77616  0.33324  0.25907  1.0000
  Fe  Fe51      1.0  0.56346  0.62999  0.38455  1.0000
  H   H295      1.0  0.56053  0.38010  0.44472  1.0000
  H   H296      1.0  0.76595  0.45154  0.23294  1.0000
  H   H297      1.0  0.57719  0.58708  0.44942  1.0000
  C   C299      1.0  0.60390  0.42915  0.49365  1.0000
  C   C300      1.0  0.98519  0.37577  0.38274  1.0000
  H   H298      1.0  0.80956  0.37167  0.28064  1.0000
  H   H299      1.0  0.63691  0.62209  0.29828  1.0000
  C   C301      1.0  0.60709  0.56212  0.46938  1.0000
  H   H300      1.0  0.51040  0.33923  0.44058  1.0000
  H   H301      1.0  0.97581  0.43703  0.43907  1.0000
  C   C302      1.0  0.80843  0.33370  0.30546  1.0000
  H   H302      1.0  0.92563  0.39004  0.31286  1.0000
  C   C303      1.0  0.98688  0.35307  0.40062  1.0000
  S   S102      1.0  0.51980  0.61659  0.36159  1.0000
  C   C304      1.0  0.57507  0.35430  0.47468  1.0000
  H   H303      1.0  0.61613  0.58419  0.47695  1.0000
  H   H304      1.0  0.80019  0.41542  0.48185  1.0000
  H   H305      1.0  0.72589  0.46289  0.34185  1.0000
  S   S103      1.0  0.64501  0.34516  0.26634  1.0000
  N   N24       1.0  0.58040  0.54853  0.45506  1.0000
  Fe  Fe52      1.0  0.53174  0.66304  0.35881  1.0000
  S   S104      1.0  0.58290  0.60226  0.36442  1.0000
  C   C305      1.0  0.58510  0.50612  0.44888  1.0000
  H   H306      1.0  0.85635  0.36743  0.24100  1.0000
  C   C306      1.0  0.62826  0.42678  0.50282  1.0000
  N   N25       1.0  0.68186  0.58249  0.30600  1.0000
  C   C307      1.0  0.69235  0.60938  0.31863  1.0000
  C   C308      1.0  0.65617  0.57006  0.28924  1.0000
  C   C309      1.0  0.56316  0.56330  0.45145  1.0000
  C   C310      1.0  0.63977  0.58422  0.28587  1.0000
  C   C311      1.0  0.64996  0.61135  0.29944  1.0000
  C   C312      1.0  0.69884  0.56741  0.30914  1.0000
  C   C313      1.0  0.62362  0.54814  0.47327  1.0000
  H   H307      1.0  0.64798  0.54883  0.27898  1.0000
  H   H308      1.0  0.62514  0.50894  0.46554  1.0000
  H   H309      1.0  0.61895  0.57399  0.27363  1.0000
  H   H310      1.0  0.64527  0.55931  0.48329  1.0000
  H   H311      1.0  0.68453  0.54368  0.31161  1.0000
  H   H312      1.0  0.71403  0.57303  0.28507  1.0000
  H   H313      1.0  0.71154  0.57325  0.33380  1.0000
  N   N26       1.0  0.73232  0.43082  0.31646  1.0000
  C   C314      1.0  0.74782  0.44860  0.28704  1.0000
  C   C315      1.0  0.72284  0.40190  0.31640  1.0000
  C   C316      1.0  0.75401  0.43747  0.25642  1.0000
  C   C317      1.0  0.72871  0.39007  0.28626  1.0000
  C   C318      1.0  0.74448  0.40803  0.25617  1.0000
  C   C319      1.0  0.72713  0.44302  0.34889  1.0000
  H   H314      1.0  0.75502  0.47147  0.28695  1.0000
  H   H315      1.0  0.71036  0.38775  0.33955  1.0000
  S   S105      1.0  0.54650  0.62599  0.44206  1.0000
  C   C320      1.0  0.55467  0.35882  0.45637  1.0000
  C   C321      1.0  0.56921  0.52078  0.44519  1.0000
  C   C322      1.0  0.90857  0.37428  0.29734  1.0000
  H   H316      1.0  0.94217  0.38667  0.46117  1.0000
  C   C323      1.0  0.61249  0.51998  0.46292  1.0000
  H   H317      1.0  0.54800  0.50994  0.43403  1.0000
  H   H318      1.0  0.55119  0.55781  0.42618  1.0000
  S   S106      1.0  0.84263  0.34135  0.49553  1.0000
  N   N27       1.0  0.86446  0.33345  0.25863  1.0000
  H   H319      1.0  0.78470  0.43897  0.48057  1.0000
  H   H320      1.0  0.82173  0.45232  0.49317  1.0000
  H   H321      1.0  0.64831  0.43813  0.48632  1.0000
  H   H322      1.0  0.96722  0.33320  0.40819  1.0000
  C   C324      1.0  0.86354  0.37854  0.49914  1.0000
  H   H323      1.0  0.82623  0.34558  0.32248  1.0000
  C   C325      1.0  0.79952  0.43340  0.49536  1.0000
  C   C326      1.0  0.89505  0.43831  0.50434  1.0000
  H   H324      1.0  0.91710  0.34002  0.31386  1.0000
  H   H325      1.0  0.64976  0.33232  0.01661  1.0000
  Fe  Fe53      1.0  0.50423  0.61586  0.41847  1.0000
  S   S107      1.0  0.59518  0.36593  0.58509  1.0000
  H   H326      1.0  0.80568  0.39562  0.53854  1.0000
  S   S108      1.0  0.73407  0.38850  0.77549  1.0000
  H   H327      1.0  0.99921  0.55015  0.50973  1.0000
  Fe  Fe54      1.0  0.89745  0.48750  0.55633  1.0000
  S   S109      1.0  0.90982  0.53308  0.56710  1.0000
  H   H328      1.0  0.60526  0.37390  0.77575  1.0000
  Fe  Fe55      1.0  0.86239  0.46248  0.62822  1.0000
  S   S110      1.0  0.87270  0.50624  0.64546  1.0000
  S   S111      1.0  0.83605  0.41837  0.65743  1.0000
  Fe  Fe56      1.0  0.86302  0.51385  0.58819  1.0000
  S   S112      1.0  0.83023  0.52908  0.57732  1.0000
  Fe  Fe57      1.0  0.91858  0.52144  0.62262  1.0000
  S   S113      1.0  0.96016  0.54414  0.65306  1.0000
  S   S114      1.0  0.85043  0.46938  0.57262  1.0000
  S   S115      1.0  0.90860  0.47674  0.61012  1.0000
  H   H329      1.0  0.56989  0.36451  0.72861  1.0000
  H   H330      1.0  0.77119  0.41076  0.63645  1.0000
  C   C327      1.0  0.85898  0.39107  0.52939  1.0000
  H   H331      1.0  0.77186  0.42439  0.84152  1.0000
  C   C328      1.0  0.99898  0.58669  0.60263  1.0000
  H   H332      1.0  0.80480  0.36456  0.79546  1.0000
  C   C329      1.0  0.79508  0.40603  0.55214  1.0000
  H   H333      1.0  0.96030  0.51333  0.55161  1.0000
  C   C330      1.0  0.80936  0.51960  0.53853  1.0000
  C   C331      1.0  0.75819  0.36023  0.88021  1.0000
  H   H334      1.0  0.58415  0.36302  0.66445  1.0000
  H   H335      1.0  0.77410  0.45576  0.53678  1.0000
  C   C332      1.0  0.76172  0.39614  0.74191  1.0000
  C   C333      1.0  0.76751  0.37475  0.72988  1.0000
  C   C334      1.0  0.79056  0.38195  0.70419  1.0000
  C   C335      1.0  0.80785  0.41048  0.69028  1.0000
  C   C336      1.0  0.80192  0.43181  0.70218  1.0000
  C   C337      1.0  0.77900  0.42465  0.72803  1.0000
  H   H336      1.0  0.75437  0.35273  0.74046  1.0000
  H   H337      1.0  0.79499  0.36534  0.69496  1.0000
  H   H338      1.0  0.81510  0.45384  0.69162  1.0000
  H   H339      1.0  0.77475  0.44135  0.73735  1.0000
  C   C338      1.0  0.75992  0.40553  0.86112  1.0000
  H   H340      1.0  0.76445  0.41318  0.88887  1.0000
  C   C339      1.0  0.65951  0.38336  0.76683  1.0000
  C   C340      1.0  0.79208  0.36332  0.81972  1.0000
  C   C341      1.0  0.62723  0.37156  0.67622  1.0000
  S   S116      1.0  0.52337  0.34446  0.64174  1.0000
  C   C342      1.0  0.62617  0.40848  0.53242  1.0000
  H   H341      1.0  0.73640  0.39664  0.85699  1.0000
  H   H342      1.0  0.67680  0.37817  0.75853  1.0000
  H   H343      1.0  0.64458  0.40564  0.53865  1.0000
  H   H344      1.0  0.87144  0.43032  0.55575  1.0000
  C   C343      1.0  0.77590  0.41455  0.60747  1.0000
  C   C344      1.0  0.61170  0.37363  0.74772  1.0000
  H   H345      1.0  0.79308  0.38525  0.60422  1.0000
  H   H346      1.0  0.77868  0.53173  0.56017  1.0000
  C   C345      1.0  0.81688  0.50855  0.50890  1.0000
  C   C346      1.0  0.78801  0.40006  0.58928  1.0000
  C   C347      1.0  0.99493  0.57124  0.63563  1.0000
  C   C348      1.0  0.78501  0.38505  0.82574  1.0000
  N   N28       1.0  0.76824  0.38328  0.85568  1.0000
  C   C349      1.0  0.78453  0.52300  0.53748  1.0000
  C   C350      1.0  0.76516  0.33829  0.87530  1.0000
  C   C351      1.0  0.98279  0.52314  0.55875  1.0000
  C   C352      1.0  0.78211  0.33983  0.84476  1.0000
  H   H347      1.0  0.79253  0.40302  0.80585  1.0000
  C   C353      1.0  0.59980  0.39283  0.55276  1.0000
  H   H348      1.0  0.66995  0.40645  0.77260  1.0000
  C   C354      1.0  0.98997  0.51563  0.59194  1.0000
  C   C355      1.0  0.87481  0.42090  0.53207  1.0000
  C   C356      1.0  0.57815  0.41474  0.51521  1.0000
  H   H349      1.0  0.55940  0.41684  0.50847  1.0000
  C   C357      1.0  0.59163  0.36839  0.72122  1.0000
  C   C358      1.0  0.64674  0.37667  0.70341  1.0000
  H   H350      1.0  0.76232  0.44676  0.60245  1.0000
  C   C359      1.0  0.77078  0.43461  0.58840  1.0000
  H   H351      1.0  0.63343  0.37085  0.64821  1.0000
  H   H352      1.0  0.83620  0.50630  0.50912  1.0000
  N   N29       1.0  0.63870  0.37732  0.73868  1.0000
  N   N30       1.0  0.78979  0.42561  0.53358  1.0000
  H   H353      1.0  0.64852  0.37008  0.79215  1.0000
  C   C360      1.0  0.76710  0.51505  0.50736  1.0000
  C   C361      1.0  0.77775  0.43979  0.55121  1.0000
  H   H354      1.0  0.97271  0.50010  0.61052  1.0000
  H   H355      1.0  0.84334  0.37770  0.55087  1.0000
  S   S117      1.0  0.67793  0.34311  0.84895  1.0000
  H   H356      1.0  0.66829  0.37999  0.69616  1.0000
  H   H357      1.0  0.74794  0.51758  0.50705  1.0000
  C   C362      1.0  0.59951  0.36729  0.68529  1.0000
  C   C363      1.0  0.57621  0.39683  0.54494  1.0000
  H   H358      1.0  0.55623  0.38581  0.56148  1.0000
  Fe  Fe58      1.0  0.70247  0.34339  0.79815  1.0000
  H   H359      1.0  0.74429  0.35842  0.90352  1.0000
  H   H360      1.0  0.98041  0.58259  0.58719  1.0000
  H   H361      1.0  0.60844  0.34421  0.51553  1.0000
  Fe  Fe59      1.0  0.54734  0.33673  0.59660  1.0000
  S   S118      1.0  0.91371  0.47577  0.50669  1.0000
  H   H362      1.0  0.50598  0.46484  0.57793  1.0000
  C   C364      1.0  0.62410  0.86412  0.50234  1.0000
  S   S119      1.0  0.57448  0.70207  0.47948  1.0000
  H   H363      1.0  0.54581  0.77263  0.43494  1.0000
  H   H364      1.0  0.64962  0.96304  0.48872  1.0000
  H   H365      1.0  0.55374  0.73058  0.42893  1.0000
  C   C365      1.0  0.55917  0.74211  0.45343  1.0000
  C   C366      1.0  0.57069  0.73330  0.48158  1.0000
  C   C367      1.0  0.56092  0.78071  0.48888  1.0000
  C   C368      1.0  0.55460  0.76589  0.45697  1.0000
  H   H366      1.0  0.61886  0.84189  0.49961  1.0000
  C   C369      1.0  0.61284  0.87690  0.47894  1.0000
  S   S120      1.0  0.51821  0.68532  0.31621  1.0000
  H   H367      1.0  0.59886  0.86460  0.45803  1.0000
  S   S121      1.0  0.57714  0.67745  0.37691  1.0000
  C   C370      1.0  0.61891  0.90521  0.48346  1.0000
  Fe  Fe60      1.0  0.55682  0.67235  0.43319  1.0000
  S   S122      1.0  0.55441  0.81022  0.49208  1.0000
  H   H368      1.0  0.60949  0.91474  0.46572  1.0000
  H   H369      1.0  0.51001  0.68947  0.49071  1.0000
  Fe  Fe61      1.0  0.57561  0.87998  0.59442  1.0000
  S   S123      1.0  0.53590  0.85932  0.63265  1.0000
  S   S124      1.0  0.61597  0.92343  0.60077  1.0000
  Fe  Fe62      1.0  0.55095  0.82890  0.54489  1.0000
  C   C371      1.0  0.52389  0.69733  0.55771  1.0000
  C   C372      1.0  0.53419  0.70627  0.59186  1.0000
  Fe  Fe63      1.0  0.53697  0.81796  0.62599  1.0000
  S   S125      1.0  0.55095  0.87131  0.54391  1.0000
  S   S126      1.0  0.57917  0.83922  0.59222  1.0000
  S   S127      1.0  0.50925  0.80529  0.57845  1.0000
  H   H370      1.0  0.57604  0.99061  0.60519  1.0000
  H   H371      1.0  0.65782  0.96087  0.53504  1.0000
  H   H372      1.0  0.66453  0.98044  0.60317  1.0000
  H   H373      1.0  0.52893  0.68215  0.54481  1.0000
  H   H374      1.0  0.57788  0.78350  0.54154  1.0000
  S   S128      1.0  0.52720  0.78324  0.66993  1.0000
  C   C373      1.0  0.61780  0.95774  0.60246  1.0000
  C   C374      1.0  0.59296  0.96093  0.60270  1.0000
  C   C375      1.0  0.64513  0.98256  0.60313  1.0000
  H   H375      1.0  0.57178  0.94212  0.60224  1.0000
  H   H376      1.0  0.66006  0.91990  0.55537  1.0000
  C   C376      1.0  0.57265  0.77208  0.51696  1.0000
  H   H377      1.0  0.58715  0.74227  0.53479  1.0000
  H   H378      1.0  0.53618  0.73354  0.63475  1.0000
  H   H379      1.0  0.50769  0.75236  0.60328  1.0000
  H   H380      1.0  0.54686  0.69797  0.60526  1.0000
  C   C377      1.0  0.64137  0.87978  0.52979  1.0000
  C   C378      1.0  0.57793  0.74875  0.51305  1.0000
  Fe  Fe64      1.0  0.51158  0.84817  0.58189  1.0000
  C   C379      1.0  0.64723  0.90814  0.53335  1.0000
  H   H381      1.0  0.52499  0.83497  0.71454  1.0000
  C   C380      1.0  0.52834  0.72623  0.60830  1.0000
  H   H382      1.0  0.64966  0.86983  0.54869  1.0000
  C   C381      1.0  0.59545  0.98852  0.60430  1.0000
  N   N31       1.0  0.50871  0.70844  0.54016  1.0000
  C   C382      1.0  0.51242  0.73701  0.59047  1.0000
  H   H383      1.0  0.62108  0.94944  0.52447  1.0000
  C   C383      1.0  0.64148  0.94993  0.51469  1.0000
  H   H384      1.0  0.51263  0.79789  0.76395  1.0000
  N   N32       1.0  0.63607  0.92051  0.51025  1.0000
  C   C384      1.0  0.50337  0.82439  0.72773  1.0000
