data_image0
_chemical_formula_structural       FeSHSHCS2CSCFeSCFeCFeSHFeH2C2HSFeS2CFeS2FeHFeSHSHCHNCHCHNHFeH2NCHC7H3CHCSHCNSCHC4H3C2HC3HSHC3HCH3C4NH2CH3FeHCSCH3CHCSCHC2HCSCH2CHCHCH3SH2C2SCSC2HSHFeS2FeNFeCFeHS2HCFeS2FeCSFeHFeHS2H4CHC2SH3C2SC2H2C6H4CHCH4CH3C4HC6H4C3H4CHC3NC4SHC2NS2H6N2HC4H2C2SH2C2SH2CHCFeS2FeHSFeHFeS3FeCFeS2FeHFeCS2NC2HCH2CSC3H3C6H4C2HCH2CH3CH2CH2SH4CH2CNCSHCHC2H2C2H5C4H2CHSNCH2C5H3CH2C4SC3HC3H2SH4SCFeSCFeH2FeSFe2S3HCH2FeCS2FeSCHFeSFeS2FeH5CSHNHC7H2C2HC5H2C3HC2H2CH3CHC2NH3C2HC2SC2HCSNCSHFeCHSHCSHC2HNCH2C4H3SCHCNH4SH2SCH3NCH3CNC3SC3H4SCFeC2HC2H2CH2CNHC2FeH2CFeHCH5C2HC2H2C3SCH2CH4C2HCHCHC3HCFeSCFeS2FeHFeSCSFeS2FeS2FeSFeHS2HC2H4CHC2HCH2C7H8CHC6H3C2HCSH2SNC6H9SH2CNC2H2CHCH2NHSHC4NFeS2FeS2FeSFeS3FeSHFeSHFeSFeSCSH4CH4CHCSC6H4CH2C2HC3H5C2H3CHC2HNCSHCHCHCHNSNC4HCHC5H2C2H4CH2CH2C2H2SCHCNHC2H3CHCHCHFeHC2H2CH3C2HCHNC6H2CH7C2H2C3SHSCHC3HNCNHSCHCHC2HCHC3H2C2HSCNFeS2FeNFeHCSFeCS2FeSC2FeHFeHS2FeCSFeS2CHCHSH2CHSH2C2SCH2C5HCH6CH2CHC4H2NC2H3CH2CHCSC3H2C2H2C3SH2CHCHFeH6CHSCSFeSHFeSCFeSFeS2FeS2FeHFeCFeS3NH2C2HCHCHC2HCH2C7H4C3H4CHCNHC3NCH4C2HC3HC3HCHCH2C2HCH2SCHC5SCHC2HSHC2SHSH2CNC2HC3HCH5SH4CHCFeSHFeSHFeSFeS2HFeS2FeHFeCFeHS2HCHCHC3HSCSHC7H4CNC7H2CHSH2NC6H9SH3SC3HC4H2NHSC3HCHCHSH2NC2H2SHC3H3CFeS2FeHFeSHC2H2FeHSCSHFeSCFeHFeS2CH2FeS2CHSC8H3CH3CHCHSCH2C4H3CSNCNSC5HSH4CFeH2CH2CNCH3CH2CNCS2HCH4C4FeHSHFe2CH3CHCSC2SH2C2H2SC2HCNC2S2CHC2HCH2C3SCH2CHC
_chemical_formula_sum              "Fe96 S192 H576 C576 N48"
_cell_length_a       60.6963
_cell_length_b       47.4978
_cell_length_c       35.5961
_cell_angle_alpha    88.959
_cell_angle_beta     89.6334
_cell_angle_gamma    89.0477

_space_group_name_H-M_alt    "P 1"
_space_group_IT_number       1

loop_
  _space_group_symop_operation_xyz
  'x, y, z'

loop_
  _atom_site_type_symbol
  _atom_site_label
  _atom_site_symmetry_multiplicity
  _atom_site_fract_x
  _atom_site_fract_y
  _atom_site_fract_z
  _atom_site_occupancy
  Fe  Fe1       1.0  0.03522  0.38828  0.46249  1.0000
  S   S1        1.0  0.04790  0.40218  0.40612  1.0000
  H   H1        1.0  0.26435  0.21003  0.08938  1.0000
  S   S2        1.0  0.26743  0.17768  0.48010  1.0000
  H   H2        1.0  0.08471  0.38023  0.44182  1.0000
  C   C1        1.0  0.28420  0.19721  0.19104  1.0000
  S   S3        1.0  0.02743  0.35437  0.33214  1.0000
  S   S4        1.0  0.33973  0.10288  0.09209  1.0000
  C   C2        1.0  0.31576  0.05719  0.27595  1.0000
  S   S5        1.0  0.32860  0.17058  0.43712  1.0000
  C   C3        1.0  0.27249  0.27271  0.02378  1.0000
  Fe  Fe2       1.0  0.32718  0.13964  0.38950  1.0000
  S   S6        1.0  0.29397  0.12316  0.40596  1.0000
  C   C4        1.0  0.27066  0.17793  0.17346  1.0000
  Fe  Fe3       1.0  0.29646  0.15204  0.45577  1.0000
  C   C5        1.0  0.12332  0.41631  0.02213  1.0000
  Fe  Fe4       1.0  0.31291  0.09058  0.44065  1.0000
  S   S7        1.0  0.30825  0.04320  0.43288  1.0000
  H   H3        1.0  0.15569  0.43046  0.47553  1.0000
  Fe  Fe5       1.0  0.01882  0.37984  0.38329  1.0000
  H   H4        1.0  0.11182  0.31295  0.39793  1.0000
  H   H5        1.0  0.33539  0.14738  0.19214  1.0000
  C   C6        1.0  0.30713  0.01587  0.46786  1.0000
  C   C7        1.0  0.20741  0.47999  0.42294  1.0000
  H   H6        1.0  0.25558  0.13956  0.12809  1.0000
  S   S8        1.0  0.03565  0.47649  0.04670  1.0000
  Fe  Fe6       1.0  0.04030  0.37498  0.07462  1.0000
  S   S9        1.0  0.07274  0.35084  0.07591  1.0000
  S   S10       1.0  0.03729  0.41247  0.11177  1.0000
  C   C8        1.0  0.01602  0.36987  0.22125  1.0000
  Fe  Fe7       1.0  0.31020  0.12506  0.11653  1.0000
  S   S11       1.0  0.28918  0.11636  0.06606  1.0000
  S   S12       1.0  0.29604  0.11532  0.17478  1.0000
  Fe  Fe8       1.0  0.31975  0.09733  0.03994  1.0000
  H   H7        1.0  0.13134  0.31252  0.45742  1.0000
  Fe  Fe9       1.0  0.30061  0.15870  0.04395  1.0000
  S   S13       1.0  0.01423  0.42709  0.47060  1.0000
  H   H8        1.0  0.02373  0.36474  0.19470  1.0000
  S   S14       1.0  0.31991  0.16818  0.09608  1.0000
  H   H9        1.0  0.19423  0.40409  0.45495  1.0000
  C   C9        1.0  0.03164  0.43828  0.22626  1.0000
  H   H10       1.0  0.07700  0.30634  0.50191  1.0000
  N   N1        1.0  0.01633  0.45414  0.28477  1.0000
  C   C10       1.0  0.04857  0.42425  0.24563  1.0000
  H   H11       1.0  0.28797  0.24506  0.11914  1.0000
  C   C11       1.0  0.04923  0.42529  0.28476  1.0000
  H   H12       1.0  0.03037  0.43661  0.19596  1.0000
  N   N2        1.0  0.26434  0.18217  0.13696  1.0000
  H   H13       1.0  0.11882  0.33735  0.06968  1.0000
  Fe  Fe10      1.0  0.02472  0.43867  0.41216  1.0000
  H   H14       1.0  0.07997  0.29283  0.04059  1.0000
  H   H15       1.0  0.07384  0.43461  0.06080  1.0000
  N   N3        1.0  0.32934  0.06778  0.30261  1.0000
  C   C12       1.0  0.08652  0.43126  0.03965  1.0000
  H   H16       1.0  0.31005  0.05215  0.21650  1.0000
  C   C13       1.0  0.30692  0.12805  0.21726  1.0000
  C   C14       1.0  0.32671  0.14265  0.21810  1.0000
  C   C15       1.0  0.07706  0.30945  0.47162  1.0000
  C   C16       1.0  0.32514  0.14345  0.28692  1.0000
  C   C17       1.0  0.30487  0.12988  0.28596  1.0000
  C   C18       1.0  0.29582  0.12224  0.25128  1.0000
  C   C19       1.0  0.07677  0.31956  0.39467  1.0000
  H   H17       1.0  0.23315  0.41865  0.44882  1.0000
  H   H18       1.0  0.29636  0.12481  0.31195  1.0000
  H   H19       1.0  0.28040  0.11116  0.25090  1.0000
  C   C20       1.0  0.15835  0.43547  0.44519  1.0000
  H   H20       1.0  0.24160  0.46764  0.42858  1.0000
  C   C21       1.0  0.26486  0.21432  0.49031  1.0000
  S   S15       1.0  0.22053  0.36939  0.50442  1.0000
  H   H21       1.0  0.06188  0.41370  0.30025  1.0000
  C   C22       1.0  0.30608  0.02158  0.50626  1.0000
  N   N4        1.0  0.18112  0.44433  0.43889  1.0000
  S   S16       1.0  0.02760  0.39734  0.02317  1.0000
  C   C23       1.0  0.27923  0.26196  0.49240  1.0000
  H   H22       1.0  0.29036  0.03167  0.04408  1.0000
  C   C24       1.0  0.27921  0.24414  0.02723  1.0000
  C   C25       1.0  0.02491  0.35918  0.25518  1.0000
  C   C26       1.0  0.11714  0.30178  0.47109  1.0000
  C   C27       1.0  0.29062  0.22143  0.17138  1.0000
  H   H23       1.0  0.03945  0.34571  0.25463  1.0000
  H   H24       1.0  0.11060  0.41494  0.07897  1.0000
  H   H25       1.0  0.30831  0.05359  0.34782  1.0000
  C   C28       1.0  0.01531  0.36639  0.28977  1.0000
  C   C29       1.0  0.22462  0.46092  0.43049  1.0000
  H   H26       1.0  0.31900  0.08844  0.35193  1.0000
  C   C30       1.0  0.26996  0.20627  0.11789  1.0000
  C   C31       1.0  0.11831  0.37456  0.45930  1.0000
  C   C32       1.0  0.09550  0.37687  0.46538  1.0000
  H   H27       1.0  0.12481  0.37639  0.43101  1.0000
  S   S17       1.0  0.31221  0.11765  0.49175  1.0000
  H   H28       1.0  0.03346  0.44103  0.33441  1.0000
  C   C33       1.0  0.19789  0.42542  0.44581  1.0000
  C   C34       1.0  0.18561  0.47133  0.42745  1.0000
  C   C35       1.0  0.03293  0.44054  0.30398  1.0000
  H   H29       1.0  0.29418  0.23844  0.04204  1.0000
  C   C36       1.0  0.32297  0.06682  0.34238  1.0000
  H   H30       1.0  0.06069  0.41180  0.23040  1.0000
  H   H31       1.0  0.25288  0.16212  0.08762  1.0000
  H   H32       1.0  0.30123  0.23646  0.18462  1.0000
  C   C37       1.0  0.33575  0.15028  0.25278  1.0000
  C   C38       1.0  0.09648  0.31353  0.41369  1.0000
  C   C39       1.0  0.05699  0.32040  0.41477  1.0000
  C   C40       1.0  0.04102  0.30940  0.01684  1.0000
  N   N5        1.0  0.09644  0.30880  0.45176  1.0000
  H   H33       1.0  0.04190  0.31682  0.46963  1.0000
  H   H34       1.0  0.28242  0.28880  0.03611  1.0000
  C   C41       1.0  0.09113  0.35292  0.03738  1.0000
  H   H35       1.0  0.33659  0.05795  0.35989  1.0000
  H   H36       1.0  0.07672  0.32372  0.36456  1.0000
  H   H37       1.0  0.29232  0.27647  0.48588  1.0000
  Fe  Fe11      1.0  0.02243  0.43383  0.06126  1.0000
  H   H38       1.0  0.23307  0.16514  0.12556  1.0000
  C   C42       1.0  0.05710  0.31537  0.45349  1.0000
  S   S18       1.0  0.16081  0.36341  0.47945  1.0000
  C   C43       1.0  0.11307  0.34379  0.04207  1.0000
  H   H39       1.0  0.17242  0.48665  0.42286  1.0000
  H   H40       1.0  0.14614  0.45192  0.43638  1.0000
  H   H41       1.0  0.29606  0.22649  0.46664  1.0000
  C   C44       1.0  0.32125  0.05945  0.23776  1.0000
  H   H42       1.0  0.30028  0.04769  0.28400  1.0000
  C   C45       1.0  0.29807  0.01639  0.02582  1.0000
  S   S19       1.0  0.03431  0.48278  0.39767  1.0000
  C   C46       1.0  0.01952  0.49412  0.01278  1.0000
  H   H43       1.0  0.21093  0.50168  0.41515  1.0000
  C   C47       1.0  0.13263  0.36907  0.48937  1.0000
  C   C48       1.0  0.25071  0.16126  0.11872  1.0000
  H   H44       1.0  0.04163  0.32516  0.40035  1.0000
  C   C49       1.0  0.21987  0.43342  0.44191  1.0000
  S   S20       1.0  0.00727  0.36299  0.43961  1.0000
  C   C50       1.0  0.28328  0.22620  0.13468  1.0000
  H   H45       1.0  0.28982  0.19315  0.21958  1.0000
  H   H46       1.0  0.15509  0.41612  0.42913  1.0000
  C   C51       1.0  0.28142  0.23356  0.48143  1.0000
  H   H47       1.0  0.26564  0.15922  0.18898  1.0000
  C   C52       1.0  0.01472  0.50419  0.42003  1.0000
  H   H48       1.0  0.12020  0.27868  0.47100  1.0000
  C   C53       1.0  0.10719  0.42045  0.04986  1.0000
  H   H49       1.0  0.13940  0.40793  0.03021  1.0000
  H   H50       1.0  0.00848  0.48551  0.50231  1.0000
  H   H51       1.0  0.00833  0.32815  0.01958  1.0000
  S   S21       1.0  0.32975  0.13894  0.01374  1.0000
  H   H52       1.0  0.04124  0.30395  0.04659  1.0000
  H   H53       1.0  0.14420  0.33437  0.01483  1.0000
  C   C54       1.0  0.08673  0.37342  0.50155  1.0000
  C   C55       1.0  0.01538  0.45287  0.24642  1.0000
  S   S22       1.0  0.33867  0.15041  0.32976  1.0000
  C   C56       1.0  0.12747  0.34211  0.01104  1.0000
  S   S23       1.0  0.27359  0.18646  0.01597  1.0000
  C   C57       1.0  0.07794  0.28809  0.01030  1.0000
  C   C58       1.0  0.26651  0.22305  0.01155  1.0000
  H   H54       1.0  0.11668  0.30898  0.50066  1.0000
  S   S24       1.0  0.00720  0.35791  0.09196  1.0000
  H   H55       1.0  0.07592  0.26508  0.00720  1.0000
  Fe  Fe12      1.0  0.20118  0.36184  0.60759  1.0000
  S   S25       1.0  0.23643  0.36999  0.59137  1.0000
  S   S26       1.0  0.18579  0.36159  0.66642  1.0000
  Fe  Fe13      1.0  0.18621  0.36189  0.52584  1.0000
  N   N6        1.0  0.19874  0.43672  0.66064  1.0000
  Fe  Fe14      1.0  0.23159  0.33675  0.54710  1.0000
  C   C59       1.0  0.28607  0.17270  0.57000  1.0000
  Fe  Fe15      1.0  0.22218  0.40155  0.54949  1.0000
  H   H56       1.0  0.16927  0.41639  0.64633  1.0000
  S   S27       1.0  0.19686  0.32691  0.56575  1.0000
  S   S28       1.0  0.18740  0.39574  0.56860  1.0000
  H   H57       1.0  0.13497  0.36182  0.54913  1.0000
  C   C60       1.0  0.20567  0.42898  0.69589  1.0000
  Fe  Fe16      1.0  0.21189  0.36660  0.88642  1.0000
  S   S29       1.0  0.23134  0.38163  0.93594  1.0000
  S   S30       1.0  0.22933  0.36647  0.82915  1.0000
  Fe  Fe17      1.0  0.17274  0.35192  0.93719  1.0000
  C   C61       1.0  0.19898  0.47688  0.99324  1.0000
  S   S31       1.0  0.13625  0.34262  0.93487  1.0000
  Fe  Fe18      1.0  0.19993  0.40276  0.95630  1.0000
  H   H58       1.0  0.04054  0.33121  0.91191  1.0000
  Fe  Fe19      1.0  0.21977  0.34184  0.96537  1.0000
  H   H59       1.0  0.26106  0.43000  0.68138  1.0000
  S   S32       1.0  0.18172  0.39079  0.90419  1.0000
  S   S33       1.0  0.20156  0.32620  0.91511  1.0000
  H   H60       1.0  0.19380  0.42368  0.71773  1.0000
  H   H61       1.0  0.23278  0.46428  0.98427  1.0000
  H   H62       1.0  0.09347  0.29463  0.99605  1.0000
  H   H63       1.0  0.16556  0.44599  0.67685  1.0000
  C   C62       1.0  0.21376  0.44199  0.63264  1.0000
  H   H64       1.0  0.17143  0.45191  0.62789  1.0000
  C   C63       1.0  0.09803  0.35852  0.97037  1.0000
  C   C64       1.0  0.11981  0.34876  0.97496  1.0000
  S   S34       1.0  0.18702  0.44461  0.97985  1.0000
  H   H65       1.0  0.09202  0.36372  0.94250  1.0000
  H   H66       1.0  0.09514  0.43804  0.94574  1.0000
  H   H67       1.0  0.28184  0.22839  0.57719  1.0000
  C   C65       1.0  0.18658  0.50047  0.50899  1.0000
  C   C66       1.0  0.10110  0.36823  0.53176  1.0000
  S   S35       1.0  0.25997  0.30685  0.52925  1.0000
  C   C67       1.0  0.22816  0.42690  0.70406  1.0000
  C   C68       1.0  0.23637  0.43980  0.63970  1.0000
  H   H68       1.0  0.18907  0.45771  0.53094  1.0000
  H   H69       1.0  0.29200  0.31868  0.96371  1.0000
  C   C69       1.0  0.19834  0.36103  0.71143  1.0000
  C   C70       1.0  0.22121  0.35948  0.71601  1.0000
  C   C71       1.0  0.23039  0.36085  0.75227  1.0000
  C   C72       1.0  0.21686  0.36365  0.78432  1.0000
  C   C73       1.0  0.19400  0.36482  0.77975  1.0000
  C   C74       1.0  0.18483  0.36353  0.74351  1.0000
  H   H70       1.0  0.23181  0.35752  0.69162  1.0000
  H   H71       1.0  0.24810  0.35985  0.75548  1.0000
  H   H72       1.0  0.18337  0.36693  0.80409  1.0000
  H   H73       1.0  0.16712  0.36468  0.74032  1.0000
  C   C75       1.0  0.31340  0.24239  0.55764  1.0000
  H   H74       1.0  0.06612  0.44625  0.99401  1.0000
  C   C76       1.0  0.24370  0.25256  0.52024  1.0000
  H   H75       1.0  0.27683  0.34684  0.94228  1.0000
  H   H76       1.0  0.20836  0.44770  0.60449  1.0000
  H   H77       1.0  0.28746  0.27154  0.94359  1.0000
  H   H78       1.0  0.23647  0.30669  0.84503  1.0000
  C   C77       1.0  0.17509  0.43789  0.65247  1.0000
  H   H79       1.0  0.23964  0.25522  0.85883  1.0000
  H   H80       1.0  0.12875  0.40722  0.93155  1.0000
  H   H81       1.0  0.09445  0.36537  0.55983  1.0000
  C   C78       1.0  0.24055  0.25964  0.98842  1.0000
  C   C79       1.0  0.22111  0.47555  0.52248  1.0000
  C   C80       1.0  0.19805  0.47610  0.52182  1.0000
  C   C81       1.0  0.25315  0.28071  0.00429  1.0000
  H   H82       1.0  0.30179  0.33390  0.91964  1.0000
  C   C82       1.0  0.02229  0.33134  0.96405  1.0000
  C   C83       1.0  0.24358  0.43217  0.67566  1.0000
  C   C84       1.0  0.12404  0.36630  0.52577  1.0000
  C   C85       1.0  0.33844  0.20582  0.53683  1.0000
  C   C86       1.0  0.28696  0.32773  0.93598  1.0000
  C   C87       1.0  0.24955  0.26988  0.87419  1.0000
  H   H83       1.0  0.26550  0.23769  0.90847  1.0000
  H   H84       1.0  0.32646  0.16373  0.54191  1.0000
  H   H85       1.0  0.23715  0.21498  0.97996  1.0000
  H   H86       1.0  0.14933  0.40390  0.96688  1.0000
  C   C88       1.0  0.04048  0.32494  0.94138  1.0000
  C   C89       1.0  0.22175  0.48107  0.99302  1.0000
  C   C90       1.0  0.32258  0.18581  0.54621  1.0000
  H   H87       1.0  0.23352  0.42041  0.73200  1.0000
  H   H88       1.0  0.30623  0.04318  0.51539  1.0000
  H   H89       1.0  0.25850  0.33985  0.88132  1.0000
  H   H90       1.0  0.28761  0.15428  0.55126  1.0000
  C   C91       1.0  0.24718  0.23106  0.99213  1.0000
  H   H91       1.0  0.06700  0.36807  0.99752  1.0000
  C   C92       1.0  0.02247  0.32331  0.00191  1.0000
  C   C93       1.0  0.13571  0.41779  0.95632  1.0000
  C   C94       1.0  0.08385  0.36111  0.00155  1.0000
  N   N7        1.0  0.27404  0.30767  0.91481  1.0000
  C   C95       1.0  0.27645  0.27935  0.92175  1.0000
  C   C96       1.0  0.26018  0.31743  0.88719  1.0000
  C   C97       1.0  0.26409  0.26005  0.90186  1.0000
  C   C98       1.0  0.24771  0.29872  0.86650  1.0000
  S   S36       1.0  0.18990  0.36425  0.98975  1.0000
  H   H92       1.0  0.23292  0.20956  0.51630  1.0000
  C   C99       1.0  0.09862  0.43310  0.97499  1.0000
  C   C100      1.0  0.29788  0.22181  0.56652  1.0000
  N   N8        1.0  0.30246  0.19398  0.56017  1.0000
  S   S37       1.0  0.24615  0.31725  0.99948  1.0000
  S   S38       1.0  0.23637  0.44508  0.53738  1.0000
  H   H93       1.0  0.07283  0.30588  0.93936  1.0000
  H   H94       1.0  0.22566  0.26535  0.97334  1.0000
  H   H95       1.0  0.24818  0.44364  0.61719  1.0000
  H   H96       1.0  0.14294  0.43822  0.94747  1.0000
  H   H97       1.0  0.26906  0.18123  0.56586  1.0000
  H   H98       1.0  0.28817  0.16557  0.59962  1.0000
  N   N9        1.0  0.05885  0.30337  0.99447  1.0000
  N   N10       1.0  0.11878  0.42225  0.98519  1.0000
  H   H99       1.0  0.30930  0.26452  0.56141  1.0000
  C   C101      1.0  0.08218  0.43774  0.00203  1.0000
  C   C102      1.0  0.26049  0.27165  0.51221  1.0000
  C   C103      1.0  0.05865  0.31058  0.95706  1.0000
  C   C104      1.0  0.33373  0.23430  0.54240  1.0000
  H   H100      1.0  0.01420  0.47483  0.55027  1.0000
  H   H101      1.0  0.25029  0.49960  0.51097  1.0000
  C   C105      1.0  0.23028  0.50702  0.00454  1.0000
  C   C106      1.0  0.24591  0.22414  0.50941  1.0000
  S   S39       1.0  0.05793  0.37303  0.50919  1.0000
  H   H102      1.0  0.22921  0.25954  0.53553  1.0000
  H   H103      1.0  0.16877  0.50059  0.50845  1.0000
  C   C107      1.0  0.23247  0.49974  0.51048  1.0000
  C   C108      1.0  0.31627  0.02409  0.00384  1.0000
  S   S40       1.0  0.32745  0.05858  0.00431  1.0000
  H   H104      1.0  0.00807  0.34263  0.95251  1.0000
  H   H105      1.0  0.24791  0.50993  0.00455  1.0000
  C   C109      1.0  0.18492  0.49898  0.00487  1.0000
  H   H106      1.0  0.16730  0.49598  0.00521  1.0000
  C   C110      1.0  0.09345  0.57268  0.05946  1.0000
  Fe  Fe20      1.0  0.20264  0.63330  0.38399  1.0000
  S   S41       1.0  0.22298  0.61816  0.43382  1.0000
  S   S42       1.0  0.21769  0.63247  0.32504  1.0000
  Fe  Fe21      1.0  0.16362  0.64933  0.43380  1.0000
  H   H107      1.0  0.27537  0.98335  0.04056  1.0000
  S   S43       1.0  0.12883  0.66746  0.43279  1.0000
  Fe  Fe22      1.0  0.21057  0.65799  0.46174  1.0000
  H   H108      1.0  0.28814  0.61763  0.03302  1.0000
  Fe  Fe23      1.0  0.19184  0.59739  0.45458  1.0000
  S   S44       1.0  0.22996  0.68546  0.50241  1.0000
  S   S45       1.0  0.19221  0.67406  0.41084  1.0000
  S   S46       1.0  0.17252  0.61006  0.40280  1.0000
  Fe  Fe24      1.0  0.16951  0.63950  0.02782  1.0000
  C   C111      1.0  0.07881  0.60033  0.41931  1.0000
  Fe  Fe25      1.0  0.18269  0.63181  0.10993  1.0000
  S   S47       1.0  0.21856  0.62751  0.09534  1.0000
  S   S48       1.0  0.16736  0.63168  0.16859  1.0000
  Fe  Fe26      1.0  0.21273  0.66457  0.05574  1.0000
  H   H109      1.0  0.16447  0.71880  0.45465  1.0000
  Fe  Fe27      1.0  0.20758  0.59996  0.04822  1.0000
  C   C112      1.0  0.19326  0.69750  0.26495  1.0000
  S   S49       1.0  0.17722  0.67043  0.07301  1.0000
  S   S50       1.0  0.17203  0.60133  0.06579  1.0000
  N   N11       1.0  0.10535  0.57343  0.45539  1.0000
  C   C113      1.0  0.17955  0.69789  0.23360  1.0000
  C   C114      1.0  0.18889  0.69632  0.19764  1.0000
  H   H110      1.0  0.07514  0.61511  0.39652  1.0000
  C   C115      1.0  0.08715  0.66218  0.46267  1.0000
  H   H111      1.0  0.19023  0.71585  0.47857  1.0000
  H   H112      1.0  0.23350  0.70837  0.15016  1.0000
  C   C116      1.0  0.23391  0.83687  0.01323  1.0000
  S   S51       1.0  0.18245  0.55358  0.47759  1.0000
  C   C117      1.0  0.25773  0.88059  0.04236  1.0000
  C   C118      1.0  0.07146  0.65134  0.48823  1.0000
  C   C119      1.0  0.10056  0.59152  0.42609  1.0000
  H   H113      1.0  0.05423  0.65726  0.48560  1.0000
  H   H114      1.0  0.30750  0.98289  0.42701  1.0000
  H   H115      1.0  0.11585  0.64482  0.04639  1.0000
  C   C120      1.0  0.20322  0.62863  0.28229  1.0000
  C   C121      1.0  0.21529  0.62633  0.24856  1.0000
  C   C122      1.0  0.20454  0.62617  0.21356  1.0000
  C   C123      1.0  0.18156  0.62831  0.21195  1.0000
  C   C124      1.0  0.16945  0.62969  0.24574  1.0000
  C   C125      1.0  0.18020  0.62985  0.28076  1.0000
  H   H116      1.0  0.23309  0.62519  0.24950  1.0000
  H   H117      1.0  0.21405  0.62480  0.18785  1.0000
  H   H118      1.0  0.15166  0.63125  0.24479  1.0000
  H   H119      1.0  0.17071  0.63161  0.30646  1.0000
  C   C126      1.0  0.25108  0.76287  0.46441  1.0000
  C   C127      1.0  0.24139  0.73597  0.46569  1.0000
  H   H120      1.0  0.18239  0.54162  0.02518  1.0000
  C   C128      1.0  0.25706  0.85485  0.06181  1.0000
  H   H121      1.0  0.25099  0.77494  0.43834  1.0000
  H   H122      1.0  0.23399  0.72762  0.44076  1.0000
  C   C129      1.0  0.10948  0.65419  0.46553  1.0000
  H   H123      1.0  0.31925  0.81395  0.46018  1.0000
  H   H124      1.0  0.08191  0.67651  0.44036  1.0000
  H   H125      1.0  0.20846  0.69417  0.13292  1.0000
  C   C130      1.0  0.19795  0.52446  0.49620  1.0000
  H   H126      1.0  0.22672  0.69401  0.28436  1.0000
  H   H127      1.0  0.13871  0.56658  0.43721  1.0000
  C   C131      1.0  0.08267  0.64290  0.02469  1.0000
  H   H128      1.0  0.03643  0.53315  0.01877  1.0000
  H   H129      1.0  0.04513  0.59815  0.43885  1.0000
  S   S52       1.0  0.18096  0.63586  0.48652  1.0000
  H   H130      1.0  0.08826  0.57300  0.08866  1.0000
  H   H131      1.0  0.01071  0.56412  0.47099  1.0000
  H   H132      1.0  0.11364  0.59986  0.40838  1.0000
  H   H133      1.0  0.12803  0.57509  0.07205  1.0000
  C   C132      1.0  0.08902  0.56443  0.47918  1.0000
  H   H134      1.0  0.27316  0.73989  0.05915  1.0000
  H   H135      1.0  0.07501  0.64346  0.05220  1.0000
  C   C133      1.0  0.26304  0.74445  0.03481  1.0000
  N   N12       1.0  0.33382  0.77948  0.48977  1.0000
  C   C134      1.0  0.28959  0.98893  0.02373  1.0000
  S   S53       1.0  0.27415  0.80762  0.49230  1.0000
  H   H136      1.0  0.26615  0.85188  0.08775  1.0000
  C   C135      1.0  0.21604  0.69574  0.26002  1.0000
  H   H137      1.0  0.26735  0.89777  0.05301  1.0000
  C   C136      1.0  0.12223  0.57383  0.01243  1.0000
  C   C137      1.0  0.22099  0.52401  0.49720  1.0000
  H   H138      1.0  0.03772  0.53651  0.43276  1.0000
  H   H139      1.0  0.22899  0.67085  0.15281  1.0000
  C   C138      1.0  0.12828  0.56510  0.46294  1.0000
  C   C139      1.0  0.24481  0.72740  0.02764  1.0000
  H   H140      1.0  0.17804  0.69517  0.17359  1.0000
  H   H141      1.0  0.22998  0.54227  0.48751  1.0000
  H   H142      1.0  0.24253  0.69208  0.22009  1.0000
  H   H143      1.0  0.05430  0.56645  0.49290  1.0000
  H   H144      1.0  0.32505  0.78351  0.43206  1.0000
  C   C140      1.0  0.33129  0.79649  0.45524  1.0000
  C   C141      1.0  0.31809  0.76031  0.49936  1.0000
  C   C142      1.0  0.22099  0.69192  0.15546  1.0000
  C   C143      1.0  0.11578  0.57383  0.05012  1.0000
  H   H145      1.0  0.30464  0.94373  0.47414  1.0000
  H   H146      1.0  0.30417  0.75713  0.48104  1.0000
  C   C144      1.0  0.30525  0.96529  0.48332  1.0000
  H   H147      1.0  0.13329  0.62991  0.49736  1.0000
  S   S54       1.0  0.23902  0.69864  0.05896  1.0000
  N   N13       1.0  0.21128  0.69469  0.19305  1.0000
  C   C145      1.0  0.30683  0.98757  0.45663  1.0000
  H   H148      1.0  0.18624  0.69724  0.29308  1.0000
  H   H149      1.0  0.16179  0.69796  0.23717  1.0000
  C   C146      1.0  0.10580  0.64365  0.02150  1.0000
  C   C147      1.0  0.22483  0.69437  0.22364  1.0000
  C   C148      1.0  0.19343  0.52493  0.01621  1.0000
  C   C149      1.0  0.24508  0.83279  0.04718  1.0000
  C   C150      1.0  0.07782  0.57159  0.03082  1.0000
  H   H150      1.0  0.24488  0.81240  0.06143  1.0000
  H   H151      1.0  0.17232  0.74571  0.48732  1.0000
  H   H152      1.0  0.26164  0.60254  0.04390  1.0000
  C   C151      1.0  0.26839  0.76735  0.01072  1.0000
  H   H153      1.0  0.06046  0.57118  0.03825  1.0000
  H   H154      1.0  0.12980  0.71305  0.48924  1.0000
  C   C152      1.0  0.02096  0.52951  0.43603  1.0000
  C   C153      1.0  0.17273  0.72278  0.48182  1.0000
  C   C154      1.0  0.26099  0.77421  0.49637  1.0000
  C   C155      1.0  0.11613  0.63587  0.49456  1.0000
  S   S55       1.0  0.22772  0.56132  0.03082  1.0000
  C   C156      1.0  0.06200  0.59090  0.44309  1.0000
  C   C157      1.0  0.27014  0.62203  0.03440  1.0000
  C   C158      1.0  0.24667  0.88377  0.00815  1.0000
  H   H155      1.0  0.26668  0.63814  0.05609  1.0000
  C   C159      1.0  0.06712  0.57293  0.47331  1.0000
  C   C160      1.0  0.21619  0.52907  0.01627  1.0000
  C   C161      1.0  0.24161  0.71982  0.49899  1.0000
  H   H156      1.0  0.28246  0.78020  0.01667  1.0000
  H   H157      1.0  0.12953  0.54297  0.47346  1.0000
  S   S56       1.0  0.20475  0.63662  0.00766  1.0000
  H   H158      1.0  0.13538  0.57896  0.48439  1.0000
  H   H159      1.0  0.09292  0.55117  0.50343  1.0000
  H   H160      1.0  0.26949  0.67474  0.00741  1.0000
  H   H161      1.0  0.01497  0.62204  0.67220  1.0000
  S   S57       1.0  0.32493  0.88096  0.60375  1.0000
  C   C162      1.0  0.14110  0.67896  0.57158  1.0000
  Fe  Fe28      1.0  0.02206  0.61795  0.55032  1.0000
  S   S58       1.0  0.05949  0.61743  0.54924  1.0000
  C   C163      1.0  0.30428  0.99933  0.53290  1.0000
  Fe  Fe29      1.0  0.30331  0.89601  0.55610  1.0000
  H   H162      1.0  0.07331  0.57985  0.93773  1.0000
  H   H163      1.0  0.22715  0.76111  0.94761  1.0000
  Fe  Fe30      1.0  0.29191  0.83462  0.53552  1.0000
  S   S59       1.0  0.31301  0.81610  0.58164  1.0000
  Fe  Fe31      1.0  0.33622  0.85067  0.96345  1.0000
  Fe  Fe32      1.0  0.29862  0.85017  0.61797  1.0000
  S   S60       1.0  0.28472  0.84137  0.67652  1.0000
  S   S61       1.0  0.04058  0.63896  0.99781  1.0000
  S   S62       1.0  0.27570  0.86697  0.57296  1.0000
  H   H164      1.0  0.30870  0.94945  0.63753  1.0000
  C   C164      1.0  0.29933  0.93954  0.66010  1.0000
  H   H165      1.0  0.25070  0.88533  0.64361  1.0000
  H   H166      1.0  0.11101  0.68787  0.54136  1.0000
  Fe  Fe33      1.0  0.01878  0.63037  0.94790  1.0000
  C   C165      1.0  0.28041  0.92444  0.65193  1.0000
  S   S63       1.0  0.02469  0.59784  0.90372  1.0000
  S   S64       1.0  0.02157  0.64086  0.80631  1.0000
  Fe  Fe34      1.0  0.31494  0.87086  0.89013  1.0000
  S   S65       1.0  0.28193  0.87733  0.91818  1.0000
  C   C166      1.0  0.02365  0.52239  0.00409  1.0000
  H   H167      1.0  0.22181  0.88754  0.94894  1.0000
  Fe  Fe35      1.0  0.28855  0.83526  0.94746  1.0000
  S   S66       1.0  0.26076  0.80291  0.94848  1.0000
  Fe  Fe36      1.0  0.30084  0.89665  0.96542  1.0000
  S   S67       1.0  0.14476  0.64284  0.98039  1.0000
  S   S68       1.0  0.32040  0.82786  0.91605  1.0000
  Fe  Fe37      1.0  0.00858  0.62928  0.86407  1.0000
  H   H168      1.0  0.01411  0.55873  0.97052  1.0000
  H   H169      1.0  0.23981  0.60662  0.91827  1.0000
  H   H170      1.0  0.30667  0.73016  0.54089  1.0000
  H   H171      1.0  0.32093  0.95279  0.70402  1.0000
  H   H172      1.0  0.26581  0.90329  0.73905  1.0000
  C   C167      1.0  0.16390  0.68228  0.57181  1.0000
  S   S69       1.0  0.33335  0.89322  0.93545  1.0000
  H   H173      1.0  0.23433  0.91071  0.66968  1.0000
  N   N14       1.0  0.16190  0.70742  0.51268  1.0000
  H   H174      1.0  0.32520  0.96120  0.95973  1.0000
  C   C168      1.0  0.29925  0.96876  0.99991  1.0000
  C   C169      1.0  0.22437  0.86505  0.95723  1.0000
  C   C170      1.0  0.24638  0.65042  0.92812  1.0000
  C   C171      1.0  0.31944  0.74498  0.53322  1.0000
  C   C172      1.0  0.10258  0.64141  0.95393  1.0000
  C   C173      1.0  0.07949  0.64044  0.95713  1.0000
  C   C174      1.0  0.24643  0.62175  0.93753  1.0000
  H   H175      1.0  0.11024  0.64092  0.92641  1.0000
  H   H176      1.0  0.06949  0.63922  0.93218  1.0000
  C   C175      1.0  0.29736  0.85091  0.71915  1.0000
  C   C176      1.0  0.31725  0.86533  0.71961  1.0000
  H   H177      1.0  0.24562  0.87903  0.69214  1.0000
  C   C177      1.0  0.31501  0.86868  0.78817  1.0000
  C   C178      1.0  0.29528  0.85390  0.78776  1.0000
  C   C179      1.0  0.28650  0.84512  0.75339  1.0000
  C   C180      1.0  0.29379  0.92871  0.72592  1.0000
  C   C181      1.0  0.25552  0.77354  0.97906  1.0000
  H   H178      1.0  0.28666  0.84950  0.81386  1.0000
  H   H179      1.0  0.27111  0.83394  0.75333  1.0000
  C   C182      1.0  0.32599  0.00387  0.98017  1.0000
  C   C183      1.0  0.06764  0.56981  0.96446  1.0000
  C   C184      1.0  0.07817  0.63280  0.51707  1.0000
  H   H180      1.0  0.26857  0.76645  0.55463  1.0000
  C   C185      1.0  0.12875  0.69053  0.54203  1.0000
  C   C186      1.0  0.01195  0.62161  0.76800  1.0000
  H   H181      1.0  0.11132  0.57316  0.95528  1.0000
  H   H182      1.0  0.03044  0.64585  0.72731  1.0000
  C   C187      1.0  0.11582  0.64288  0.98604  1.0000
  H   H183      1.0  0.13298  0.66736  0.59413  1.0000
  H   H184      1.0  0.17373  0.67342  0.59462  1.0000
  H   H185      1.0  0.25445  0.59039  0.97962  1.0000
  C   C188      1.0  0.01103  0.53682  0.97684  1.0000
  H   H186      1.0  0.10588  0.61125  0.54280  1.0000
  C   C189      1.0  0.25149  0.73119  0.53098  1.0000
  C   C190      1.0  0.01861  0.62927  0.73147  1.0000
  N   N15       1.0  0.26869  0.91145  0.68006  1.0000
  H   H187      1.0  0.01000  0.68666  0.98697  1.0000
  H   H188      1.0  0.20806  0.85479  0.95740  1.0000
  H   H189      1.0  0.19178  0.69958  0.54269  1.0000
  C   C191      1.0  0.24874  0.89605  0.67097  1.0000
  C   C192      1.0  0.23729  0.75650  0.97192  1.0000
  H   H190      1.0  0.25496  0.69192  0.94640  1.0000
  C   C193      1.0  0.25462  0.61269  0.97244  1.0000
  C   C194      1.0  0.30610  0.94152  0.69734  1.0000
  S   S70       1.0  0.30480  0.85506  0.99681  1.0000
  C   C195      1.0  0.30372  0.97108  0.52166  1.0000
  C   C196      1.0  0.26105  0.75816  0.52976  1.0000
  H   H191      1.0  0.27530  0.92300  0.62286  1.0000
  C   C197      1.0  0.27496  0.91378  0.71673  1.0000
  S   S71       1.0  0.31791  0.86536  0.51479  1.0000
  N   N16       1.0  0.08428  0.57175  0.99392  1.0000
  C   C198      1.0  0.33702  0.74944  0.55737  1.0000
  S   S72       1.0  0.30056  0.94414  0.55673  1.0000
  H   H192      1.0  0.23975  0.65780  0.90140  1.0000
  Fe  Fe38      1.0  0.33766  0.84865  0.56358  1.0000
  C   C199      1.0  0.31761  0.97637  0.97827  1.0000
  H   H193      1.0  0.25177  0.71900  0.55696  1.0000
  S   S73       1.0  0.32605  0.88187  0.83028  1.0000
  H   H194      1.0  0.29910  0.92963  0.75496  1.0000
  C   C200      1.0  0.32598  0.87423  0.75396  1.0000
  S   S74       1.0  0.28756  0.93462  0.99776  1.0000
  H   H195      1.0  0.05221  0.58110  0.97271  1.0000
  C   C201      1.0  0.25486  0.66955  0.95333  1.0000
  C   C202      1.0  0.10616  0.57262  0.98451  1.0000
  H   H196      1.0  0.32577  0.86996  0.69350  1.0000
  N   N17       1.0  0.26214  0.63173  0.99754  1.0000
  C   C203      1.0  0.13949  0.70473  0.51259  1.0000
  H   H197      1.0  0.23498  0.85483  0.93564  1.0000
  H   H198      1.0  0.06380  0.54740  0.95949  1.0000
  C   C204      1.0  0.26293  0.65973  0.98796  1.0000
  C   C205      1.0  0.17406  0.69696  0.54217  1.0000
  C   C206      1.0  0.10058  0.62544  0.52038  1.0000
  C   C207      1.0  0.00982  0.61585  0.70019  1.0000
  H   H199      1.0  0.33806  0.73812  0.58407  1.0000
  H   H200      1.0  0.24792  0.90357  0.99264  1.0000
  H   H201      1.0  0.21787  0.72075  0.99000  1.0000
  S   S75       1.0  0.00976  0.57490  0.56684  1.0000
  C   C208      1.0  0.06947  0.64113  0.99256  1.0000
  H   H202      1.0  0.30306  0.00413  0.56244  1.0000
  C   C209      1.0  0.23198  0.73355  0.99594  1.0000
  N   N18       1.0  0.23488  0.86207  0.99410  1.0000
  H   H203      1.0  0.22516  0.81937  0.00147  1.0000
  H   H204      1.0  0.01216  0.51180  0.53661  1.0000
  H   H205      1.0  0.34001  0.00958  0.96292  1.0000
  H   H206      1.0  0.13952  0.57552  0.00478  1.0000
  S   S76       1.0  0.63691  0.18443  0.43121  1.0000
  H   H207      1.0  0.35139  0.16090  0.25322  1.0000
  H   H208      1.0  0.35859  0.09047  0.31336  1.0000
  S   S77       1.0  0.38427  0.15518  0.07304  1.0000
  C   C210      1.0  0.61878  0.15297  0.03354  1.0000
  H   H209      1.0  0.62979  0.15293  0.05733  1.0000
  H   H210      1.0  0.58980  0.14488  0.06724  1.0000
  H   H211      1.0  0.45533  0.14111  0.01083  1.0000
  N   N19       1.0  0.46641  0.20311  0.03573  1.0000
  C   C211      1.0  0.59662  0.17843  0.46559  1.0000
  H   H212      1.0  0.58986  0.10598  0.43962  1.0000
  H   H213      1.0  0.42803  0.13371  0.06182  1.0000
  H   H214      1.0  0.40880  0.02113  0.00948  1.0000
  C   C212      1.0  0.60088  0.10673  0.46341  1.0000
  N   N20       1.0  0.67111  0.21017  0.30695  1.0000
  C   C213      1.0  0.61925  0.18241  0.47080  1.0000
  C   C214      1.0  0.51273  0.04234  0.00849  1.0000
  C   C215      1.0  0.65970  0.20988  0.27390  1.0000
  S   S78       1.0  0.47291  0.14588  0.48752  1.0000
  C   C216      1.0  0.59612  0.14845  0.03909  1.0000
  C   C217      1.0  0.40670  0.14656  0.47135  1.0000
  C   C218      1.0  0.42963  0.14826  0.46566  1.0000
  H   H215      1.0  0.39560  0.14844  0.44773  1.0000
  H   H216      1.0  0.43610  0.15147  0.43755  1.0000
  H   H217      1.0  0.62972  0.11555  0.42969  1.0000
  H   H218      1.0  0.51720  0.15800  0.06560  1.0000
  S   S79       1.0  0.34609  0.10582  0.42143  1.0000
  C   C219      1.0  0.62963  0.06294  0.06083  1.0000
  Fe  Fe39      1.0  0.34433  0.13491  0.47025  1.0000
  C   C220      1.0  0.41409  0.07464  0.50446  1.0000
  C   C221      1.0  0.48501  0.20302  0.01376  1.0000
  H   H219      1.0  0.66474  0.06000  0.05370  1.0000
  C   C222      1.0  0.42327  0.14520  0.03653  1.0000
  C   C223      1.0  0.42759  0.07923  0.47301  1.0000
  H   H220      1.0  0.59022  0.17661  0.43747  1.0000
  H   H221      1.0  0.64170  0.20394  0.33998  1.0000
  C   C224      1.0  0.67051  0.21453  0.23955  1.0000
  H   H222      1.0  0.45681  0.09927  0.42488  1.0000
  H   H223      1.0  0.53680  0.03571  0.05227  1.0000
  C   C225      1.0  0.46393  0.08199  0.44272  1.0000
  N   N21       1.0  0.45001  0.07673  0.47583  1.0000
  H   H224      1.0  0.62989  0.05343  0.08878  1.0000
  C   C226      1.0  0.52263  0.02727  0.03836  1.0000
  C   C227      1.0  0.44421  0.14556  0.49609  1.0000
  Fe  Fe40      1.0  0.67290  0.17346  0.43940  1.0000
  H   H225      1.0  0.45097  0.18754  0.08579  1.0000
  H   H226      1.0  0.46580  0.06249  0.42621  1.0000
  C   C228      1.0  0.40186  0.15654  0.03350  1.0000
  Fe  Fe41      1.0  0.34810  0.14519  0.06734  1.0000
  H   H227      1.0  0.66567  0.14531  0.24977  1.0000
  C   C229      1.0  0.50358  0.18700  0.02438  1.0000
  H   H228      1.0  0.65447  0.11780  0.48474  1.0000
  H   H229      1.0  0.66519  0.18262  0.35337  1.0000
  H   H230      1.0  0.66172  0.21289  0.21322  1.0000
  H   H231      1.0  0.36916  0.09467  0.24626  1.0000
  H   H232      1.0  0.56473  0.17415  0.49222  1.0000
  C   C230      1.0  0.34843  0.08083  0.29230  1.0000
  C   C231      1.0  0.65994  0.20380  0.34269  1.0000
  H   H233      1.0  0.64229  0.20514  0.27377  1.0000
  C   C232      1.0  0.44745  0.22102  0.02513  1.0000
  C   C233      1.0  0.50297  0.17083  0.05745  1.0000
  H   H234      1.0  0.48053  0.08921  0.45109  1.0000
  H   H235      1.0  0.42005  0.08584  0.44669  1.0000
  C   C234      1.0  0.63712  0.11350  0.48874  1.0000
  C   C235      1.0  0.48394  0.17101  0.07966  1.0000
  C   C236      1.0  0.46577  0.18759  0.06849  1.0000
  S   S80       1.0  0.55348  0.14148  0.01646  1.0000
  C   C237      1.0  0.64933  0.06686  0.04091  1.0000
  H   H236      1.0  0.39637  0.07794  0.50253  1.0000
  H   H237      1.0  0.66398  0.21963  0.36409  1.0000
  C   C238      1.0  0.58218  0.17688  0.49660  1.0000
  H   H238      1.0  0.48326  0.15830  0.10526  1.0000
  H   H239      1.0  0.34464  0.07560  0.19738  1.0000
  H   H240      1.0  0.37343  0.04722  0.02048  1.0000
  H   H241      1.0  0.43173  0.21143  0.03471  1.0000
  C   C239      1.0  0.62323  0.11198  0.45783  1.0000
  C   C240      1.0  0.58166  0.14823  0.00843  1.0000
  H   H242      1.0  0.44895  0.24210  0.03771  1.0000
  C   C241      1.0  0.59273  0.10317  0.50002  1.0000
  H   H243      1.0  0.59431  0.06911  0.05988  1.0000
  C   C242      1.0  0.60971  0.07161  0.04460  1.0000
  H   H244      1.0  0.57531  0.09926  0.50421  1.0000
  C   C243      1.0  0.35446  0.08335  0.25439  1.0000
  C   C244      1.0  0.43877  0.14929  0.00754  1.0000
  C   C245      1.0  0.60970  0.08378  0.00865  1.0000
  H   H245      1.0  0.51832  0.18677  0.00691  1.0000
  C   C246      1.0  0.34071  0.07264  0.22699  1.0000
  Fe  Fe42      1.0  0.49696  0.13830  0.53528  1.0000
  S   S81       1.0  0.49352  0.10153  0.57502  1.0000
  C   C247      1.0  0.40110  0.09672  0.96973  1.0000
  Fe  Fe43      1.0  0.54146  0.15461  0.56833  1.0000
  S   S82       1.0  0.54108  0.11930  0.61089  1.0000
  S   S83       1.0  0.57228  0.18028  0.57226  1.0000
  Fe  Fe44      1.0  0.52946  0.09344  0.56324  1.0000
  H   H246      1.0  0.59431  0.09078  0.99588  1.0000
  Fe  Fe45      1.0  0.50549  0.13097  0.61899  1.0000
  S   S84       1.0  0.48746  0.13517  0.67442  1.0000
  C   C248      1.0  0.43827  0.09501  0.94171  1.0000
  S   S85       1.0  0.50650  0.16870  0.57989  1.0000
  Fe  Fe46      1.0  0.52165  0.12991  0.88416  1.0000
  S   S86       1.0  0.51895  0.16581  0.92467  1.0000
  S   S87       1.0  0.53945  0.13289  0.82817  1.0000
  Fe  Fe47      1.0  0.50016  0.08897  0.93866  1.0000
  S   S88       1.0  0.49641  0.12075  0.98367  1.0000
  S   S89       1.0  0.48472  0.04704  0.94849  1.0000
  Fe  Fe48      1.0  0.48492  0.14947  0.93724  1.0000
  S   S90       1.0  0.45333  0.17524  0.94209  1.0000
  Fe  Fe49      1.0  0.53070  0.13373  0.96765  1.0000
  H   H247      1.0  0.50252  0.04270  0.57242  1.0000
  S   S91       1.0  0.48665  0.11675  0.89266  1.0000
  S   S92       1.0  0.53553  0.09877  0.92673  1.0000
  H   H248      1.0  0.37950  0.18075  0.99853  1.0000
  C   C249      1.0  0.58998  0.15279  0.97214  1.0000
  C   C250      1.0  0.61256  0.15783  0.96667  1.0000
  H   H249      1.0  0.62961  0.09795  0.96222  1.0000
  H   H250      1.0  0.54011  0.18620  0.76646  1.0000
  H   H251      1.0  0.57899  0.15264  0.94832  1.0000
  H   H252      1.0  0.61884  0.16158  0.93853  1.0000
  C   C251      1.0  0.43320  0.16556  0.97577  1.0000
  H   H253      1.0  0.47725  0.06608  0.51106  1.0000
  C   C252      1.0  0.41162  0.17637  0.97231  1.0000
  C   C253      1.0  0.62838  0.11017  0.52495  1.0000
  H   H254      1.0  0.44630  0.22349  0.99405  1.0000
  C   C254      1.0  0.62972  0.08776  0.98976  1.0000
  H   H255      1.0  0.40719  0.18910  0.94790  1.0000
  H   H256      1.0  0.39882  0.11802  0.95881  1.0000
  C   C255      1.0  0.42368  0.06708  0.53878  1.0000
  C   C256      1.0  0.50170  0.13163  0.71733  1.0000
  C   C257      1.0  0.52409  0.12429  0.71845  1.0000
  C   C258      1.0  0.53530  0.12359  0.75291  1.0000
  C   C259      1.0  0.52422  0.13023  0.78642  1.0000
  C   C260      1.0  0.50171  0.13688  0.78543  1.0000
  C   C261      1.0  0.49049  0.13758  0.75096  1.0000
  H   H257      1.0  0.53284  0.11950  0.69279  1.0000
  H   H258      1.0  0.55272  0.11840  0.75355  1.0000
  H   H259      1.0  0.49305  0.14219  0.81105  1.0000
  H   H260      1.0  0.47314  0.14317  0.75030  1.0000
  H   H261      1.0  0.45228  0.09921  0.96056  1.0000
  H   H262      1.0  0.67313  0.06563  0.96677  1.0000
  H   H263      1.0  0.51929  0.06240  0.99947  1.0000
  H   H264      1.0  0.44420  0.08060  0.91938  1.0000
  C   C262      1.0  0.61282  0.18418  0.53821  1.0000
  H   H265      1.0  0.43311  0.11523  0.92789  1.0000
  C   C263      1.0  0.39822  0.14263  0.50765  1.0000
  C   C264      1.0  0.44651  0.06374  0.54111  1.0000
  C   C265      1.0  0.39589  0.17158  0.00088  1.0000
  C   C266      1.0  0.59019  0.18018  0.53298  1.0000
  C   C267      1.0  0.43571  0.14170  0.53236  1.0000
  C   C268      1.0  0.41279  0.14049  0.53812  1.0000
  H   H266      1.0  0.44679  0.13963  0.55599  1.0000
  H   H267      1.0  0.40634  0.13750  0.56630  1.0000
  H   H268      1.0  0.48544  0.21500  0.98751  1.0000
  C   C269      1.0  0.59742  0.10263  0.56838  1.0000
  C   C270      1.0  0.62735  0.18494  0.50728  1.0000
  H   H269      1.0  0.45419  0.05791  0.56764  1.0000
  C   C271      1.0  0.62705  0.15783  0.99729  1.0000
  S   S93       1.0  0.53219  0.12795  0.52005  1.0000
  H   H270      1.0  0.36865  0.09589  0.99534  1.0000
  H   H271      1.0  0.58277  0.08888  0.56936  1.0000
  S   S94       1.0  0.65538  0.16339  0.98897  1.0000
  N   N22       1.0  0.52010  0.20229  0.67996  1.0000
  C   C272      1.0  0.53848  0.19659  0.65874  1.0000
  C   C273      1.0  0.52052  0.19840  0.71814  1.0000
  C   C274      1.0  0.55804  0.18727  0.67577  1.0000
  C   C275      1.0  0.53993  0.18968  0.73619  1.0000
  C   C276      1.0  0.55875  0.18390  0.71478  1.0000
  C   C277      1.0  0.49954  0.21144  0.66171  1.0000
  H   H272      1.0  0.53815  0.19910  0.62839  1.0000
  H   H273      1.0  0.50567  0.20146  0.73482  1.0000
  H   H274      1.0  0.57244  0.18250  0.65860  1.0000
  H   H275      1.0  0.57367  0.17623  0.72842  1.0000
  H   H276      1.0  0.48887  0.19299  0.65753  1.0000
  H   H277      1.0  0.49040  0.22693  0.67916  1.0000
  H   H278      1.0  0.50271  0.22160  0.63387  1.0000
  H   H279      1.0  0.59237  0.12389  0.57813  1.0000
  H   H280      1.0  0.61911  0.18697  0.56624  1.0000
  S   S95       1.0  0.54692  0.05325  0.54745  1.0000
  H   H281      1.0  0.34574  0.25007  0.53468  1.0000
  H   H282      1.0  0.63925  0.11214  0.54878  1.0000
  C   C278      1.0  0.52786  0.02782  0.53484  1.0000
  N   N23       1.0  0.42035  0.08209  0.96335  1.0000
  C   C279      1.0  0.66994  0.08368  0.98558  1.0000
  C   C280      1.0  0.50674  0.02797  0.55070  1.0000
  H   H283      1.0  0.53429  0.01041  0.95339  1.0000
  H   H284      1.0  0.41344  0.06420  0.56359  1.0000
  C   C281      1.0  0.38400  0.08440  0.99046  1.0000
  H   H285      1.0  0.66945  0.10367  0.96881  1.0000
  C   C282      1.0  0.42330  0.05540  0.97774  1.0000
  H   H286      1.0  0.43873  0.04401  0.97308  1.0000
  H   H287      1.0  0.60969  0.09329  0.58818  1.0000
  N   N24       1.0  0.60647  0.10484  0.53019  1.0000
  H   H288      1.0  0.35422  0.19915  0.52510  1.0000
  S   S96       1.0  0.36966  0.13952  0.51626  1.0000
  H   H289      1.0  0.64469  0.18841  0.51159  1.0000
  C   C283      1.0  0.49513  0.03069  0.98920  1.0000
  C   C284      1.0  0.45950  0.06850  0.50907  1.0000
  C   C285      1.0  0.40650  0.04240  0.99846  1.0000
  C   C286      1.0  0.38672  0.05703  0.00471  1.0000
  N   N25       1.0  0.64921  0.07970  0.00617  1.0000
  Fe  Fe50      1.0  0.49699  0.91719  0.37458  1.0000
  S   S97       1.0  0.49894  0.87121  0.38905  1.0000
  S   S98       1.0  0.50232  0.93620  0.31656  1.0000
  Fe  Fe51      1.0  0.48842  0.93270  0.45658  1.0000
  S   S99       1.0  0.49032  0.88778  0.47728  1.0000
  S   S100      1.0  0.65259  0.87430  0.01910  1.0000
  Fe  Fe52      1.0  0.51963  0.88453  0.43797  1.0000
  S   S101      1.0  0.55366  0.86424  0.44344  1.0000
  Fe  Fe53      1.0  0.46960  0.87938  0.42666  1.0000
  S   S102      1.0  0.43697  0.85712  0.42302  1.0000
  S   S103      1.0  0.51912  0.93026  0.42122  1.0000
  S   S104      1.0  0.46628  0.92456  0.40821  1.0000
  Fe  Fe54      1.0  0.52647  0.87907  0.04063  1.0000
  S   S105      1.0  0.53702  0.89709  0.09544  1.0000
  H   H290      1.0  0.55565  0.91409  0.22074  1.0000
  Fe  Fe55      1.0  0.47888  0.90173  0.04843  1.0000
  S   S106      1.0  0.48596  0.92143  0.10385  1.0000
  H   H291      1.0  0.54778  0.82567  0.24310  1.0000
  Fe  Fe56      1.0  0.51744  0.93525  0.07707  1.0000
  S   S107      1.0  0.52975  0.97935  0.08082  1.0000
  Fe  Fe57      1.0  0.50455  0.88141  0.11713  1.0000
  S   S108      1.0  0.50097  0.85919  0.17335  1.0000
  C   C287      1.0  0.55116  0.88478  0.34456  1.0000
  S   S109      1.0  0.49508  0.86018  0.06350  1.0000
  H   H292      1.0  0.45272  0.90873  0.22078  1.0000
  H   H293      1.0  0.53970  0.90260  0.35082  1.0000
  H   H294      1.0  0.55187  0.86539  0.19745  1.0000
  H   H295      1.0  0.55460  0.92264  0.28918  1.0000
  C   C288      1.0  0.57067  0.93825  0.01746  1.0000
  H   H296      1.0  0.54989  0.00764  0.49561  1.0000
  H   H297      1.0  0.61652  0.87561  0.07055  1.0000
  H   H298      1.0  0.57634  0.86961  0.06314  1.0000
  H   H299      1.0  0.54749  0.83487  0.31143  1.0000
  C   C289      1.0  0.51485  0.00067  0.04893  1.0000
  H   H300      1.0  0.41391  0.93089  0.08467  1.0000
  C   C290      1.0  0.62406  0.87039  0.01185  1.0000
  S   S110      1.0  0.50930  0.91856  0.02066  1.0000
  C   C291      1.0  0.49991  0.88107  0.21269  1.0000
  C   C292      1.0  0.49587  0.86922  0.24839  1.0000
  C   C293      1.0  0.49590  0.88608  0.28041  1.0000
  C   C294      1.0  0.50002  0.91488  0.27687  1.0000
  C   C295      1.0  0.50350  0.92685  0.24104  1.0000
  C   C296      1.0  0.50344  0.91000  0.20900  1.0000
  H   H301      1.0  0.49303  0.84685  0.25137  1.0000
  H   H302      1.0  0.49303  0.87669  0.30783  1.0000
  H   H303      1.0  0.50674  0.94913  0.23813  1.0000
  H   H304      1.0  0.50667  0.91932  0.18161  1.0000
  C   C297      1.0  0.41976  0.85408  0.46292  1.0000
  H   H305      1.0  0.52238  0.97310  0.47541  1.0000
  H   H306      1.0  0.44265  0.84679  0.13647  1.0000
  C   C298      1.0  0.55233  0.86919  0.22745  1.0000
  C   C299      1.0  0.58702  0.86877  0.03880  1.0000
  H   H307      1.0  0.42885  0.88428  0.09317  1.0000
  C   C300      1.0  0.57193  0.87208  0.48025  1.0000
  C   C301      1.0  0.59434  0.86450  0.47680  1.0000
  C   C302      1.0  0.36557  0.93655  0.49422  1.0000
  H   H308      1.0  0.56794  0.89002  0.35415  1.0000
  H   H309      1.0  0.60010  0.85389  0.45186  1.0000
  H   H310      1.0  0.59099  0.93052  0.46558  1.0000
  H   H311      1.0  0.36349  0.79933  0.50601  1.0000
  H   H312      1.0  0.34721  0.80560  0.44583  1.0000
  C   C303      1.0  0.64591  0.94022  0.47503  1.0000
  C   C304      1.0  0.42853  0.84941  0.49875  1.0000
  H   H313      1.0  0.45409  0.85888  0.20094  1.0000
  H   H314      1.0  0.43225  0.94632  0.47997  1.0000
  H   H315      1.0  0.36499  0.85307  0.48585  1.0000
  C   C305      1.0  0.42500  0.93931  0.10642  1.0000
  H   H316      1.0  0.43930  0.94584  0.17636  1.0000
  C   C306      1.0  0.40939  0.84373  0.01167  1.0000
  C   C307      1.0  0.43930  0.92403  0.16787  1.0000
  H   H317      1.0  0.44621  0.84816  0.50238  1.0000
  N   N26       1.0  0.40407  0.92456  0.49988  1.0000
  C   C308      1.0  0.44766  0.87518  0.18201  1.0000
  S   S111      1.0  0.44595  0.91409  0.02282  1.0000
  H   H318      1.0  0.43950  0.94849  0.09173  1.0000
  C   C309      1.0  0.38264  0.85189  0.48958  1.0000
  H   H319      1.0  0.62662  0.86478  0.50228  1.0000
  C   C310      1.0  0.38700  0.93590  0.47941  1.0000
  H   H320      1.0  0.54556  0.86629  0.36145  1.0000
  C   C311      1.0  0.55441  0.89652  0.24052  1.0000
  H   H321      1.0  0.43841  0.91266  0.50149  1.0000
  N   N27       1.0  0.43235  0.91706  0.13278  1.0000
  S   S112      1.0  0.47646  0.96593  0.49633  1.0000
  N   N28       1.0  0.55135  0.87923  0.30419  1.0000
  C   C312      1.0  0.54955  0.85230  0.29166  1.0000
  C   C313      1.0  0.55380  0.90121  0.27922  1.0000
  C   C314      1.0  0.54988  0.84689  0.25312  1.0000
  C   C315      1.0  0.44688  0.90318  0.19312  1.0000
  H   H322      1.0  0.41576  0.95623  0.12117  1.0000
  C   C316      1.0  0.60982  0.87205  0.04297  1.0000
  H   H323      1.0  0.38995  0.85902  0.43075  1.0000
  C   C317      1.0  0.43354  0.88970  0.12141  1.0000
  C   C318      1.0  0.44122  0.86837  0.14581  1.0000
  C   C319      1.0  0.49634  0.99002  0.03121  1.0000
  C   C320      1.0  0.39678  0.85537  0.45845  1.0000
  C   C321      1.0  0.62620  0.93119  0.45967  1.0000
  H   H324      1.0  0.48968  0.97007  0.04019  1.0000
  H   H325      1.0  0.62644  0.91852  0.43462  1.0000
  C   C322      1.0  0.42711  0.86155  0.01894  1.0000
  C   C323      1.0  0.60620  0.93805  0.47737  1.0000
  H   H326      1.0  0.38993  0.94443  0.45137  1.0000
  H   H327      1.0  0.42630  0.91412  0.45583  1.0000
  H   H328      1.0  0.44292  0.85272  0.02731  1.0000
  H   H329      1.0  0.66163  0.93499  0.46184  1.0000
  C   C324      1.0  0.42433  0.89072  0.01482  1.0000
  H   H330      1.0  0.57167  0.95345  0.04077  1.0000
  H   H331      1.0  0.35203  0.94565  0.47805  1.0000
  C   C325      1.0  0.51801  0.98824  0.49649  1.0000
  H   H332      1.0  0.56250  0.91926  0.02911  1.0000
  H   H333      1.0  0.41164  0.82114  0.01443  1.0000
  C   C326      1.0  0.42632  0.92443  0.48360  1.0000
  C   C327      1.0  0.60939  0.87055  0.50541  1.0000
  H   H334      1.0  0.55625  0.99140  0.00681  1.0000
  H   H335      1.0  0.58762  0.93219  0.00828  1.0000
  S   S113      1.0  0.62047  0.89284  0.57415  1.0000
  C   C328      1.0  0.53302  0.97056  0.92576  1.0000
  H   H336      1.0  0.34126  0.88564  0.75397  1.0000
  C   C329      1.0  0.35302  0.76902  0.54734  1.0000
  N   N29       1.0  0.55800  0.94970  0.98561  1.0000
  H   H337      1.0  0.62501  0.97331  0.55122  1.0000
  C   C330      1.0  0.59244  0.86200  0.97220  1.0000
  C   C331      1.0  0.63829  0.88009  0.74531  1.0000
  H   H338      1.0  0.63630  0.87359  0.77452  1.0000
  H   H339      1.0  0.58577  0.85793  0.94476  1.0000
  H   H340      1.0  0.62619  0.86407  0.95222  1.0000
  C   C332      1.0  0.62519  0.96182  0.52519  1.0000
  H   H341      1.0  0.39955  0.92512  0.89116  1.0000
  C   C333      1.0  0.37920  0.91378  0.55075  1.0000
  H   H342      1.0  0.41391  0.90449  0.55139  1.0000
  C   C334      1.0  0.53361  0.00770  0.50810  1.0000
  H   H343      1.0  0.66186  0.93046  0.69186  1.0000
  Fe  Fe58      1.0  0.65765  0.88762  0.56769  1.0000
  H   H344      1.0  0.47484  0.00870  0.55140  1.0000
  C   C335      1.0  0.63236  0.87141  0.67953  1.0000
  C   C336      1.0  0.57959  0.89093  0.54179  1.0000
  H   H345      1.0  0.57063  0.95118  0.51402  1.0000
  H   H346      1.0  0.57370  0.90080  0.56717  1.0000
  C   C337      1.0  0.65247  0.91190  0.69930  1.0000
  H   H347      1.0  0.36654  0.77327  0.56618  1.0000
  H   H348      1.0  0.34514  0.92545  0.54175  1.0000
  H   H349      1.0  0.55756  0.91027  0.95801  1.0000
  C   C338      1.0  0.60206  0.88382  0.53805  1.0000
  C   C339      1.0  0.61531  0.86550  0.97632  1.0000
  H   H350      1.0  0.42655  0.89487  0.92637  1.0000
  C   C340      1.0  0.38612  0.88417  0.99669  1.0000
  H   H351      1.0  0.62573  0.85881  0.65718  1.0000
  N   N30       1.0  0.39128  0.84473  0.89930  1.0000
  C   C341      1.0  0.40935  0.85648  0.91518  1.0000
  C   C342      1.0  0.37663  0.86111  0.87924  1.0000
  C   C343      1.0  0.41262  0.88554  0.91249  1.0000
  C   C344      1.0  0.37944  0.89022  0.87583  1.0000
  C   C345      1.0  0.39745  0.90250  0.89290  1.0000
  C   C346      1.0  0.38801  0.81426  0.90243  1.0000
  H   H352      1.0  0.42100  0.84353  0.93107  1.0000
  H   H353      1.0  0.36246  0.85177  0.86616  1.0000
  C   C347      1.0  0.39143  0.84611  0.52517  1.0000
  H   H354      1.0  0.36746  0.90314  0.86053  1.0000
  H   H355      1.0  0.52289  0.97870  0.90286  1.0000
  H   H356      1.0  0.37019  0.80957  0.90552  1.0000
  H   H357      1.0  0.39474  0.80371  0.87718  1.0000
  H   H358      1.0  0.39605  0.80524  0.92806  1.0000
  H   H359      1.0  0.37628  0.90434  0.57830  1.0000
  H   H360      1.0  0.64532  0.93819  0.77293  1.0000
  C   C348      1.0  0.64380  0.89582  0.67057  1.0000
  C   C349      1.0  0.35113  0.78394  0.51325  1.0000
  H   H361      1.0  0.42130  0.84045  0.55711  1.0000
  H   H362      1.0  0.54738  0.89116  0.51595  1.0000
  C   C350      1.0  0.40045  0.91379  0.53526  1.0000
  C   C351      1.0  0.49117  0.00857  0.53906  1.0000
  C   C352      1.0  0.65786  0.92183  0.76594  1.0000
  S   S114      1.0  0.37435  0.83966  0.56457  1.0000
  H   H363      1.0  0.62093  0.84423  0.72446  1.0000
  S   S115      1.0  0.36765  0.83208  0.98809  1.0000
  C   C353      1.0  0.55245  0.93225  0.95715  1.0000
  H   H364      1.0  0.58254  0.98349  0.52915  1.0000
  C   C354      1.0  0.53936  0.98840  0.95426  1.0000
  C   C355      1.0  0.62962  0.86335  0.71716  1.0000
  C   C356      1.0  0.41439  0.84496  0.52965  1.0000
  H   H365      1.0  0.47292  0.99588  0.98648  1.0000
  N   N31       1.0  0.60591  0.95316  0.50978  1.0000
  C   C357      1.0  0.53969  0.94230  0.92703  1.0000
  N   N32       1.0  0.64966  0.90393  0.73613  1.0000
  H   H366      1.0  0.53485  0.92814  0.90511  1.0000
  S   S116      1.0  0.54953  0.86008  0.99736  1.0000
  C   C358      1.0  0.48664  0.00485  0.00111  1.0000
  H   H367      1.0  0.40150  0.92452  0.00093  1.0000
  C   C359      1.0  0.55186  0.97754  0.98427  1.0000
  H   H368      1.0  0.37040  0.89308  0.98818  1.0000
  C   C360      1.0  0.58500  0.96027  0.52847  1.0000
  C   C361      1.0  0.36170  0.92531  0.53007  1.0000
  H   H369      1.0  0.66179  0.90923  0.79177  1.0000
  C   C362      1.0  0.64542  0.95565  0.50796  1.0000
  H   H370      1.0  0.64601  0.90213  0.64144  1.0000
  C   C363      1.0  0.49669  0.98890  0.51165  1.0000
  C   C364      1.0  0.56463  0.88550  0.51280  1.0000
  C   C365      1.0  0.57823  0.86372  0.00342  1.0000
  H   H371      1.0  0.58507  0.95170  0.55774  1.0000
  H   H372      1.0  0.66069  0.96245  0.52025  1.0000
  C   C366      1.0  0.40378  0.90195  0.00397  1.0000
  C   C367      1.0  0.38892  0.85499  0.00015  1.0000
  H   H373      1.0  0.67337  0.93226  0.75702  1.0000
  S   S117      1.0  0.71248  0.13708  0.01261  1.0000
  C   C368      1.0  0.68331  0.14757  0.25199  1.0000
  N   N33       1.0  0.86013  0.31156  0.49347  1.0000
  Fe  Fe59      1.0  0.71268  0.15620  0.39349  1.0000
  S   S118      1.0  0.73249  0.14483  0.44545  1.0000
  S   S119      1.0  0.72879  0.15444  0.33546  1.0000
  Fe  Fe60      1.0  0.70154  0.12438  0.46728  1.0000
  N   N34       1.0  0.76954  0.42407  0.47714  1.0000
  Fe  Fe61      1.0  0.71933  0.18570  0.46883  1.0000
  H   H374      1.0  0.72238  0.22184  0.27287  1.0000
  C   C369      1.0  0.75406  0.40874  0.49627  1.0000
  S   S120      1.0  0.70135  0.19820  0.41570  1.0000
  Fe  Fe62      1.0  0.98722  0.40340  0.44298  1.0000
  C   C370      1.0  0.93328  0.38148  0.03926  1.0000
  S   S121      1.0  0.95175  0.41517  0.45734  1.0000
  S   S122      1.0  0.71191  0.05764  0.06118  1.0000
  Fe  Fe63      1.0  0.69641  0.15192  0.11649  1.0000
  S   S123      1.0  0.72955  0.13412  0.09961  1.0000
  C   C371      1.0  0.83512  0.31491  0.04237  1.0000
  C   C372      1.0  0.93330  0.39808  0.48853  1.0000
  Fe  Fe64      1.0  0.71071  0.10600  0.06080  1.0000
  H   H375      1.0  0.80878  0.28825  0.47693  1.0000
  Fe  Fe65      1.0  0.72830  0.16711  0.05247  1.0000
  H   H376      1.0  0.70258  0.21370  0.33273  1.0000
  S   S124      1.0  0.68217  0.15767  0.17565  1.0000
  S   S125      1.0  0.69619  0.18647  0.07169  1.0000
  Fe  Fe66      1.0  0.99401  0.38370  0.04306  1.0000
  C   C373      1.0  0.89604  0.37878  0.01392  1.0000
  S   S126      1.0  0.98770  0.42270  0.07637  1.0000
  Fe  Fe67      1.0  0.68045  0.15462  0.03473  1.0000
  S   S127      1.0  0.67768  0.12212  0.08049  1.0000
  S   S128      1.0  0.75797  0.19225  0.03028  1.0000
  C   C374      1.0  0.99641  0.38358  0.29023  1.0000
  H   H377      1.0  0.90359  0.39149  0.07017  1.0000
  C   C375      1.0  0.69330  0.21484  0.30678  1.0000
  H   H378      1.0  0.83003  0.33746  0.03998  1.0000
  S   S129      1.0  0.68299  0.13242  0.41360  1.0000
  H   H379      1.0  0.75354  0.30567  0.45319  1.0000
  H   H380      1.0  0.76916  0.10675  0.49202  1.0000
  C   C376      1.0  0.89395  0.31951  0.07214  1.0000
  H   H381      1.0  0.82443  0.50368  0.08366  1.0000
  S   S130      1.0  0.99662  0.41789  0.38451  1.0000
  H   H382      1.0  0.87819  0.32708  0.44606  1.0000
  H   H383      1.0  0.86232  0.32730  0.09757  1.0000
  C   C377      1.0  0.82435  0.29081  0.49118  1.0000
  C   C378      1.0  0.87088  0.31993  0.07270  1.0000
  S   S131      1.0  0.98663  0.40352  0.18081  1.0000
  C   C379      1.0  0.98738  0.39394  0.25644  1.0000
  H   H384      1.0  0.77999  0.41123  0.42309  1.0000
  H   H385      1.0  0.97278  0.40730  0.25705  1.0000
  C   C380      1.0  0.91171  0.40894  0.49163  1.0000
  C   C381      1.0  0.71589  0.15107  0.29108  1.0000
  C   C382      1.0  0.72865  0.15417  0.25815  1.0000
  C   C383      1.0  0.71877  0.15451  0.22235  1.0000
  C   C384      1.0  0.69595  0.15182  0.21912  1.0000
  H   H386      1.0  0.74469  0.08604  0.48745  1.0000
  C   C385      1.0  0.69320  0.14709  0.28776  1.0000
  H   H387      1.0  0.74624  0.15705  0.26036  1.0000
  H   H388      1.0  0.72872  0.15785  0.19738  1.0000
  H   H389      1.0  0.83701  0.31952  0.44949  1.0000
  H   H390      1.0  0.73863  0.25722  0.45290  1.0000
  H   H391      1.0  0.78174  0.46498  0.46402  1.0000
  H   H392      1.0  0.82836  0.30589  0.06896  1.0000
  C   C386      1.0  0.70570  0.03862  0.47011  1.0000
  H   H393      1.0  0.00162  0.46233  0.23119  1.0000
  H   H394      1.0  0.80201  0.41986  0.45485  1.0000
  C   C387      1.0  0.91033  0.38467  0.04356  1.0000
  H   H395      1.0  0.98850  0.38855  0.31657  1.0000
  C   C388      1.0  0.76968  0.45277  0.47966  1.0000
  C   C389      1.0  0.70462  0.21953  0.27295  1.0000
  C   C390      1.0  0.69312  0.21930  0.23915  1.0000
  C   C391      1.0  0.87657  0.33036  0.47676  1.0000
  H   H396      1.0  0.90672  0.42704  0.47464  1.0000
  H   H397      1.0  0.96105  0.50340  0.44815  1.0000
  N   N35       1.0  0.85926  0.31257  0.04166  1.0000
  C   C392      1.0  0.75606  0.29188  0.47734  1.0000
  C   C393      1.0  0.76164  0.22908  0.02153  1.0000
  H   H398      1.0  0.82751  0.30352  0.01887  1.0000
  H   H399      1.0  0.87166  0.35262  0.48181  1.0000
  H   H400      1.0  0.98817  0.47533  0.41210  1.0000
  C   C394      1.0  0.74505  0.24910  0.02878  1.0000
  H   H401      1.0  0.83076  0.50891  0.45917  1.0000
  H   H402      1.0  0.70186  0.22139  0.21256  1.0000
  C   C395      1.0  0.78996  0.50941  0.07229  1.0000
  H   H403      1.0  0.94407  0.38590  0.06244  1.0000
  C   C396      1.0  0.84044  0.30835  0.47570  1.0000
  S   S132      1.0  0.86729  0.38009  0.02239  1.0000
  C   C397      1.0  0.74758  0.26432  0.47705  1.0000
  C   C398      1.0  0.99310  0.49489  0.42431  1.0000
  C   C399      1.0  0.90510  0.31171  0.03946  1.0000
  H   H404      1.0  0.78792  0.38738  0.46101  1.0000
  H   H405      1.0  0.68323  0.14420  0.31276  1.0000
  C   C400      1.0  0.78560  0.40992  0.45269  1.0000
  C   C401      1.0  0.69898  0.05081  0.50385  1.0000
  H   H406      1.0  0.92296  0.31256  0.03810  1.0000
  H   H407      1.0  0.90311  0.32642  0.09627  1.0000
  C   C402      1.0  0.99730  0.38746  0.22192  1.0000
  C   C403      1.0  0.74808  0.27770  0.01866  1.0000
  C   C404      1.0  0.71210  0.03291  0.02425  1.0000
  S   S133      1.0  0.68964  0.16441  0.49411  1.0000
  H   H408      1.0  0.70930  0.05188  0.44589  1.0000
  H   H409      1.0  0.72979  0.24251  0.04177  1.0000
  C   C405      1.0  0.87008  0.30499  0.00944  1.0000
  H   H410      1.0  0.73497  0.29286  0.02392  1.0000
  C   C406      1.0  0.99855  0.46834  0.30553  1.0000
  H   H411      1.0  0.99186  0.48672  0.28931  1.0000
  Fe  Fe68      1.0  0.00309  0.39793  0.12426  1.0000
  H   H412      1.0  0.78895  0.49046  0.05577  1.0000
  H   H413      1.0  0.97487  0.45866  0.50071  1.0000
  H   H414      1.0  0.98507  0.45329  0.31132  1.0000
  H   H415      1.0  0.00455  0.47640  0.33274  1.0000
  H   H416      1.0  0.89314  0.32672  0.48933  1.0000
  H   H417      1.0  0.75367  0.38601  0.49386  1.0000
  C   C407      1.0  0.75481  0.46677  0.50330  1.0000
  H   H418      1.0  0.75550  0.48948  0.50598  1.0000
  S   S134      1.0  0.77925  0.33615  0.50599  1.0000
  C   C408      1.0  0.89313  0.30433  0.00790  1.0000
  S   S135      1.0  0.82197  0.46108  0.50659  1.0000
  Fe  Fe69      1.0  0.80084  0.36140  0.54587  1.0000
  S   S136      1.0  0.82061  0.34851  0.59693  1.0000
  H   H419      1.0  0.77790  0.46328  0.84278  1.0000
  Fe  Fe70      1.0  0.81860  0.42283  0.54626  1.0000
  S   S137      1.0  0.83932  0.41431  0.59761  1.0000
  C   C409      1.0  0.76785  0.30164  0.50838  1.0000
  Fe  Fe71      1.0  0.84832  0.37334  0.57046  1.0000
  S   S138      1.0  0.88336  0.35610  0.56821  1.0000
  Fe  Fe72      1.0  0.81014  0.39051  0.62058  1.0000
  S   S139      1.0  0.79522  0.39720  0.67902  1.0000
  S   S140      1.0  0.78852  0.40217  0.57075  1.0000
  Fe  Fe73      1.0  0.82470  0.37416  0.89691  1.0000
  S   S141      1.0  0.78951  0.38275  0.91365  1.0000
  S   S142      1.0  0.83834  0.36669  0.83789  1.0000
  Fe  Fe74      1.0  0.84110  0.37887  0.97731  1.0000
  H   H420      1.0  0.86093  0.30010  0.98440  1.0000
  Fe  Fe75      1.0  0.79608  0.35254  0.96253  1.0000
  C   C410      1.0  0.00275  0.48021  0.99421  1.0000
  Fe  Fe76      1.0  0.80339  0.41687  0.94972  1.0000
  S   S143      1.0  0.78665  0.46031  0.95217  1.0000
  S   S144      1.0  0.83062  0.34180  0.94352  1.0000
  S   S145      1.0  0.83818  0.41022  0.92971  1.0000
  N   N36       1.0  0.98169  0.49019  0.54091  1.0000
  H   H421      1.0  0.71688  0.09070  0.61677  1.0000
  H   H422      1.0  0.80998  0.44960  0.88197  1.0000
  C   C411      1.0  0.90493  0.36991  0.97967  1.0000
  C   C412      1.0  0.73692  0.09067  0.56648  1.0000
  H   H423      1.0  0.85170  0.42556  0.74925  1.0000
  C   C413      1.0  0.74648  0.13543  0.54103  1.0000
  H   H424      1.0  0.85118  0.27110  0.57114  1.0000
  C   C414      1.0  0.82082  0.49086  0.98222  1.0000
  H   H425      1.0  0.91964  0.48764  0.56567  1.0000
  C   C415      1.0  0.78448  0.26690  0.99470  1.0000
  C   C416      1.0  0.73202  0.21473  0.94648  1.0000
  H   H426      1.0  0.73210  0.02185  0.93589  1.0000
  C   C417      1.0  0.92421  0.36216  0.53537  1.0000
  H   H427      1.0  0.89409  0.36523  0.95668  1.0000
  H   H428      1.0  0.68927  0.04231  0.56130  1.0000
  C   C418      1.0  0.94218  0.37200  0.00535  1.0000
  C   C419      1.0  0.80662  0.38557  0.72260  1.0000
  C   C420      1.0  0.79424  0.38921  0.75580  1.0000
  C   C421      1.0  0.80337  0.38263  0.79133  1.0000
  C   C422      1.0  0.82500  0.37217  0.79398  1.0000
  C   C423      1.0  0.83707  0.36755  0.76070  1.0000
  C   C424      1.0  0.82800  0.37433  0.72522  1.0000
  H   H429      1.0  0.77762  0.39770  0.75407  1.0000
  H   H430      1.0  0.79383  0.38616  0.81664  1.0000
  H   H431      1.0  0.85377  0.35931  0.76240  1.0000
  H   H432      1.0  0.83770  0.37129  0.69995  1.0000
  C   C425      1.0  0.99020  0.49460  0.96674  1.0000
  C   C426      1.0  0.97333  0.50687  0.56872  1.0000
  C   C427      1.0  0.73107  0.27220  0.93117  1.0000
  H   H433      1.0  0.90166  0.29927  0.98195  1.0000
  H   H434      1.0  0.73097  0.29489  0.92680  1.0000
  H   H435      1.0  0.86543  0.45072  0.77826  1.0000
  H   H436      1.0  0.86170  0.41468  0.79431  1.0000
  C   C428      1.0  0.89645  0.39661  0.51655  1.0000
  H   H437      1.0  0.77980  0.29056  0.56353  1.0000
  C   C429      1.0  0.84814  0.28108  0.54397  1.0000
  N   N37       1.0  0.71383  0.23054  0.95597  1.0000
  H   H438      1.0  0.97731  0.48378  0.95222  1.0000
  C   C430      1.0  0.96831  0.47215  0.52250  1.0000
  C   C431      1.0  0.79883  0.49084  0.97073  1.0000
  C   C432      1.0  0.79538  0.45717  0.79037  1.0000
  N   N38       1.0  0.83297  0.44095  0.79592  1.0000
  C   C433      1.0  0.79339  0.45733  0.82947  1.0000
  H   H439      1.0  0.92909  0.34395  0.55224  1.0000
  H   H440      1.0  0.93532  0.45693  0.51598  1.0000
  H   H441      1.0  0.79342  0.49185  0.55961  1.0000
  H   H442      1.0  0.76487  0.21488  0.92292  1.0000
  C   C434      1.0  0.75088  0.24597  0.50779  1.0000
  C   C435      1.0  0.74968  0.25625  0.92145  1.0000
  H   H443      1.0  0.76710  0.07361  0.51679  1.0000
  C   C436      1.0  0.69441  0.03313  0.53501  1.0000
  C   C437      1.0  0.92792  0.36625  0.97557  1.0000
  C   C438      1.0  0.81143  0.44952  0.85157  1.0000
  H   H444      1.0  0.73297  0.19244  0.95374  1.0000
  C   C439      1.0  0.93955  0.37462  0.51052  1.0000
  C   C440      1.0  0.71315  0.25890  0.94845  1.0000
  C   C441      1.0  0.76263  0.25577  0.53887  1.0000
  H   H445      1.0  0.78136  0.46272  0.77283  1.0000
  C   C442      1.0  0.73891  0.42203  0.52018  1.0000
  H   H446      1.0  0.68403  0.08516  0.00514  1.0000
  C   C443      1.0  0.85402  0.43272  0.77852  1.0000
  H   H447      1.0  0.93468  0.35896  0.94922  1.0000
  H   H448      1.0  0.76525  0.24189  0.56291  1.0000
  C   C444      1.0  0.95090  0.50636  0.57794  1.0000
  C   C445      1.0  0.72463  0.13281  0.59778  1.0000
  H   H449      1.0  0.76399  0.26653  0.90940  1.0000
  C   C446      1.0  0.81548  0.44911  0.77395  1.0000
  H   H450      1.0  0.71552  0.14308  0.62013  1.0000
  H   H451      1.0  0.69897  0.27153  0.95680  1.0000
  S   S146      1.0  0.74128  0.21052  0.50866  1.0000
  C   C447      1.0  0.81307  0.49686  0.50950  1.0000
  H   H452      1.0  0.73666  0.06791  0.56429  1.0000
  C   C448      1.0  0.90263  0.37312  0.53847  1.0000
  C   C449      1.0  0.77095  0.28341  0.53930  1.0000
  C   C450      1.0  0.78147  0.23828  0.00490  1.0000
  C   C451      1.0  0.72156  0.03883  0.98911  1.0000
  C   C452      1.0  0.93708  0.48835  0.55886  1.0000
  S   S147      1.0  0.76932  0.32266  0.98528  1.0000
  C   C453      1.0  0.72550  0.10348  0.59604  1.0000
  H   H453      1.0  0.72802  0.46177  0.54277  1.0000
  C   C454      1.0  0.83121  0.44130  0.83424  1.0000
  C   C455      1.0  0.75017  0.22731  0.92899  1.0000
  H   H454      1.0  0.81673  0.44840  0.74352  1.0000
  S   S148      1.0  0.80693  0.38765  0.99957  1.0000
  H   H455      1.0  0.84504  0.43463  0.85159  1.0000
  C   C456      1.0  0.86407  0.29830  0.52729  1.0000
  C   C457      1.0  0.72402  0.01732  0.96245  1.0000
  S   S149      1.0  0.82954  0.38289  0.51788  1.0000
  H   H456      1.0  0.87989  0.40524  0.51864  1.0000
  S   S150      1.0  0.69637  0.08788  0.50904  1.0000
  H   H457      1.0  0.72712  0.40965  0.53616  1.0000
  H   H458      1.0  0.67989  0.21999  0.95800  1.0000
  C   C458      1.0  0.73523  0.14892  0.57020  1.0000
  N   N39       1.0  0.74718  0.10664  0.53942  1.0000
  C   C459      1.0  0.69506  0.21745  0.97514  1.0000
  C   C460      1.0  0.00533  0.49055  0.53225  1.0000
  H   H459      1.0  0.87947  0.30129  0.54189  1.0000
  C   C461      1.0  0.79876  0.50633  0.53771  1.0000
  C   C462      1.0  0.76766  0.28681  0.00112  1.0000
  C   C463      1.0  0.73944  0.45122  0.52389  1.0000
  H   H460      1.0  0.79955  0.27337  0.98094  1.0000
  C   C464      1.0  0.94582  0.47109  0.53101  1.0000
  H   H461      1.0  0.73442  0.17177  0.57089  1.0000
  H   H462      1.0  0.83081  0.47187  0.97991  1.0000
  H   H463      1.0  0.72788  0.05960  0.98307  1.0000
  H   H464      1.0  0.75433  0.14829  0.51944  1.0000
  H   H465      1.0  0.69780  0.19450  0.98013  1.0000
  S   S151      1.0  0.97086  0.36570  0.00011  1.0000
  H   H466      1.0  0.69225  0.22716  0.00295  1.0000
  H   H467      1.0  0.99949  0.45834  0.00082  1.0000
  H   H468      1.0  0.79443  0.22302  0.99912  1.0000
  H   H469      1.0  0.81568  0.26394  0.53819  1.0000
  C   C465      1.0  0.82822  0.27720  0.52561  1.0000
  H   H470      1.0  0.95616  0.36614  0.50844  1.0000
  C   C466      1.0  0.75762  0.09264  0.50735  1.0000
  Fe  Fe77      1.0  0.79871  0.62488  0.47069  1.0000
  S   S152      1.0  0.81789  0.62218  0.41664  1.0000
  H   H471      1.0  0.76183  0.00651  0.02393  1.0000
  Fe  Fe78      1.0  0.79993  0.68985  0.47183  1.0000
  S   S153      1.0  0.82017  0.69188  0.41860  1.0000
  H   H472      1.0  0.71293  0.99982  0.44139  1.0000
  Fe  Fe79      1.0  0.79730  0.65925  0.39671  1.0000
  S   S154      1.0  0.78356  0.66856  0.33823  1.0000
  Fe  Fe80      1.0  0.83943  0.65486  0.44199  1.0000
  S   S155      1.0  0.87575  0.64685  0.43126  1.0000
  S   S156      1.0  0.77574  0.65937  0.44884  1.0000
  H   H473      1.0  0.90716  0.52849  0.01052  1.0000
  Fe  Fe81      1.0  0.81127  0.63836  0.12142  1.0000
  S   S157      1.0  0.78809  0.62834  0.07448  1.0000
  S   S158      1.0  0.81222  0.61791  0.18002  1.0000
  Fe  Fe82      1.0  0.84508  0.66338  0.06548  1.0000
  H   H474      1.0  0.70074  0.96322  0.01134  1.0000
  Fe  Fe83      1.0  0.79642  0.67213  0.05151  1.0000
  C   C467      1.0  0.77157  0.52713  0.07624  1.0000
  Fe  Fe84      1.0  0.81752  0.61294  0.04120  1.0000
  H   H475      1.0  0.74495  0.99195  0.08468  1.0000
  S   S159      1.0  0.81803  0.68253  0.10091  1.0000
  S   S160      1.0  0.83986  0.62057  0.08945  1.0000
  H   H476      1.0  0.96710  0.66749  0.07979  1.0000
  C   C468      1.0  0.89622  0.67005  0.02546  1.0000
  H   H477      1.0  0.72957  0.73715  0.02211  1.0000
  C   C469      1.0  0.89026  0.67210  0.49611  1.0000
  H   H478      1.0  0.89847  0.55072  0.43448  1.0000
  C   C470      1.0  0.74980  0.97613  0.06442  1.0000
  C   C471      1.0  0.98417  0.53547  0.46208  1.0000
  C   C472      1.0  0.90633  0.57018  0.44433  1.0000
  H   H479      1.0  0.84384  0.55618  0.09977  1.0000
  S   S161      1.0  0.88120  0.67377  0.06742  1.0000
  C   C473      1.0  0.81980  0.51605  0.48126  1.0000
  S   S162      1.0  0.82159  0.65533  0.49725  1.0000
  H   H480      1.0  0.81745  0.55869  0.45886  1.0000
  C   C474      1.0  0.83292  0.54913  0.12318  1.0000
  C   C475      1.0  0.79127  0.65356  0.29465  1.0000
  C   C476      1.0  0.80510  0.62980  0.29247  1.0000
  C   C477      1.0  0.81118  0.61907  0.25714  1.0000
  C   C478      1.0  0.80379  0.63219  0.22364  1.0000
  C   C479      1.0  0.78992  0.65590  0.22581  1.0000
  C   C480      1.0  0.78355  0.66634  0.26116  1.0000
  H   H481      1.0  0.81089  0.61949  0.31798  1.0000
  H   H482      1.0  0.82172  0.60052  0.25575  1.0000
  H   H483      1.0  0.78391  0.66603  0.20031  1.0000
  H   H484      1.0  0.77269  0.68460  0.26256  1.0000
  C   C481      1.0  0.89572  0.65640  0.46435  1.0000
  N   N40       1.0  0.81153  0.54125  0.10805  1.0000
  C   C482      1.0  0.91545  0.65326  0.02510  1.0000
  C   C483      1.0  0.70312  0.99135  0.49875  1.0000
  C   C484      1.0  0.79352  0.55864  0.11236  1.0000
  C   C485      1.0  0.75186  0.75079  0.48395  1.0000
  C   C486      1.0  0.70774  0.00906  0.46764  1.0000
  C   C487      1.0  0.81232  0.54433  0.48103  1.0000
  C   C488      1.0  0.99044  0.67505  0.03495  1.0000
  H   H485      1.0  0.87707  0.56434  0.01434  1.0000
  H   H486      1.0  0.92203  0.63552  0.43427  1.0000
  C   C489      1.0  0.91761  0.64741  0.45890  1.0000
  H   H487      1.0  0.79476  0.57801  0.12785  1.0000
  S   S163      1.0  0.82984  0.57045  0.01900  1.0000
  H   H488      1.0  0.75190  0.73445  0.46317  1.0000
  H   H489      1.0  0.95064  0.64616  0.48091  1.0000
  N   N41       1.0  0.84182  0.68301  0.30189  1.0000
  C   C490      1.0  0.82792  0.70580  0.30532  1.0000
  C   C491      1.0  0.84733  0.67313  0.26711  1.0000
  C   C492      1.0  0.81944  0.71964  0.27339  1.0000
  C   C493      1.0  0.83918  0.68649  0.23457  1.0000
  C   C494      1.0  0.82517  0.70992  0.23782  1.0000
  C   C495      1.0  0.84961  0.66818  0.33590  1.0000
  H   H490      1.0  0.82263  0.71272  0.33290  1.0000
  H   H491      1.0  0.85752  0.65433  0.26431  1.0000
  H   H492      1.0  0.80788  0.73715  0.27635  1.0000
  H   H493      1.0  0.84297  0.67803  0.20708  1.0000
  H   H494      1.0  0.81817  0.71989  0.21284  1.0000
  H   H495      1.0  0.86342  0.65325  0.32996  1.0000
  H   H496      1.0  0.85567  0.68335  0.35676  1.0000
  H   H497      1.0  0.83586  0.65617  0.34876  1.0000
  H   H498      1.0  0.86295  0.57452  0.45442  1.0000
  S   S164      1.0  0.70578  0.95423  0.49382  1.0000
  H   H499      1.0  0.75613  0.52187  0.06309  1.0000
  H   H500      1.0  0.75920  0.56605  0.09938  1.0000
  H   H501      1.0  0.90585  0.58646  0.42150  1.0000
  S   S165      1.0  0.76742  0.70048  0.03140  1.0000
  C   C496      1.0  0.93386  0.65339  0.48537  1.0000
  C   C497      1.0  0.97061  0.67939  0.05420  1.0000
  C   C498      1.0  0.80999  0.51698  0.08817  1.0000
  H   H502      1.0  0.69691  0.00079  0.05877  1.0000
  C   C499      1.0  0.73379  0.76987  0.48655  1.0000
  C   C500      1.0  0.95509  0.69871  0.03993  1.0000
  C   C501      1.0  0.70421  0.00565  0.03166  1.0000
  C   C502      1.0  0.75937  0.98434  0.03031  1.0000
  H   H503      1.0  0.74802  0.90576  0.05022  1.0000
  H   H504      1.0  0.73788  0.94117  0.09774  1.0000
  N   N42       1.0  0.89480  0.58101  0.47750  1.0000
  H   H505      1.0  0.72004  0.76795  0.46764  1.0000
  S   S166      1.0  0.96549  0.55295  0.49141  1.0000
  C   C503      1.0  0.74571  0.94770  0.07160  1.0000
  C   C504      1.0  0.75140  0.92781  0.04449  1.0000
  C   C505      1.0  0.77331  0.55190  0.09644  1.0000
  H   H506      1.0  0.84079  0.53097  0.13826  1.0000
  C   C506      1.0  0.00575  0.54500  0.45759  1.0000
  H   H507      1.0  0.92000  0.64105  0.04990  1.0000
  C   C507      1.0  0.87225  0.58214  0.47797  1.0000
  H   H508      1.0  0.93933  0.70170  0.05412  1.0000
  S   S167      1.0  0.82435  0.65559  0.01482  1.0000
  H   H509      1.0  0.92387  0.56480  0.45050  1.0000
  H   H510      1.0  0.83128  0.56665  0.14343  1.0000
  N   N43       1.0  0.76069  0.93608  0.01101  1.0000
  C   C508      1.0  0.76503  0.73691  0.01803  1.0000
  C   C509      1.0  0.74387  0.74943  0.01479  1.0000
  H   H511      1.0  0.79970  0.74398  0.01065  1.0000
  H   H512      1.0  0.87344  0.67932  0.50041  1.0000
  S   S168      1.0  0.99612  0.62541  0.50573  1.0000
  H   H513      1.0  0.00259  0.65981  0.04539  1.0000
  C   C510      1.0  0.78333  0.75319  0.00848  1.0000
  C   C511      1.0  0.97773  0.51079  0.44474  1.0000
  C   C512      1.0  0.90654  0.59157  0.50660  1.0000
  H   H514      1.0  0.92443  0.59137  0.50575  1.0000
  H   H515      1.0  0.87091  0.61871  0.00690  1.0000
  H   H516      1.0  0.96772  0.69359  0.62624  1.0000
  C   C513      1.0  0.87375  0.61295  0.97707  1.0000
  Fe  Fe85      1.0  0.69883  0.89265  0.61585  1.0000
  S   S169      1.0  0.72182  0.88941  0.56557  1.0000
  S   S170      1.0  0.71030  0.90449  0.67450  1.0000
  Fe  Fe86      1.0  0.69766  0.91900  0.53622  1.0000
  H   H517      1.0  0.75539  0.81313  0.84107  1.0000
  Fe  Fe87      1.0  0.69996  0.85409  0.54765  1.0000
  S   S171      1.0  0.71138  0.88977  0.99323  1.0000
  H   H518      1.0  0.90510  0.61336  0.55924  1.0000
  C   C514      1.0  0.73314  0.67307  0.53339  1.0000
  C   C515      1.0  0.79774  0.55371  0.50889  1.0000
  H   H519      1.0  0.90016  0.69897  0.93758  1.0000
  H   H520      1.0  0.72513  0.74059  0.55869  1.0000
  Fe  Fe88      1.0  0.97563  0.64353  0.55282  1.0000
  H   H521      1.0  0.78464  0.91522  0.97732  1.0000
  S   S172      1.0  0.96071  0.60284  0.57055  1.0000
  C   C516      1.0  0.70762  0.76254  0.90301  1.0000
  S   S173      1.0  0.75667  0.82866  0.97240  1.0000
  H   H522      1.0  0.77982  0.54161  0.55898  1.0000
  Fe  Fe89      1.0  0.69467  0.86946  0.89218  1.0000
  S   S174      1.0  0.72844  0.88394  0.90696  1.0000
  C   C517      1.0  0.69260  0.86328  0.72193  1.0000
  Fe  Fe90      1.0  0.72571  0.85504  0.95783  1.0000
  H   H523      1.0  0.71222  0.72258  0.52151  1.0000
  Fe  Fe91      1.0  0.71108  0.91724  0.94135  1.0000
  S   S175      1.0  0.72301  0.96267  0.93793  1.0000
  S   S176      1.0  0.69273  0.83877  0.94138  1.0000
  C   C518      1.0  0.76921  0.77427  0.53526  1.0000
  H   H524      1.0  0.87573  0.69908  0.99374  1.0000
  H   H525      1.0  0.78289  0.77612  0.55435  1.0000
  Fe  Fe92      1.0  0.97235  0.64496  0.91976  1.0000
  S   S177      1.0  0.94181  0.67252  0.92296  1.0000
  S   S178      1.0  0.97431  0.61378  0.87346  1.0000
  C   C519      1.0  0.71676  0.98981  0.97033  1.0000
  H   H526      1.0  0.94417  0.64036  0.99337  1.0000
  S   S179      1.0  0.70890  0.81265  0.51789  1.0000
  C   C520      1.0  0.74099  0.77762  0.00194  1.0000
  C   C521      1.0  0.99438  0.52288  0.95800  1.0000
  C   C522      1.0  0.74930  0.65168  0.53455  1.0000
  C   C523      1.0  0.76887  0.65603  0.55372  1.0000
  C   C524      1.0  0.69643  0.00358  0.53252  1.0000
  C   C525      1.0  0.97501  0.68959  0.68569  1.0000
  C   C526      1.0  0.68743  0.85203  0.75781  1.0000
  C   C527      1.0  0.92391  0.66982  0.96181  1.0000
  H   H527      1.0  0.76193  0.89351  0.99122  1.0000
  H   H528      1.0  0.78523  0.55938  0.99106  1.0000
  H   H529      1.0  0.70333  0.80081  0.87068  1.0000
  C   C528      1.0  0.92650  0.57702  0.94785  1.0000
  H   H530      1.0  0.78173  0.63986  0.55405  1.0000
  H   H531      1.0  0.69015  0.75808  0.90382  1.0000
  H   H532      1.0  0.94677  0.64935  0.62512  1.0000
  C   C529      1.0  0.70637  0.98426  0.00480  1.0000
  H   H533      1.0  0.90250  0.69133  0.54628  1.0000
  C   C530      1.0  0.75117  0.79338  0.53780  1.0000
  H   H534      1.0  0.90999  0.61595  0.93332  1.0000
  S   S180      1.0  0.94906  0.67716  0.54997  1.0000
  C   C531      1.0  0.70511  0.88767  0.71855  1.0000
  H   H535      1.0  0.98395  0.52090  0.58374  1.0000
  H   H536      1.0  0.76909  0.51600  0.96508  1.0000
  C   C532      1.0  0.69459  0.86510  0.79063  1.0000
  C   C533      1.0  0.70765  0.88899  0.78724  1.0000
  C   C534      1.0  0.71292  0.90013  0.75137  1.0000
  C   C535      1.0  0.75200  0.77541  0.90206  1.0000
  H   H537      1.0  0.93906  0.53677  0.96775  1.0000
  H   H538      1.0  0.71333  0.89925  0.81220  1.0000
  H   H539      1.0  0.72273  0.91892  0.74904  1.0000
  C   C536      1.0  0.96083  0.64933  0.71745  1.0000
  S   S181      1.0  0.97870  0.54081  0.92369  1.0000
  N   N44       1.0  0.89189  0.59228  0.97442  1.0000
  C   C537      1.0  0.75544  0.70230  0.57029  1.0000
  N   N45       1.0  0.73638  0.69801  0.55104  1.0000
  S   S182      1.0  0.98507  0.61506  0.96400  1.0000
  C   C538      1.0  0.98227  0.68333  0.75289  1.0000
  C   C539      1.0  0.95147  0.64014  0.68411  1.0000
  C   C540      1.0  0.99687  0.59990  0.77313  1.0000
  C   C541      1.0  0.74498  0.81872  0.86567  1.0000
  C   C542      1.0  0.72270  0.74441  0.92096  1.0000
  H   H540      1.0  0.94034  0.58066  0.92898  1.0000
  S   S183      1.0  0.67730  0.90483  0.92260  1.0000
  H   H541      1.0  0.94436  0.51991  0.59971  1.0000
  H   H542      1.0  0.78752  0.68557  0.58538  1.0000
  H   H543      1.0  0.71709  0.72582  0.93615  1.0000
  H   H544      1.0  0.75102  0.80957  0.55881  1.0000
  C   C543      1.0  0.76967  0.75277  0.50848  1.0000
  Fe  Fe93      1.0  0.98244  0.58443  0.52659  1.0000
  H   H545      1.0  0.77114  0.97060  0.97655  1.0000
  H   H546      1.0  0.97944  0.66831  0.77673  1.0000
  C   C544      1.0  0.90435  0.68592  0.96182  1.0000
  H   H547      1.0  0.97433  0.71463  0.92936  1.0000
  H   H548      1.0  0.98443  0.70879  0.68593  1.0000
  C   C545      1.0  0.98340  0.72456  0.95254  1.0000
  N   N46       1.0  0.73711  0.79311  0.88462  1.0000
  C   C546      1.0  0.74507  0.75066  0.92009  1.0000
  H   H549      1.0  0.68662  0.85336  0.69692  1.0000
  H   H550      1.0  0.86403  0.61522  0.56082  1.0000
  H   H551      1.0  0.75482  0.83118  0.88552  1.0000
  C   C547      1.0  0.98818  0.58636  0.74185  1.0000
  H   H552      1.0  0.95924  0.63635  0.74268  1.0000
  H   H553      1.0  0.69299  0.99027  0.55676  1.0000
  C   C548      1.0  0.71518  0.78681  0.88451  1.0000
  N   N47       1.0  0.97245  0.67377  0.71790  1.0000
  C   C549      1.0  0.90926  0.59685  0.95046  1.0000
  S   S184      1.0  0.98164  0.57906  0.66662  1.0000
  S   S185      1.0  0.00557  0.66317  0.90728  1.0000
  H   H554      1.0  0.73115  0.83244  0.85546  1.0000
  C   C550      1.0  0.90672  0.67886  0.52207  1.0000
  H   H555      1.0  0.85834  0.60392  0.96607  1.0000
  H   H556      1.0  0.00123  0.72449  0.94516  1.0000
  H   H557      1.0  0.75834  0.72232  0.58344  1.0000
  H   H558      1.0  0.72459  0.78672  0.99947  1.0000
  C   C551      1.0  0.92917  0.65290  0.99315  1.0000
  C   C552      1.0  0.96564  0.68117  0.65194  1.0000
  C   C553      1.0  0.92855  0.66934  0.51689  1.0000
  C   C554      1.0  0.71889  0.71970  0.55037  1.0000
  Fe  Fe94      1.0  0.98924  0.59762  0.60940  1.0000
  H   H559      1.0  0.76928  0.78081  0.90307  1.0000
  S   S186      1.0  0.00274  0.64021  0.59576  1.0000
  H   H560      1.0  0.75686  0.73705  0.93478  1.0000
  Fe  Fe95      1.0  0.98995  0.58520  0.91670  1.0000
  Fe  Fe96      1.0  0.67834  0.87551  0.97290  1.0000
  C   C555      1.0  0.75928  0.79370  0.99172  1.0000
  H   H561      1.0  0.74696  0.63204  0.52001  1.0000
  H   H562      1.0  0.70536  0.71376  0.56989  1.0000
  H   H563      1.0  0.94304  0.62018  0.68356  1.0000
  C   C556      1.0  0.79105  0.53456  0.53724  1.0000
  H   H564      1.0  0.71810  0.66972  0.51793  1.0000
  C   C557      1.0  0.95382  0.65628  0.65125  1.0000
  S   S187      1.0  0.67835  0.85571  0.59989  1.0000
  C   C558      1.0  0.89568  0.60397  0.53705  1.0000
  C   C559      1.0  0.87268  0.60517  0.53778  1.0000
  S   S188      1.0  0.68559  0.85194  0.83502  1.0000
  H   H565      1.0  0.87724  0.63267  0.96103  1.0000
  H   H566      1.0  0.00044  0.68502  0.74951  1.0000
  C   C560      1.0  0.77202  0.68149  0.57168  1.0000
  C   C561      1.0  0.92579  0.55234  0.96964  1.0000
  H   H567      1.0  0.97638  0.56974  0.74601  1.0000
  H   H568      1.0  0.79475  0.79345  0.98767  1.0000
  S   S189      1.0  0.78706  0.58884  0.50888  1.0000
  C   C562      1.0  0.81725  0.54041  0.99992  1.0000
  C   C563      1.0  0.89045  0.68590  0.99348  1.0000
  H   H569      1.0  0.75794  0.92051  0.95583  1.0000
  C   C564      1.0  0.99442  0.59453  0.70530  1.0000
  N   N48       1.0  0.97922  0.70919  0.98790  1.0000
  C   C565      1.0  0.99452  0.69027  0.00170  1.0000
  C   C566      1.0  0.76660  0.91527  0.98255  1.0000
  S   S190      1.0  0.79215  0.72800  0.50869  1.0000
  S   S191      1.0  0.67730  0.88358  0.51464  1.0000
  C   C567      1.0  0.79521  0.54041  0.98866  1.0000
  H   H570      1.0  0.97518  0.70410  0.76073  1.0000
  C   C568      1.0  0.78610  0.51577  0.97397  1.0000
  C   C569      1.0  0.89099  0.56805  0.99570  1.0000
  H   H571      1.0  0.94698  0.72716  0.99438  1.0000
  C   C570      1.0  0.78044  0.78131  0.99535  1.0000
  H   H572      1.0  0.97783  0.74687  0.95460  1.0000
  H   H573      1.0  0.99186  0.59354  0.80115  1.0000
  C   C571      1.0  0.95954  0.71316  0.00620  1.0000
  C   C572      1.0  0.90791  0.54773  0.99367  1.0000
  C   C573      1.0  0.82999  0.51555  0.99643  1.0000
  S   S192      1.0  0.67661  0.92478  0.58732  1.0000
  C   C574      1.0  0.73321  0.79118  0.51362  1.0000
  H   H574      1.0  0.67745  0.83341  0.76013  1.0000
  H   H575      1.0  0.84294  0.59494  0.50836  1.0000
  C   C575      1.0  0.86084  0.59395  0.50827  1.0000
  H   H576      1.0  0.84706  0.51527  0.00497  1.0000
  C   C576      1.0  0.76462  0.96393  0.00367  1.0000
