data_image0
_chemical_formula_structural       CH2FeSFeS2FeSFeS3H2CFeS2FeS2FeSFeS3FeS2FeS2FeSFeS3H2SH3FeS2FeS2FeSHSFeS2FeS2FeSFeS3FeS2FeS2FeSFeS3FeS2FeS2FeSHS2FeS3FeSFeSCHFeS2FeS2FeSFeS3FeS2FeS2FeSFeS3FeS2FeS2FeSFeS3C6H4C6H4C6H4C6H4C6H4C6H4C6H4C6H4C6H4C6H4C6H4C6H4C6H5C3H6C6H4C6HCH2C6H4CHC3HCH2C2H2CHCH4C2H3SHCH2C6H4C6H5C6H4NC6H9CH4CH2C2HCH3C2H2C2NHCH2CNC5HCH2CH3CH3NSH2CNC2HNC6H8NHCSHCH2CSC2H2CHC2HC3NC6H8NC6H8NC6H8CH2CH4CH3CHC2H2CNC6H8NC6H9C3HCHC2HC2H2CH2CHCH2FeHC2HC2H2CHNHCHNSC2NCHCNC6H8NC6H5CH3CH3CNH3CHC2HN2H2C4HC2HNC4HFeHC2HC2NHC2Fe2S2FeCFeS2H2SFeNSFeSHSCSH2S2FeSFeSHCSHFeS2H2FeSHSH2CH2S2CSCHSH2S2FeS2FeS2FeSFeS3HCHFeS2FeS2CFeS3FeS2FeS2FeSFeS3FeS2FeS2FeSFeS3FeS2FeS2FeSFeS3C6H4C6H4C6H4C6H4C6H4C6H4NC4H4C7H2CHC6H4C3HSC6H5SC4FeC2HCHC4HCHCHC2FeC3HCH2C6H4C7H3C6H4C6H4CFe2C4HCH3CHC2HSNH2SHNC2HC2H2CNH4FeCH5SHC3H3CH2CH3CH2CHCHCH3CNC3H5NC5H7C4NC6H8FeHCH2CH2C3HC2FeH2CSHC4FeCH4CSHCHCHCH2C3H2CH5C2H2C2H2C2H2NHCH2CHCFeC4H2NH4CHSH5CNC3HSHNCNCHSH3CNHN2C3H4CSCH3FeCSCH3CSHSNCH2SH3C3HNHCHC2FeS2FeS2FeSFeS3C2FeHSCHFeHS2HCHS2HCHSHSCHSHFeS2FeS2FeSFeS6H2CH2SHFeS2FeSFeSFeS3HCSHFeS2FeSNFeSFeS3H2C8H5C3H4C7H8SC4FeH3CHC6H4C6H4C6H4C6H6CH2FeC3H5CH2CHCHCHCHC6H4C6H4C6H4C6H5FeH2CHCHCHNHC2H3CHCH2CHCH2CH2NC5HSH6C2HCHCSHCHSFeHSHC3H6FeHNFe2HCHCH3CHCNCSC3NHNH2CHC2HSCH3NH3CH4CH2C7H3NHCH4CH2CHC2HSHC3H3CH2NCSH2C3FeC3HN2CNC6H4CH4CHCH3FeSHCH2SHC2SH2CH2C3S2NH2SCHC2HCHCNHSHS4FeS2C2HFeH3S2CS2CHNCNFeS2FeS2FeSFeS3HNHC2FeS2FeS2FeSFeS3FeS2FeS2Fe2S3FeS2FeS2FeSFeS3FeS2FeS2FeSFeCS3FeS2FeS2FeSFeS3CH2CHC2H2CH4C4HNCH2CH2FeC2H2CSC4H4C6H4C6H4C6H4C6H3CFeCHC6H4C2H2CH3C8H4NH2CH3C2HC6H5CHSHFeC4H2C7H4CH3C2HC3H2CHCH3CHC2H6S2CH2C2SHSCSC2H3FeHC4SCHNHCHCH2CH2CHCNC6H8NC6H8CHFe2C5SCSCH2C2HC2SC2H2NC6H8CHCHC2HCFeH5C2HC2NCH2C3FeH7C2HC2HC2H2C3HNHC4H5C3HCSNCSC4HCHC3SNH3C4FeCHC2Fe2CNHCH2NCHC2HC2FeC2H5CHCHCHCH2NC2NCHC2HCHC3H4CH3CH2C2HCH8SFeS2FeSFeSFeS3FeS2FeS2FeSFeS3FeS2FeS2FeSFeS3FeS2FeS2FeSFeS3HCSFeS2CFeSFeSHFeS2FeS2FeSFeS3FeS2FeS2FeSFeS3CSCHFeS2FeS2FeS2FeH2S2FeS2FeS2FeSFeS3FeS2FeS2FeSFeS3C6H4C6H4C6H6C2H3C2HC2H3SC6H4C3H2CH2CHC6H4C7H3C5H2C6H4C6H4C6H4C6H2C6H4C6H4C6H4C6H4C6H4C6H4C6H4C6H6CH5C2HCH4NC6H8NC6H2NSH5NH3C2H2C2HC3NC6H8NC6H10SCHC2H2SH3NCNC6H9CFeC2H2NHNCH3C2H3CH3CHC2NC6H8NC6H8NC6H7CHNHC2FeH3C2HC2H2NH3C6NCSCH2CH2CHCH3C3HNCHSHC3HNH3CH2NFeC2H2CHNH2SCHCH2C2HNSC2SH3CH2C2HC2HCNHCHC2HC2H2C4H4CH2CH4C2HCHFeC2H3C2H2CH2CSC3FeCHCHC2H3FeNCH2CH3S2Fe2SFeSFeS2FeS2FeSFeS3FeS2FeS2FeSFeS3Fe2S2FeSFeHS2FeS2FeS2FeSFeS3HSFeS2FeSFeS3FeS2FeS2FeSFeS3FeS2FeS2FeSFeS3NSCSFeSHFeSFeS3HSFeS2FeS2FeSFeS3FeS2FeS2FeSFeS3C7H6C2HCH3C6NHC2HC10H4C6H4C6H4C2HC3HCH2C6H4C6H4C6H4C6H4C6H4C6H4C6H4C6H4C6H4C3HC2H3C6H4C6H4C6H4C6H4C6H5NC6H8NC6H10C4H5CH4NC6H8NC6H10NC6H8NC3H7SFeCSC3NC6H13C2H6CHNC6H6SHC2HCH2C2HCHSC4H5C2SCHNCHNH2C2HCH2NH2CHCNHC3NCHSCH2C2H4C2NC2HCHC4HSHCHNH2C2HC2HC3H6CHCH6CHCH2NC2HCH2NH2C5H3C4NH2NH6C2H3NHCH2C3HC2H2CSHCHC4FeCH4CFe2S2HFeSHSFeS2FeS2FeSFeS3FeS2FeS2FeSFeS3CHC2FeS2FeSFeSFeS3FeS2FeS2FeSFeS3FeS2FeS2FeSFeS3FeS2FeS2FeSFeS3FeS2H2FeSNHC2H2FeS2FeSFeSHSFeNSFeHSHFeCS3HSCFeSFeSFeHSHSCHC8H4C6H4C4H6C4H5FeCHC4HCH2C6H4C6H4C6H4C6H4C6H4C6H4CHC7HC4HCH4C6H4C6H5C8H4C6H4C6H2CHC6H5C4H3NH2CHCHN2C6H8CNC6H8C2H2CHSNCH3CH6CHCHCHNHNC6H11CHFeC2NH3NHCHC2H5CFeH2CH2SFeCHCHC3HCHCHNFeCHCHSC2HC2HC2SHCFeC2NC3SC6H2C5SHC3HNHCHC2SCHCH5SHCH2CH2C2S2H2CH2C4NC3HCH3C2HCSHC2H3SH4NCHCSH2CH2CNCNHCH2CH7CHSNH3CH4C2H3CH2CH2CHCHCH4CFeS2FeS2FeSHSH2C2FeS2FeHFeS4FeS2FeS2FeSFeS4CFeS2FeS2FeSFeS3Fe2HSHCS2HSFeHNSFeSC4NH3S2C6H4C6H4C6H5C6H4C6H4C6H4C6H4CHCH3SFeC3HNH2C6H5SH2CHCHCSCHC4NC6H11C2H2C2NHCH2SC2HCSCH3C3H5CNC6H8NC4HC2H3CHCHCHCHCHCH2C2HCNC6H8NC3H7SC2HCNCHC3H2CH4C2HSHFeCNCHCHNH2CFe2CH3CSH2FeH9C2H3SHNCSCH5CH4C5H4C3SHCHC3H2FeS2FeSCFeSFeHS2FeS2FeS2FeNFeS3FeS2FeS2FeSFeS3HS2CH3FeS2FeS2FeSFeS3FeSFeSHFeS3FeS2FeS2FeSFeS3FeS2FeSCFeSFeHS2CH3CFeSH3FeSHNSHFeS2H2FeS2FeS2FeCFeS3H4SHCHFeCHSC2H4CHC2HC7HC2H2C2H4C4H5CNH6CH2SC6H4C2NC3HCH2C6H3C7H4C6H4C6H4C6H5CHFeCSC2HCHC7H4C6H2CHSH2C6H4C6HCH2C6H3CNHC6H4SHC2HC2H2CHCH2CH3NC2NHC3HCFeH2CNC2H3CH2C2H2SCHNHCNC6H8C2SH2FeNCHCNHNC5H6N2H4SH3CH4CH3CHC2H2FeH3CHC4SC2H2CHCSNC6H12CHCHC2HNC6H9CHCH2CHNFeC2H2C2H2CSC5H2C3HC6NC2NC6H4C3HSH3CSHC2H4CSC2HSHCHNC3NC2HCH2CH3CSHCHCHS2C3H2CH2FeS2FeS2FeSFeS3FeS2FeSHFeSFeS3FeS2FeS2FeSFeS3FeS2FeS2FeSFeS3FeS2FeCSFeSCSFeS2FeS2FeSFeCS2FeS2H2FeS2FeS2FeSFeS4HSHFeSFeSFeSFeS3FeS2FeS2FeSFeCS2FeS2FeS2FeSFeS3HSC6H4C6H4C6H4CHC3HCH2C6H4C6H4C6H4C6H4CH4C6H4C6H4C2H2SHCHC6H4C6H4C6H4C6H4C6H4C6H4C6H4C6H4C6H5CNC3HCH2CH2CHNC6H7C2HCSCHSCH3C2HCHSH2FeC3HNCHCHC2HCH2CHCHNC6H8NC6H8C2HSNC6H8NC2H4CH3NC6H11C3H3NC5NC6H8NC6H11SC2H2CHCH2NHCNC4HCHCH4C4HC3HFeH3C2HN2C6H8NCH3C5H2CNHNC6H8NH2CHCHCHC2H3CHC2H2CH3SCHCNSC3H3CFeC3H5CHFeS2FeSFeS2FeS2FeS2FeSFeS3FeS2FeS2FeSFeS3HFeS2FeS2FeSFeS3FeS2FeSCFeSFeS3HSHFeS2FeSCHSCFeS2FeS2FeSFeS3FeS2FeHSCFeS3FeS2FeS2FeSFeS3FeS2FeS2FeSFeS3FeS2FeS2FeSFeS3C6H4C6H4C6H4C6H4C6H4C6H4C3H4FeC6H4C6H4CH3C4H5CHC6H4C6H4C6H4C6H4C6H2C4H2C6H4C6H4C6H4C6H4NH5SC3HCH5C3H3NC6H8NC6H10CH2CHC2HNH4C3SHNC6H8NC6H8NC6H8CH2C2HCHCHCH2CHNC5H6NC6H8NC6H8NC6H7SHCH3CHC3HCHNC6H8CNC6H8CHFeHCH2CHC3S2C4H2SC2NHNHCNC6HC2H3CNHCHC2H2C3H2C6H2CHCHSHCHCHNH2SCHCHCH2CHNHC4HCHN2C2NH4CHCHSHFeHCHCHCNH4C2HCH3FeCHC3FeS2HSFe2H2CS2HCHSFeS2FeS2FeSFeS3FeSFeS2FeSFeS3FeS2FeS2FeSFeS3FeS2FeS2FeSFeS4HSH2NSHC4SH2SFeSFeSCHFeS2FeS2FeSCS2FeS2FeS2FeSFeS3FeS2CFeSFeSHCFeS2FeS2FeSFeS3C6H4C2H2C6H4C6H4C3SHC6H4C6H4C6H4C6H4C6SH3C6H4C2H2C2HCHC7H4C6H4C6H4C6H4C6H4C6H4C6H4C5H6CSH2NH3C7H5NC6H2CHNH3NC6H8C2H3C4H2NCNCH4C2NSHC4HCHNC6H11SCHC2H2C3H3CHFeCHSHC2HSHN2CHCH2CHCH6NC4H5NC2HCHCH8NC3H3FeHNC6H8NC6H8CHFeH2CHCHC5HCHC2H3FeH2CH4CHC2HC2H6CHC4H2CNCHCHNCH4C2HC4SNCSCNH2C3H3FeH2C3NHCHFeSHC3FeHCSCH4CH2C2HCH3CH2C3HCH2SHFeHFe2SH2CFeS2FeS2FeHFeS3FeS2FeS2FeSFeS3FeS2CS2H2CHFeSHCSHFeS2FeS2FeSFeS4CHSHSC6H4C6H4C6H4C6H4C2HCHCH2C2HC6H4C6H4C6H4C6H4C2HC3H2CHSH2NH6SHC2SNSH3C3HCNC6H8NHCHCH4NH2FeCHNC6H9C4HSH5S2H2CH2SFeC2H2CH2C2HC3HC3H2CHCH3C3HNHC2HNCH2CH5CH2CHCH5FeNC2NCHCHCHCH2CH2C3HNHCHSCHCNC6H6CHCH6C2HCH2CS3HNHCNHCSHFeC2HCFeS2FeS2FeSFeCS2FeS2FeSHFe2SHSH2CSFeS2FeS2FeSFeS3C2SHCHFeSCHSHFeSC2HFeSHSCH2CH2FeS3HSFeS2FeSFeS3FeS2FeS2FeSFeS3FeS2FeS2FeSFeNS2FeS2FeSHFeSFeHS2NCSCHC6H3C7H4C6H4C6H4C6H5C3HFeH2NHC6H2CH3CHC2H3C7H5C5HSH3C2HC2FeH3C6H5C4H4C7H4CHC4H2C7H5C7SHFeCFeC3H2CH2FeHC2HC6H4FeHC2SCHCS2NH2SC3SHCHC3HNC6H6C3HCH2NC6H8C2HC2SCH3CHC2SCHCH2CHNCHNC6H8NC6H2SH5NH2C3SC2H4SCHCH3C4HSCH4NSH3CHNCHC3HC8H4CH2C2HNCHSH2CHCHC2H2FeCHSHCHCH2CH4C2N2C6H12C2HCHCHCHC2NC2SH2CH2CSCHFeHCFe2HC2NHCFeHC2SCSHCHCNH2S2H5CSH5CHFeHNC3H2CFeS2FeS2Fe2CS2FeS2FeS2FeSFeS3FeS2FeS2FeSFeS3HSFeS2FeSCFeSFeS3FeS2FeS2FeSFeS3FeS2FeS2FeSFeS3FeS2FeS2FeSFeS3HFeS2FeS2FeSFeS3FeSFeS2FeSFeS3FeS2FeS2FeSFeS3FeS2FeH2SC7H4C6H4C6H4C6H4CHC2HC2H2C6H4C7H4C6H4C6H4C6H4C6H4C6H4C6H4C6H4C6H7C8H4CHC4H4C6H4C6H4C6H4CHCH2C3HNCHCNH2CNC6H8NSNC6H9CHSCH6NHSH2CHCFeH3CH2CH3NC7H4NHCNC6H6NC6H8NC6H8NHC3H2CH2CH2SCNC6H12CHCNC6H8CH3CH3CH4C2HCH6NCHNC4H2CHCHC2H5NHCHC2HCHCNCH2C2H3CNC3HC3HCHCSCH2C3NHCH2C2HCHCHCH6CHC3HCNCSH4CH4CHCH2FeS2FeS2FeSFeS3FeS2FeSHFeSFeS3FeSFeS2FeSFeS3FeS2FeS2FeSFeS4FeS2FeS2FeSFeS3FeSFeSFeS3FeS2FeS2FeSFeS3FeS2FeS2FeSFeS3FeSFeS2FeSFeS3CH2FeS2FeS2FeSFeS3FeS2FeS2FeSFeS3HC6H5CHC3H5C4H5C3H4CHNC6H4C6H5C2H2C6H4C6H4C6H4C6H4C6H4C6H4C6H4C6H4C6H4C6H4C6H4C6H4C6H4C6H4C6H4C6H7C2NC6H8NC6HSH2C3H2CH4CHCH3C2H3CH3NC6H8NC6H8NC6H6CHNC6H9CNC6H6NC6HC4HCH4NHCNC3HNC5H6NC6H7SH2CH3CH2CHCNHCNC2HCHCH2NCH2CH3CHCNHC5H3C2H4C2NHC2H2CHCH4C2HNCH2C6H5NCHCH2C3H3CHCH2C3H2NH5C2H2C3NCHC2FeHC3SCH3CH2CH3CHNHNH4C2HCHC2HCH2CH2SCS3CFeS2FeS2HCFeCFeSHSFeSFeSHCS2CSFeS2FeSFeS3FeS2FeS2FeSFeS3FeS2FeS2FeSFeS3FeS2FeS2FeSFeS3NFeSHFeSFe2S2FeS2FeSFeSFeS3FeHFeSCSHSHFeS2FeS2FeSFeS3HSC6H4C6H4FeC2H2SCHC5H3C6H4C6H4C6H4C4SCH2C8H4C6H4C3HC2HCH2C6H4C6H4C6H4C6H3CHC6H2CHC2H2C6H4C6H3SHCHC3H4C2HCHNH2NCH2N3CSNC3H7SC2SH2CH3C3FeC3H2CHC2H2C2HC3HFeSC2H4CNC6H9C3HCHNCH3CH2NC6H8NC6H8NHCHFeSH5SCH2CHSC2HCH4SC3NC6H8NC6H8CFeNCHCHCHC5H2FeHC2HC2SCHC2HNH2CH2NC6H9CH2CH2SH2CH4C3H2SH3CNSH3CSCFeH2C5SHCNH3CHSH3CH2NCH2CSC2HC3HSH2SH2CHCH3CHCH2FeHCSCNFeS2FeS2FeSFeS3H2CHSHNCHS2FeS2C2H2CFeS2FeS2FeSFeS3FeSFeS2FeS2FeSFeS3CHFeSHCFeSCHC2NFeS2CSFeHC2S2HNH2SCHC3HNH2SH2CNH3CH3C6H4C6H4C6H4C6H4C6H5FeCNC3HC6H7C7H4C6H4C6H4C6H6CH2SHFeH8CFeCHFeCH2SHCH2C2SHNC6H8NC6H10CH2CH4C2H2FeNC2H2C2H2CH2C3SHCSH6FeCHC4H2C2NCHSH2CHNHCNHCHCHC3SCFeH2SNH3SC3HSH2CH5CSHC6H3C2SH2SHC2H2CH5SCSH2CSHCHSHFeS2FeS2FeSFeS3CSCH2SHSHCHSNHC2SCHFeC2FeS2HCFeSH2FeS2FeS2FeSFeS3FeNFeS2FeHFeHS2FeSCFeSCFeSFeS2HFeSHFeSCHCFeSHSHCFeS2FeS2FeCFeS4NH2SCH3CNHC5H2C4H2C5H4C6H4C6H4C6H4C6H5CHCH2C6H2FeC6H3CFeHFeCFe2CH2C6FeH2CH5NC3HSC6H4C4HSHCH2C6H4S2C6H4C4HSH2CSHC3SH3CN2C2NHSCHC2HC2HC4NC2H2C2HCH2CH3C2H4C4HCH3NC6H9C2HSCH4NC6H8CHC2H3C2H2CH3NC6H4S2HSC2SHCHC5SC2H2C4H4SH2CSH4SC4FeH2CHC2HFeHNHC2H2C2H3CSFeH2SC5H2CH4C2HNCHCH5NHC2H2C2NH4C2H2FeS2FeSFeSFeS3FeS2FeS2FeSFeS4FeS2FeSFeS3FeS2FeS2FeSFeS3CH2SHFeS2FeS2FeSFeS3FeS2FeS2Fe2S3FeS2FeS2FeSFeS3FeS2FeS2FeSFeS3FeS2FeHSFeSHSFeS2FeS2FeSFeS3FeS2FeS2FeSFeS3CHC2NCH4C6H4C2H3C2HCHCH3C2H3C6H4C6H4C6H4C6H4C6H4C6H4C6H4C6H4C6H5CNC3H3C6H2CHC6H4C6H4C6H4C6H4C6H4C6H4C6H4NC6H8CH2C3HC2HC2H3C3HNC6H8CHFeCHC2H3CH2C4H2C3HCHSC2H3CH4CHNCHC3NC6H8NC6H8CH3C2NC6H8CHCNCHCH4NH3NC6H8NC6H8NC6H8NC5H7C2NC6H8NC6H4CH3NHCH2C2H3CHC2NCHSC3NHCHC2H2CNCHNC2SCH7CH2CH5CHC2HCH
_chemical_formula_sum              "C4608 H4608 Fe768 S1536 N384"
_cell_length_a       115.458
_cell_length_b       115.582
_cell_length_c       115.859
_cell_angle_alpha    74.4159
_cell_angle_beta     74.4228
_cell_angle_gamma    74.5403

_space_group_name_H-M_alt    "P 1"
_space_group_IT_number       1

loop_
  _space_group_symop_operation_xyz
  'x, y, z'

loop_
  _atom_site_type_symbol
  _atom_site_label
  _atom_site_symmetry_multiplicity
  _atom_site_fract_x
  _atom_site_fract_y
  _atom_site_fract_z
  _atom_site_occupancy
  C   C1        1.0  0.38593  0.05862  0.16457  1.0000
  H   H1        1.0  0.40532  0.13598  0.17294  1.0000
  H   H2        1.0  0.37997  0.00821  0.13076  1.0000
  Fe  Fe1       1.0  0.48327  0.10377  0.11843  1.0000
  S   S1        1.0  0.47142  0.11747  0.10643  1.0000
  Fe  Fe2       1.0  0.46140  0.09990  0.13955  1.0000
  S   S2        1.0  0.44784  0.11367  0.12948  1.0000
  S   S3        1.0  0.45426  0.08830  0.15757  1.0000
  Fe  Fe3       1.0  0.45812  0.10483  0.11369  1.0000
  S   S4        1.0  0.44733  0.10149  0.10178  1.0000
  Fe  Fe4       1.0  0.46229  0.12495  0.12334  1.0000
  S   S5        1.0  0.45957  0.14512  0.12203  1.0000
  S   S6        1.0  0.47088  0.09025  0.12410  1.0000
  S   S7        1.0  0.47501  0.11200  0.13501  1.0000
  H   H3        1.0  0.48182  0.37771  0.08545  1.0000
  H   H4        1.0  0.09392  0.37360  0.00290  1.0000
  C   C2        1.0  0.47794  0.08487  0.09262  1.0000
  Fe  Fe5       1.0  0.37979  0.04933  0.11720  1.0000
  S   S8        1.0  0.38848  0.04489  0.13363  1.0000
  S   S9        1.0  0.37944  0.03314  0.10920  1.0000
  Fe  Fe6       1.0  0.37574  0.07706  0.11555  1.0000
  S   S10       1.0  0.38374  0.07455  0.13178  1.0000
  S   S11       1.0  0.36785  0.09681  0.10754  1.0000
  Fe  Fe7       1.0  0.39846  0.06023  0.12373  1.0000
  S   S12       1.0  0.41746  0.05905  0.12655  1.0000
  Fe  Fe8       1.0  0.37322  0.05968  0.14036  1.0000
  S   S13       1.0  0.36355  0.05959  0.16000  1.0000
  S   S14       1.0  0.39125  0.06361  0.10661  1.0000
  S   S15       1.0  0.36371  0.06324  0.12480  1.0000
  Fe  Fe9       1.0  0.39276  0.16840  0.12797  1.0000
  S   S16       1.0  0.39687  0.16937  0.10781  1.0000
  S   S17       1.0  0.40506  0.17397  0.13643  1.0000
  Fe  Fe10      1.0  0.36815  0.16186  0.13226  1.0000
  S   S18       1.0  0.36975  0.16280  0.11229  1.0000
  S   S19       1.0  0.35109  0.15798  0.14600  1.0000
  Fe  Fe11      1.0  0.38904  0.15232  0.11307  1.0000
  S   S20       1.0  0.39904  0.13503  0.10619  1.0000
  Fe  Fe12      1.0  0.37734  0.17979  0.10900  1.0000
  S   S21       1.0  0.37180  0.19832  0.09678  1.0000
  S   S22       1.0  0.38693  0.15040  0.13325  1.0000
  S   S23       1.0  0.37375  0.17977  0.12895  1.0000
  H   H5        1.0  0.11368  0.39325  0.98398  1.0000
  H   H6        1.0  0.38289  0.01515  0.06687  1.0000
  S   S24       1.0  0.33808  0.00793  0.10459  1.0000
  H   H7        1.0  0.35274  0.11249  0.12489  1.0000
  H   H8        1.0  0.43613  0.39050  0.12130  1.0000
  H   H9        1.0  0.18541  0.41757  0.01345  1.0000
  Fe  Fe13      1.0  0.12377  0.46674  0.08131  1.0000
  S   S25       1.0  0.13531  0.47953  0.06818  1.0000
  S   S26       1.0  0.11313  0.45507  0.07720  1.0000
  Fe  Fe14      1.0  0.13145  0.46956  0.10338  1.0000
  S   S27       1.0  0.11056  0.38832  0.17002  1.0000
  S   S28       1.0  0.12888  0.46492  0.12384  1.0000
  Fe  Fe15      1.0  0.14967  0.46930  0.07916  1.0000
  S   S29       1.0  0.16887  0.46227  0.06926  1.0000
  H   H10       1.0  0.08881  0.34431  0.98476  1.0000
  S   S30       1.0  0.13853  0.45586  0.09137  1.0000
  Fe  Fe16      1.0  0.20667  0.39804  0.08347  1.0000
  S   S31       1.0  0.19719  0.39225  0.07219  1.0000
  S   S32       1.0  0.19385  0.40981  0.09621  1.0000
  Fe  Fe17      1.0  0.23159  0.38195  0.07496  1.0000
  S   S33       1.0  0.22389  0.37504  0.06281  1.0000
  S   S34       1.0  0.25107  0.37147  0.07603  1.0000
  Fe  Fe18      1.0  0.21401  0.39448  0.05756  1.0000
  S   S35       1.0  0.21237  0.40268  0.03802  1.0000
  Fe  Fe19      1.0  0.20780  0.37343  0.07848  1.0000
  S   S36       1.0  0.19911  0.35705  0.08422  1.0000
  S   S37       1.0  0.22300  0.40183  0.06828  1.0000
  S   S38       1.0  0.21598  0.37884  0.09112  1.0000
  Fe  Fe20      1.0  0.15562  0.38943  0.02650  1.0000
  S   S39       1.0  0.14230  0.37687  0.03230  1.0000
  S   S40       1.0  0.17586  0.38332  0.01923  1.0000
  Fe  Fe21      1.0  0.13582  0.41188  0.03137  1.0000
  S   S41       1.0  0.12064  0.40134  0.03757  1.0000
  S   S42       1.0  0.13585  0.43166  0.03029  1.0000
  Fe  Fe22      1.0  0.13402  0.38700  0.04778  1.0000
  S   S43       1.0  0.13157  0.37692  0.06764  1.0000
  Fe  Fe23      1.0  0.13018  0.39210  0.02142  1.0000
  S   S44       1.0  0.12090  0.39137  0.00634  1.0000
  S   S45       1.0  0.14836  0.39823  0.04264  1.0000
  S   S46       1.0  0.14431  0.40397  0.01458  1.0000
  Fe  Fe24      1.0  0.14692  0.40098  0.14064  1.0000
  S   S47       1.0  0.12690  0.40794  0.14060  1.0000
  S   S48       1.0  0.15732  0.41252  0.14481  1.0000
  Fe  Fe25      1.0  0.14737  0.37646  0.13616  1.0000
  S   S49       1.0  0.12714  0.38092  0.13640  1.0000
  S   S50       1.0  0.15926  0.35812  0.13361  1.0000
  Fe  Fe26      1.0  0.13093  0.39895  0.12456  1.0000
  S   S51       1.0  0.12430  0.40876  0.10708  1.0000
  H   H11       1.0  0.26586  0.36913  0.05077  1.0000
  S   S52       1.0  0.15125  0.39402  0.12344  1.0000
  S   S53       1.0  0.14496  0.38299  0.15337  1.0000
  Fe  Fe27      1.0  0.39244  0.33993  0.00444  1.0000
  S   S54       1.0  0.37984  0.35162  0.01722  1.0000
  S   S55       1.0  0.40239  0.32102  0.01204  1.0000
  S   S56       1.0  0.37775  0.37384  0.99257  1.0000
  Fe  Fe28      1.0  0.39025  0.36607  0.00597  1.0000
  S   S57       1.0  0.39508  0.37801  0.01576  1.0000
  Fe  Fe29      1.0  0.36852  0.35823  0.00284  1.0000
  S   S58       1.0  0.34802  0.36133  0.00648  1.0000
  C   C3        1.0  0.12399  0.39808  0.17993  1.0000
  H   H12       1.0  0.14196  0.39453  0.98507  1.0000
  Fe  Fe30      1.0  0.39568  0.25835  0.08478  1.0000
  S   S59       1.0  0.39902  0.26999  0.09581  1.0000
  S   S60       1.0  0.40374  0.23797  0.08798  1.0000
  Fe  Fe31      1.0  0.38144  0.28014  0.06940  1.0000
  S   S61       1.0  0.38314  0.29360  0.07921  1.0000
  S   S62       1.0  0.37080  0.28773  0.05446  1.0000
  Fe  Fe32      1.0  0.40269  0.28342  0.07789  1.0000
  S   S63       1.0  0.41704  0.29495  0.07033  1.0000
  Fe  Fe33      1.0  0.37923  0.27923  0.09623  1.0000
  S   S64       1.0  0.36632  0.28214  0.11401  1.0000
  S   S65       1.0  0.40134  0.27088  0.06674  1.0000
  S   S66       1.0  0.37556  0.26661  0.08654  1.0000
  Fe  Fe34      1.0  0.31518  0.36997  0.08437  1.0000
  S   S67       1.0  0.31512  0.34987  0.09033  1.0000
  S   S68       1.0  0.29765  0.38469  0.08450  1.0000
  Fe  Fe35      1.0  0.34327  0.36524  0.07530  1.0000
  S   S69       1.0  0.34519  0.34482  0.07995  1.0000
  S   S70       1.0  0.36074  0.37191  0.06517  1.0000
  Fe  Fe36      1.0  0.32832  0.34851  0.07251  1.0000
  S   S71       1.0  0.32529  0.33773  0.06066  1.0000
  Fe  Fe37      1.0  0.33192  0.34810  0.09739  1.0000
  S   S72       1.0  0.33405  0.33550  0.11556  1.0000
  S   S73       1.0  0.32756  0.36865  0.06598  1.0000
  S   S74       1.0  0.33090  0.36848  0.09326  1.0000
  Fe  Fe38      1.0  0.44321  0.36246  0.08660  1.0000
  S   S75       1.0  0.44560  0.34498  0.08014  1.0000
  S   S76       1.0  0.46010  0.36950  0.08666  1.0000
  Fe  Fe39      1.0  0.41537  0.36792  0.08952  1.0000
  S   S77       1.0  0.41573  0.35112  0.08352  1.0000
  S   S78       1.0  0.39611  0.37819  0.09559  1.0000
  Fe  Fe40      1.0  0.42928  0.34161  0.09526  1.0000
  S   S79       1.0  0.42505  0.32346  0.10626  1.0000
  Fe  Fe41      1.0  0.43164  0.35573  0.06876  1.0000
  S   S80       1.0  0.43123  0.35030  0.05151  1.0000
  S   S81       1.0  0.42779  0.35813  0.10272  1.0000
  S   S82       1.0  0.43044  0.37362  0.07376  1.0000
  C   C4        1.0  0.37035  0.37372  0.07384  1.0000
  C   C5        1.0  0.36616  0.37402  0.08630  1.0000
  C   C6        1.0  0.37400  0.37572  0.09287  1.0000
  C   C7        1.0  0.38617  0.37667  0.08715  1.0000
  C   C8        1.0  0.39041  0.37609  0.07477  1.0000
  C   C9        1.0  0.38245  0.37492  0.06808  1.0000
  H   H13       1.0  0.35681  0.37323  0.09079  1.0000
  H   H14       1.0  0.37064  0.37623  0.10242  1.0000
  H   H15       1.0  0.39977  0.37689  0.07026  1.0000
  H   H16       1.0  0.38575  0.37494  0.05841  1.0000
  C   C10       1.0  0.41904  0.30271  0.08056  1.0000
  C   C11       1.0  0.42538  0.31231  0.07588  1.0000
  C   C12       1.0  0.42714  0.31871  0.08376  1.0000
  C   C13       1.0  0.42283  0.31536  0.09642  1.0000
  C   C14       1.0  0.41651  0.30570  0.10115  1.0000
  C   C15       1.0  0.41446  0.29949  0.09321  1.0000
  H   H17       1.0  0.42894  0.31483  0.06614  1.0000
  H   H18       1.0  0.43209  0.32608  0.08001  1.0000
  H   H19       1.0  0.41325  0.30300  0.11094  1.0000
  H   H20       1.0  0.40961  0.29204  0.09689  1.0000
  C   C16       1.0  0.35799  0.29719  0.11445  1.0000
  C   C17       1.0  0.36038  0.30706  0.10472  1.0000
  C   C18       1.0  0.35309  0.31888  0.10498  1.0000
  C   C19       1.0  0.34338  0.32086  0.11497  1.0000
  C   C20       1.0  0.34125  0.31106  0.12487  1.0000
  C   C21       1.0  0.34852  0.29926  0.12460  1.0000
  H   H21       1.0  0.36787  0.30566  0.09704  1.0000
  H   H22       1.0  0.35520  0.32646  0.09760  1.0000
  H   H23       1.0  0.33387  0.31258  0.13271  1.0000
  H   H24       1.0  0.34669  0.29169  0.13221  1.0000
  C   C22       1.0  0.39324  0.31165  0.02319  1.0000
  C   C23       1.0  0.39904  0.30053  0.02966  1.0000
  C   C24       1.0  0.39210  0.29314  0.03911  1.0000
  C   C25       1.0  0.37930  0.29670  0.04202  1.0000
  C   C26       1.0  0.37341  0.30766  0.03531  1.0000
  C   C27       1.0  0.38039  0.31519  0.02594  1.0000
  H   H25       1.0  0.40893  0.29759  0.02739  1.0000
  H   H26       1.0  0.39672  0.28459  0.04396  1.0000
  H   H27       1.0  0.36348  0.31043  0.03745  1.0000
  H   H28       1.0  0.37585  0.32371  0.02085  1.0000
  C   C28       1.0  0.40367  0.37026  0.02711  1.0000
  C   C29       1.0  0.40648  0.35743  0.03026  1.0000
  C   C30       1.0  0.41422  0.35141  0.03852  1.0000
  C   C31       1.0  0.41933  0.35812  0.04359  1.0000
  C   C32       1.0  0.41590  0.37093  0.04106  1.0000
  C   C33       1.0  0.40808  0.37699  0.03282  1.0000
  H   H29       1.0  0.40295  0.35214  0.02608  1.0000
  H   H30       1.0  0.41647  0.34150  0.04079  1.0000
  H   H31       1.0  0.41976  0.37621  0.04494  1.0000
  H   H32       1.0  0.40584  0.38693  0.03051  1.0000
  C   C34       1.0  0.34213  0.35431  0.02151  1.0000
  C   C35       1.0  0.33213  0.34874  0.02390  1.0000
  C   C36       1.0  0.32723  0.34322  0.03593  1.0000
  C   C37       1.0  0.33208  0.34366  0.04559  1.0000
  C   C38       1.0  0.34200  0.34936  0.04325  1.0000
  C   C39       1.0  0.34713  0.35455  0.03118  1.0000
  H   H33       1.0  0.32827  0.34857  0.01643  1.0000
  H   H34       1.0  0.31955  0.33884  0.03775  1.0000
  H   H35       1.0  0.34570  0.34978  0.05073  1.0000
  H   H36       1.0  0.35468  0.35908  0.02940  1.0000
  C   C40       1.0  0.12938  0.38584  0.07858  1.0000
  C   C41       1.0  0.13228  0.38015  0.09008  1.0000
  C   C42       1.0  0.13085  0.38710  0.09884  1.0000
  C   C43       1.0  0.12610  0.39975  0.09632  1.0000
  C   C44       1.0  0.12291  0.40541  0.08493  1.0000
  C   C45       1.0  0.12476  0.39852  0.07600  1.0000
  H   H37       1.0  0.13560  0.37033  0.09229  1.0000
  H   H38       1.0  0.13327  0.38262  0.10761  1.0000
  H   H39       1.0  0.11912  0.41515  0.08293  1.0000
  H   H40       1.0  0.12235  0.40299  0.06723  1.0000
  C   C46       1.0  0.18791  0.35757  0.09779  1.0000
  C   C47       1.0  0.18367  0.36834  0.10231  1.0000
  C   C48       1.0  0.17453  0.36872  0.11306  1.0000
  C   C49       1.0  0.16987  0.35824  0.11952  1.0000
  C   C50       1.0  0.17423  0.34744  0.11501  1.0000
  C   C51       1.0  0.18312  0.34715  0.10408  1.0000
  H   H41       1.0  0.18754  0.37633  0.09760  1.0000
  H   H42       1.0  0.17161  0.37693  0.11665  1.0000
  H   H43       1.0  0.17075  0.33927  0.12001  1.0000
  H   H44       1.0  0.18647  0.33876  0.10066  1.0000
  C   C52       1.0  0.20229  0.39671  0.03333  1.0000
  C   C53       1.0  0.20527  0.39462  0.02144  1.0000
  C   C54       1.0  0.19714  0.39039  0.01727  1.0000
  C   C55       1.0  0.18577  0.38866  0.02481  1.0000
  C   C56       1.0  0.18268  0.39088  0.03668  1.0000
  C   C57       1.0  0.19099  0.39477  0.04099  1.0000
  H   H45       1.0  0.21395  0.39616  0.01546  1.0000
  H   H46       1.0  0.19962  0.38862  0.00812  1.0000
  H   H47       1.0  0.17402  0.38938  0.04264  1.0000
  H   H48       1.0  0.18850  0.39662  0.05008  1.0000
  C   C58       1.0  0.26299  0.37525  0.08026  1.0000
  C   C59       1.0  0.26285  0.38722  0.08086  1.0000
  C   C60       1.0  0.27341  0.38999  0.08251  1.0000
  C   C61       1.0  0.28411  0.38082  0.08362  1.0000
  C   C62       1.0  0.28402  0.36881  0.08344  1.0000
  C   C63       1.0  0.27353  0.36605  0.08178  1.0000
  H   H49       1.0  0.25477  0.39439  0.07969  1.0000
  H   H50       1.0  0.27338  0.39930  0.08273  1.0000
  H   H51       1.0  0.29211  0.36166  0.08431  1.0000
  H   H52       1.0  0.27371  0.35677  0.08136  1.0000
  C   C64       1.0  0.17583  0.44775  0.07687  1.0000
  C   C65       1.0  0.18595  0.44057  0.07036  1.0000
  C   C66       1.0  0.19136  0.42881  0.07618  1.0000
  C   C67       1.0  0.18694  0.42434  0.08865  1.0000
  C   C68       1.0  0.17693  0.43156  0.09520  1.0000
  C   C69       1.0  0.17132  0.44319  0.08930  1.0000
  H   H53       1.0  0.18962  0.44411  0.06081  1.0000
  H   H54       1.0  0.19915  0.42332  0.07109  1.0000
  H   H55       1.0  0.17354  0.42823  0.10488  1.0000
  H   H56       1.0  0.16376  0.44878  0.09450  1.0000
  C   C70       1.0  0.13819  0.45073  0.12866  1.0000
  C   C71       1.0  0.14365  0.44891  0.13860  1.0000
  C   C72       1.0  0.15047  0.43730  0.14300  1.0000
  C   C73       1.0  0.15135  0.42745  0.13774  1.0000
  C   C74       1.0  0.14607  0.42932  0.12769  1.0000
  C   C75       1.0  0.13960  0.44098  0.12307  1.0000
  H   H57       1.0  0.14260  0.45648  0.14288  1.0000
  H   H58       1.0  0.15460  0.43584  0.15076  1.0000
  H   H59       1.0  0.14678  0.42172  0.12358  1.0000
  H   H60       1.0  0.13524  0.44226  0.11555  1.0000
  C   C76       1.0  0.11981  0.44835  0.06433  1.0000
  C   C77       1.0  0.11589  0.43817  0.06346  1.0000
  C   C78       1.0  0.12104  0.43269  0.05325  1.0000
  C   C79       1.0  0.12978  0.43770  0.04363  1.0000
  C   C80       1.0  0.13373  0.44783  0.04454  1.0000
  C   C81       1.0  0.12894  0.45300  0.05496  1.0000
  H   H61       1.0  0.10877  0.43457  0.07063  1.0000
  H   H62       1.0  0.11789  0.42492  0.05258  1.0000
  H   H63       1.0  0.14043  0.45180  0.03708  1.0000
  H   H64       1.0  0.13196  0.46089  0.05551  1.0000
  H   H65       1.0  0.35503  0.10047  0.16862  1.0000
  C   C82       1.0  0.12272  0.35856  0.99781  1.0000
  C   C83       1.0  0.12370  0.36727  0.00385  1.0000
  C   C84       1.0  0.12035  0.37985  0.99898  1.0000
  H   H66       1.0  0.39320  0.98974  0.12327  1.0000
  H   H67       1.0  0.48523  0.33966  0.13153  1.0000
  H   H68       1.0  0.12517  0.34886  0.00178  1.0000
  H   H69       1.0  0.12683  0.36425  0.01240  1.0000
  H   H70       1.0  0.33639  0.00876  0.07869  1.0000
  H   H71       1.0  0.34822  0.00090  0.06818  1.0000
  C   C85       1.0  0.38034  0.20931  0.09557  1.0000
  C   C86       1.0  0.39274  0.20572  0.09624  1.0000
  C   C87       1.0  0.39978  0.21463  0.09392  1.0000
  C   C88       1.0  0.39443  0.22717  0.09115  1.0000
  C   C89       1.0  0.38195  0.23078  0.09078  1.0000
  C   C90       1.0  0.37495  0.22187  0.09289  1.0000
  H   H72       1.0  0.39701  0.19608  0.09819  1.0000
  H   H73       1.0  0.40943  0.21177  0.09423  1.0000
  H   H74       1.0  0.37775  0.24041  0.08857  1.0000
  H   H75       1.0  0.36537  0.22468  0.09229  1.0000
  C   C91       1.0  0.36765  0.02639  0.10811  1.0000
  C   C92       1.0  0.37110  0.01565  0.10337  1.0000
  C   C93       1.0  0.36221  0.00975  0.10251  1.0000
  C   C94       1.0  0.34967  0.01468  0.10612  1.0000
  C   C95       1.0  0.34619  0.02547  0.11077  1.0000
  C   C96       1.0  0.35511  0.03124  0.11185  1.0000
  H   H76       1.0  0.38077  0.01180  0.10045  1.0000
  C   C97       1.0  0.39462  0.15137  0.16253  1.0000
  H   H77       1.0  0.33653  0.02942  0.11356  1.0000
  H   H78       1.0  0.35228  0.03951  0.11548  1.0000
  C   C98       1.0  0.37668  0.10743  0.10680  1.0000
  C   C99       1.0  0.37119  0.11997  0.10563  1.0000
  C   C100      1.0  0.37787  0.12847  0.10575  1.0000
  C   C101      1.0  0.39027  0.12456  0.10640  1.0000
  C   C102      1.0  0.39591  0.11212  0.10702  1.0000
  C   C103      1.0  0.38907  0.10353  0.10752  1.0000
  H   H79       1.0  0.36173  0.12311  0.10467  1.0000
  H   H80       1.0  0.37353  0.13809  0.10495  1.0000
  H   H81       1.0  0.40557  0.10906  0.10722  1.0000
  H   H82       1.0  0.39344  0.09392  0.10818  1.0000
  C   C104      1.0  0.47163  0.07566  0.09965  1.0000
  H   H83       1.0  0.49474  0.12506  0.10860  1.0000
  C   C105      1.0  0.36354  0.13947  0.16187  1.0000
  C   C106      1.0  0.35226  0.14685  0.15958  1.0000
  C   C107      1.0  0.34143  0.14523  0.16822  1.0000
  H   H84       1.0  0.48318  0.34213  0.09440  1.0000
  C   C108      1.0  0.36309  0.00228  0.13304  1.0000
  H   H85       1.0  0.37193  0.14055  0.15522  1.0000
  H   H86       1.0  0.36825  0.00434  0.06416  1.0000
  C   C109      1.0  0.38329  0.99071  0.12579  1.0000
  C   C110      1.0  0.35597  0.03299  0.07844  1.0000
  H   H87       1.0  0.42370  0.06555  0.15555  1.0000
  H   H88       1.0  0.09916  0.42473  0.10665  1.0000
  C   C111      1.0  0.37319  0.06286  0.16760  1.0000
  H   H89       1.0  0.49149  0.38006  0.10124  1.0000
  C   C112      1.0  0.36862  0.02886  0.07480  1.0000
  H   H90       1.0  0.11340  0.44434  0.13004  1.0000
  H   H91       1.0  0.13483  0.43606  0.16738  1.0000
  H   H92       1.0  0.34147  0.99050  0.14453  1.0000
  H   H93       1.0  0.38996  0.20959  0.06971  1.0000
  C   C113      1.0  0.44281  0.09671  0.16735  1.0000
  C   C114      1.0  0.44137  0.10944  0.16564  1.0000
  H   H94       1.0  0.17183  0.48604  0.07374  1.0000
  H   H95       1.0  0.14698  0.37924  0.99289  1.0000
  H   H96       1.0  0.07786  0.38103  0.00551  1.0000
  S   S83       1.0  0.11556  0.47940  0.09449  1.0000
  H   H97       1.0  0.44760  0.11423  0.15837  1.0000
  C   C115      1.0  0.43200  0.11593  0.17355  1.0000
  H   H98       1.0  0.36790  0.35280  0.11557  1.0000
  H   H99       1.0  0.38988  0.05337  0.15746  1.0000
  C   C116      1.0  0.44430  0.15252  0.12677  1.0000
  C   C117      1.0  0.44198  0.16374  0.13025  1.0000
  C   C118      1.0  0.42988  0.17014  0.13353  1.0000
  C   C119      1.0  0.42008  0.16551  0.13296  1.0000
  C   C120      1.0  0.42236  0.15434  0.12937  1.0000
  C   C121      1.0  0.43448  0.14774  0.12646  1.0000
  H   H100      1.0  0.44957  0.16746  0.13047  1.0000
  H   H101      1.0  0.42814  0.17875  0.13634  1.0000
  H   H102      1.0  0.41480  0.15076  0.12886  1.0000
  H   H103      1.0  0.43622  0.13920  0.12356  1.0000
  C   C122      1.0  0.43839  0.09026  0.10916  1.0000
  C   C123      1.0  0.44118  0.08158  0.11959  1.0000
  C   C124      1.0  0.43472  0.07204  0.12476  1.0000
  C   C125      1.0  0.42510  0.07137  0.11986  1.0000
  C   C126      1.0  0.42200  0.08031  0.10970  1.0000
  C   C127      1.0  0.42876  0.08963  0.10425  1.0000
  H   H104      1.0  0.44854  0.08198  0.12349  1.0000
  H   H105      1.0  0.43718  0.06514  0.13260  1.0000
  H   H106      1.0  0.41465  0.07982  0.10581  1.0000
  H   H107      1.0  0.42655  0.09629  0.09617  1.0000
  H   H108      1.0  0.35450  0.33763  0.12370  1.0000
  C   C128      1.0  0.47795  0.37314  0.11648  1.0000
  C   C129      1.0  0.37588  0.00101  0.13010  1.0000
  C   C130      1.0  0.47772  0.37502  0.09507  1.0000
  C   C131      1.0  0.46689  0.37040  0.09843  1.0000
  C   C132      1.0  0.46167  0.36703  0.11091  1.0000
  C   C133      1.0  0.46714  0.36846  0.11985  1.0000
  H   H109      1.0  0.35245  0.04081  0.08282  1.0000
  H   H110      1.0  0.43571  0.08076  0.17802  1.0000
  H   H111      1.0  0.45336  0.36345  0.11368  1.0000
  H   H112      1.0  0.46296  0.36594  0.12947  1.0000
  N   N1        1.0  0.43450  0.33596  0.02087  1.0000
  C   C134      1.0  0.44097  0.33264  0.02999  1.0000
  C   C135      1.0  0.42732  0.32856  0.02018  1.0000
  C   C136      1.0  0.43991  0.32195  0.03905  1.0000
  C   C137      1.0  0.42609  0.31779  0.02907  1.0000
  C   C138      1.0  0.43236  0.31451  0.03861  1.0000
  C   C139      1.0  0.43536  0.34746  0.01177  1.0000
  H   H113      1.0  0.44658  0.33855  0.03062  1.0000
  H   H114      1.0  0.42232  0.33108  0.01286  1.0000
  H   H115      1.0  0.44472  0.31962  0.04650  1.0000
  H   H116      1.0  0.42021  0.31209  0.02858  1.0000
  H   H117      1.0  0.43133  0.30625  0.04567  1.0000
  H   H118      1.0  0.44362  0.34599  0.00434  1.0000
  H   H119      1.0  0.42705  0.35103  0.00770  1.0000
  H   H120      1.0  0.43588  0.35476  0.01613  1.0000
  H   H121      1.0  0.40222  0.15253  0.15474  1.0000
  C   C140      1.0  0.37205  0.34307  0.11742  1.0000
  H   H122      1.0  0.29500  0.38344  0.05396  1.0000
  H   H123      1.0  0.36531  0.23533  0.05966  1.0000
  H   H124      1.0  0.09305  0.35509  0.99839  1.0000
  H   H125      1.0  0.35831  0.07298  0.17914  1.0000
  C   C141      1.0  0.35369  0.11531  0.15273  1.0000
  H   H126      1.0  0.37386  0.21430  0.07042  1.0000
  H   H127      1.0  0.38426  0.21271  0.05586  1.0000
  C   C142      1.0  0.38562  0.25313  0.05613  1.0000
  C   C143      1.0  0.35425  0.09761  0.14041  1.0000
  H   H128      1.0  0.38630  0.26271  0.05382  1.0000
  C   C144      1.0  0.38247  0.31815  0.12162  1.0000
  H   H129      1.0  0.40424  0.24613  0.05876  1.0000
  H   H130      1.0  0.40201  0.34430  0.11133  1.0000
  H   H131      1.0  0.40252  0.22443  0.06374  1.0000
  C   C145      1.0  0.38296  0.21569  0.06455  1.0000
  C   C146      1.0  0.16484  0.42762  0.03762  1.0000
  H   H132      1.0  0.36675  0.25728  0.05452  1.0000
  H   H133      1.0  0.39219  0.35216  0.10061  1.0000
  C   C147      1.0  0.36971  0.32201  0.12410  1.0000
  C   C148      1.0  0.18173  0.42171  0.02141  1.0000
  N   N2        1.0  0.44456  0.39547  0.10241  1.0000
  H   H134      1.0  0.37264  0.12497  0.17465  1.0000
  C   C149      1.0  0.29904  0.36401  0.05490  1.0000
  H   H135      1.0  0.30826  0.36258  0.05634  1.0000
  H   H136      1.0  0.30017  0.34483  0.05619  1.0000
  C   C150      1.0  0.39231  0.34832  0.11044  1.0000
  N   N3        1.0  0.38456  0.33920  0.11533  1.0000
  C   C151      1.0  0.47695  0.06640  0.10837  1.0000
  C   C152      1.0  0.16936  0.42256  0.02718  1.0000
  C   C153      1.0  0.39570  0.24385  0.05875  1.0000
  C   C154      1.0  0.19124  0.36519  0.13194  1.0000
  C   C155      1.0  0.36444  0.33454  0.12195  1.0000
  H   H137      1.0  0.47355  0.09221  0.08611  1.0000
  C   C156      1.0  0.18458  0.43080  0.03666  1.0000
  H   H138      1.0  0.38889  0.35601  0.11538  1.0000
  H   H139      1.0  0.27444  0.39576  0.05515  1.0000
  C   C157      1.0  0.38981  0.32693  0.11723  1.0000
  H   H140      1.0  0.16330  0.41927  0.02365  1.0000
  H   H141      1.0  0.27877  0.34816  0.05340  1.0000
  H   H142      1.0  0.49172  0.10304  0.09043  1.0000
  C   C158      1.0  0.37306  0.01850  0.06962  1.0000
  H   H143      1.0  0.45495  0.40085  0.08434  1.0000
  H   H144      1.0  0.45161  0.39631  0.12870  1.0000
  H   H145      1.0  0.38171  0.16652  0.15448  1.0000
  N   N4        1.0  0.35314  0.11862  0.14060  1.0000
  S   S84       1.0  0.48422  0.37508  0.12815  1.0000
  H   H146      1.0  0.46252  0.07588  0.09853  1.0000
  H   H147      1.0  0.43105  0.12572  0.17239  1.0000
  C   C159      1.0  0.37389  0.23767  0.05942  1.0000
  N   N5        1.0  0.35785  0.99357  0.13161  1.0000
  C   C160      1.0  0.37462  0.25006  0.05650  1.0000
  C   C161      1.0  0.39467  0.23156  0.06157  1.0000
  H   H148      1.0  0.35541  0.08467  0.15748  1.0000
  N   N6        1.0  0.35944  0.38900  0.03205  1.0000
  C   C162      1.0  0.34819  0.38842  0.03972  1.0000
  C   C163      1.0  0.36144  0.38787  0.02018  1.0000
  C   C164      1.0  0.33859  0.38673  0.03553  1.0000
  C   C165      1.0  0.35204  0.38620  0.01569  1.0000
  C   C166      1.0  0.34058  0.38555  0.02344  1.0000
  C   C167      1.0  0.36963  0.39011  0.03671  1.0000
  H   H149      1.0  0.34661  0.38917  0.04918  1.0000
  H   H150      1.0  0.37039  0.38817  0.01414  1.0000
  H   H151      1.0  0.32973  0.38617  0.04165  1.0000
  H   H152      1.0  0.35365  0.38514  0.00633  1.0000
  H   H153      1.0  0.33337  0.38386  0.02011  1.0000
  H   H154      1.0  0.37551  0.39595  0.02965  1.0000
  H   H155      1.0  0.36628  0.39422  0.04496  1.0000
  H   H156      1.0  0.37544  0.38085  0.03927  1.0000
  N   N7        1.0  0.17236  0.43192  0.04206  1.0000
  H   H157      1.0  0.08996  0.47232  0.10890  1.0000
  C   C168      1.0  0.09457  0.45425  0.10482  1.0000
  S   S85       1.0  0.40378  0.35399  0.99399  1.0000
  H   H158      1.0  0.12720  0.42817  0.15354  1.0000
  C   C169      1.0  0.12178  0.42880  0.16267  1.0000
  H   H159      1.0  0.47199  0.05937  0.11406  1.0000
  H   H160      1.0  0.43841  0.39127  0.08838  1.0000
  C   C170      1.0  0.36394  0.13061  0.17288  1.0000
  S   S86       1.0  0.38007  0.34502  0.99109  1.0000
  C   C171      1.0  0.48325  0.37635  0.10400  1.0000
  C   C172      1.0  0.38311  0.15920  0.16242  1.0000
  H   H161      1.0  0.33924  0.01566  0.06248  1.0000
  H   H162      1.0  0.19917  0.42472  0.02205  1.0000
  C   C173      1.0  0.16745  0.43734  0.05292  1.0000
  H   H163      1.0  0.36391  0.31529  0.12759  1.0000
  C   C174      1.0  0.18140  0.37162  0.13933  1.0000
  C   C175      1.0  0.18942  0.42580  0.02619  1.0000
  H   H164      1.0  0.13047  0.39854  0.17122  1.0000
  C   C176      1.0  0.48850  0.06647  0.10997  1.0000
  C   C177      1.0  0.29448  0.35402  0.05483  1.0000
  C   C178      1.0  0.34364  0.01013  0.07021  1.0000
  N   N8        1.0  0.15035  0.41619  0.08258  1.0000
  C   C179      1.0  0.15841  0.41179  0.09029  1.0000
  C   C180      1.0  0.15030  0.40965  0.07435  1.0000
  C   C181      1.0  0.16633  0.40029  0.09026  1.0000
  C   C182      1.0  0.15793  0.39801  0.07423  1.0000
  C   C183      1.0  0.16592  0.39328  0.08231  1.0000
  C   C184      1.0  0.14203  0.42818  0.08293  1.0000
  H   H165      1.0  0.15867  0.41712  0.09659  1.0000
  H   H166      1.0  0.14404  0.41323  0.06810  1.0000
  H   H167      1.0  0.17270  0.39686  0.09640  1.0000
  H   H168      1.0  0.15748  0.39263  0.06804  1.0000
  H   H169      1.0  0.17186  0.38424  0.08236  1.0000
  H   H170      1.0  0.13399  0.42916  0.07896  1.0000
  H   H171      1.0  0.13823  0.42924  0.09257  1.0000
  H   H172      1.0  0.14698  0.43565  0.07781  1.0000
  N   N9        1.0  0.16458  0.35538  0.06942  1.0000
  C   C185      1.0  0.16127  0.35861  0.05831  1.0000
  C   C186      1.0  0.17637  0.35487  0.07005  1.0000
  C   C187      1.0  0.16987  0.36154  0.04747  1.0000
  C   C188      1.0  0.18516  0.35789  0.05941  1.0000
  C   C189      1.0  0.18187  0.36119  0.04805  1.0000
  C   C190      1.0  0.15572  0.35187  0.08075  1.0000
  H   H173      1.0  0.15194  0.35896  0.05776  1.0000
  H   H174      1.0  0.17903  0.35207  0.07884  1.0000
  H   H175      1.0  0.16725  0.36410  0.03866  1.0000
  H   H176      1.0  0.19447  0.35762  0.06001  1.0000
  H   H177      1.0  0.18859  0.36354  0.03969  1.0000
  H   H178      1.0  0.15783  0.34176  0.08414  1.0000
  H   H179      1.0  0.15611  0.35641  0.08794  1.0000
  H   H180      1.0  0.14612  0.35470  0.07934  1.0000
  N   N10       1.0  0.34429  0.30828  0.07978  1.0000
  C   C191      1.0  0.34835  0.29606  0.08430  1.0000
  C   C192      1.0  0.33491  0.31515  0.08677  1.0000
  C   C193      1.0  0.34330  0.29051  0.09625  1.0000
  C   C194      1.0  0.32965  0.30992  0.09875  1.0000
  C   C195      1.0  0.33391  0.29752  0.10352  1.0000
  C   C196      1.0  0.34967  0.31388  0.06720  1.0000
  H   H181      1.0  0.35563  0.29057  0.07869  1.0000
  H   H182      1.0  0.33151  0.32476  0.08317  1.0000
  H   H183      1.0  0.34687  0.28094  0.09999  1.0000
  H   H184      1.0  0.32252  0.31554  0.10439  1.0000
  H   H185      1.0  0.33017  0.29344  0.11293  1.0000
  H   H186      1.0  0.34914  0.32383  0.06620  1.0000
  H   H187      1.0  0.35953  0.30953  0.06454  1.0000
  H   H188      1.0  0.34462  0.31284  0.06074  1.0000
  C   C197      1.0  0.35256  0.13152  0.13425  1.0000
  H   H189      1.0  0.35338  0.12217  0.15764  1.0000
  H   H190      1.0  0.34465  0.13755  0.13915  1.0000
  C   C198      1.0  0.11055  0.42508  0.16675  1.0000
  H   H191      1.0  0.46885  0.40455  0.11372  1.0000
  H   H192      1.0  0.40334  0.05703  0.16898  1.0000
  H   H193      1.0  0.10725  0.42133  0.16089  1.0000
  H   H194      1.0  0.08975  0.45728  0.09733  1.0000
  C   C199      1.0  0.10149  0.45923  0.12043  1.0000
  H   H195      1.0  0.33268  0.15085  0.16648  1.0000
  H   H196      1.0  0.35457  0.09075  0.13543  1.0000
  H   H197      1.0  0.11022  0.43164  0.09435  1.0000
  C   C200      1.0  0.09470  0.46283  0.11129  1.0000
  H   H198      1.0  0.49491  0.09661  0.07698  1.0000
  C   C201      1.0  0.14840  0.38567  0.98382  1.0000
  C   C202      1.0  0.10102  0.43353  0.10047  1.0000
  H   H199      1.0  0.10210  0.46590  0.12518  1.0000
  H   H200      1.0  0.33809  0.02968  0.08012  1.0000
  C   C203      1.0  0.43553  0.39157  0.09829  1.0000
  N   N11       1.0  0.38915  0.22881  0.11973  1.0000
  C   C204      1.0  0.40137  0.22842  0.11847  1.0000
  C   C205      1.0  0.38478  0.21819  0.12350  1.0000
  C   C206      1.0  0.40962  0.21717  0.12073  1.0000
  C   C207      1.0  0.39278  0.20679  0.12589  1.0000
  C   C208      1.0  0.40528  0.20630  0.12445  1.0000
  C   C209      1.0  0.38066  0.24073  0.11743  1.0000
  H   H201      1.0  0.40485  0.23683  0.11535  1.0000
  H   H202      1.0  0.37511  0.21845  0.12446  1.0000
  H   H203      1.0  0.41935  0.21689  0.11944  1.0000
  H   H204      1.0  0.38936  0.19835  0.12868  1.0000
  H   H205      1.0  0.41158  0.19750  0.12615  1.0000
  H   H206      1.0  0.37246  0.23986  0.11468  1.0000
  H   H207      1.0  0.37761  0.24467  0.12577  1.0000
  H   H208      1.0  0.38518  0.24729  0.10977  1.0000
  N   N12       1.0  0.43329  0.13778  0.09234  1.0000
  C   C210      1.0  0.42566  0.14869  0.09429  1.0000
  C   C211      1.0  0.44540  0.13548  0.09292  1.0000
  C   C212      1.0  0.43017  0.15775  0.09664  1.0000
  C   C213      1.0  0.45022  0.14436  0.09517  1.0000
  C   C214      1.0  0.44254  0.15555  0.09703  1.0000
  C   C215      1.0  0.42833  0.12821  0.09034  1.0000
  H   H209      1.0  0.41599  0.15039  0.09415  1.0000
  H   H210      1.0  0.45134  0.12668  0.09174  1.0000
  H   H211      1.0  0.42408  0.16630  0.09842  1.0000
  H   H212      1.0  0.45977  0.14254  0.09582  1.0000
  H   H213      1.0  0.44612  0.16232  0.09922  1.0000
  H   H214      1.0  0.42519  0.12219  0.09930  1.0000
  H   H215      1.0  0.42038  0.13223  0.08581  1.0000
  H   H216      1.0  0.43537  0.12240  0.08446  1.0000
  H   H217      1.0  0.35740  0.01047  0.13610  1.0000
  C   C216      1.0  0.36473  0.01240  0.06817  1.0000
  C   C217      1.0  0.45395  0.40018  0.09407  1.0000
  C   C218      1.0  0.48782  0.34327  0.10090  1.0000
  H   H218      1.0  0.09412  0.43707  0.09458  1.0000
  C   C219      1.0  0.35483  0.09418  0.15276  1.0000
  H   H219      1.0  0.42644  0.39793  0.09984  1.0000
  C   C220      1.0  0.48893  0.34190  0.12174  1.0000
  C   C221      1.0  0.44350  0.39433  0.11470  1.0000
  H   H220      1.0  0.36509  0.00150  0.09890  1.0000
  C   C222      1.0  0.36815  0.06968  0.17678  1.0000
  C   C223      1.0  0.12609  0.43320  0.17047  1.0000
  H   H221      1.0  0.38666  0.30842  0.12307  1.0000
  H   H222      1.0  0.37496  0.03350  0.07630  1.0000
  C   C224      1.0  0.39355  0.06074  0.17105  1.0000
  H   H223      1.0  0.15526  0.42811  0.04210  1.0000
  H   H224      1.0  0.19214  0.35541  0.13279  1.0000
  C   C225      1.0  0.45216  0.39767  0.11894  1.0000
  H   H225      1.0  0.17102  0.44576  0.05160  1.0000
  C   C226      1.0  0.35332  0.10996  0.13445  1.0000
  H   H226      1.0  0.17465  0.36685  0.14593  1.0000
  H   H227      1.0  0.27310  0.39423  0.04041  1.0000
  Fe  Fe42      1.0  0.12508  0.38943  0.15244  1.0000
  H   H228      1.0  0.20701  0.36659  0.11707  1.0000
  C   C227      1.0  0.38852  0.06753  0.18023  1.0000
  C   C228      1.0  0.46184  0.40233  0.11052  1.0000
  H   H229      1.0  0.39973  0.32386  0.11538  1.0000
  C   C229      1.0  0.19953  0.37149  0.12306  1.0000
  C   C230      1.0  0.27526  0.36778  0.05172  1.0000
  H   H230      1.0  0.19069  0.43369  0.04048  1.0000
  H   H231      1.0  0.11278  0.42941  0.11843  1.0000
  C   C231      1.0  0.10754  0.43875  0.11650  1.0000
  H   H232      1.0  0.49058  0.13010  0.13651  1.0000
  N   N13       1.0  0.35233  0.01645  0.07190  1.0000
  H   H233      1.0  0.17021  0.43065  0.06109  1.0000
  C   C232      1.0  0.46271  0.40370  0.09799  1.0000
  H   H234      1.0  0.33977  0.00488  0.13331  1.0000
  N   N14       1.0  0.10086  0.44236  0.10754  1.0000
  S   S87       1.0  0.14404  0.48213  0.09214  1.0000
  C   C233      1.0  0.10791  0.44711  0.12311  1.0000
  C   C234      1.0  0.43468  0.09058  0.17670  1.0000
  N   N15       1.0  0.48935  0.08475  0.09409  1.0000
  C   C235      1.0  0.34791  0.02664  0.07690  1.0000
  H   H235      1.0  0.49259  0.05950  0.11694  1.0000
  C   C236      1.0  0.37344  0.15748  0.17258  1.0000
  N   N16       1.0  0.39366  0.33662  0.06089  1.0000
  C   C237      1.0  0.39529  0.32514  0.05880  1.0000
  C   C238      1.0  0.38459  0.34593  0.05680  1.0000
  C   C239      1.0  0.38780  0.32278  0.05238  1.0000
  C   C240      1.0  0.37688  0.34390  0.05041  1.0000
  C   C241      1.0  0.37853  0.33225  0.04817  1.0000
  C   C242      1.0  0.40147  0.33877  0.06787  1.0000
  H   H236      1.0  0.40243  0.31775  0.06211  1.0000
  H   H237      1.0  0.38330  0.35502  0.05841  1.0000
  H   H238      1.0  0.38919  0.31367  0.05068  1.0000
  H   H239      1.0  0.36972  0.35137  0.04721  1.0000
  H   H240      1.0  0.37265  0.33059  0.04313  1.0000
  H   H241      1.0  0.41133  0.33516  0.06415  1.0000
  H   H242      1.0  0.40049  0.34874  0.06731  1.0000
  H   H243      1.0  0.39910  0.33412  0.07766  1.0000
  N   N17       1.0  0.41842  0.08497  0.14942  1.0000
  C   C243      1.0  0.40956  0.08421  0.14398  1.0000
  C   C244      1.0  0.42197  0.09585  0.14739  1.0000
  C   C245      1.0  0.40428  0.09447  0.13601  1.0000
  C   C246      1.0  0.41680  0.10631  0.13957  1.0000
  C   C247      1.0  0.40792  0.10558  0.13383  1.0000
  C   C248      1.0  0.42371  0.07424  0.15794  1.0000
  H   H244      1.0  0.40671  0.07558  0.14558  1.0000
  H   H245      1.0  0.42890  0.09648  0.15178  1.0000
  H   H246      1.0  0.39750  0.09375  0.13146  1.0000
  H   H247      1.0  0.41969  0.11490  0.13796  1.0000
  H   H248      1.0  0.40389  0.11363  0.12771  1.0000
  C   C249      1.0  0.11626  0.38355  0.98787  1.0000
  H   H249      1.0  0.43343  0.07426  0.15765  1.0000
  H   H250      1.0  0.41830  0.07437  0.16744  1.0000
  H   H251      1.0  0.43462  0.38210  0.10333  1.0000
  C   C250      1.0  0.29151  0.37578  0.05346  1.0000
  H   H252      1.0  0.18415  0.40641  0.13654  1.0000
  H   H253      1.0  0.19483  0.40721  0.12203  1.0000
  H   H254      1.0  0.17883  0.40843  0.12269  1.0000
  C   C251      1.0  0.18647  0.40374  0.12753  1.0000
  N   N18       1.0  0.38382  0.22861  0.06196  1.0000
  H   H255      1.0  0.36447  0.16348  0.17233  1.0000
  H   H256      1.0  0.47035  0.40708  0.09139  1.0000
  H   H257      1.0  0.26215  0.38963  0.05429  1.0000
  C   C252      1.0  0.11331  0.39375  0.18167  1.0000
  H   H258      1.0  0.15726  0.44026  0.05466  1.0000
  C   C253      1.0  0.08779  0.36033  0.99149  1.0000
  C   C254      1.0  0.35456  0.10305  0.15900  1.0000
  H   H259      1.0  0.35146  0.13316  0.12466  1.0000
  N   N19       1.0  0.27974  0.37751  0.05201  1.0000
  N   N20       1.0  0.18831  0.39040  0.12915  1.0000
  H   H260      1.0  0.20420  0.38909  0.11461  1.0000
  H   H261      1.0  0.17235  0.38925  0.14349  1.0000
  C   C255      1.0  0.28251  0.35589  0.05323  1.0000
  C   C256      1.0  0.27202  0.38992  0.05031  1.0000
  C   C257      1.0  0.19787  0.38420  0.12171  1.0000
  C   C258      1.0  0.18007  0.38430  0.13780  1.0000
  H   H262      1.0  0.36114  0.13433  0.13394  1.0000
  C   C259      1.0  0.35305  0.12915  0.18155  1.0000
  C   C260      1.0  0.11861  0.36226  0.98671  1.0000
  H   H263      1.0  0.47490  0.33622  0.11679  1.0000
  N   N21       1.0  0.08399  0.37281  0.99002  1.0000
  C   C261      1.0  0.49458  0.07581  0.10275  1.0000
  C   C262      1.0  0.08626  0.37915  0.99833  1.0000
  C   C263      1.0  0.34444  0.99501  0.13481  1.0000
  C   C264      1.0  0.39636  0.14203  0.17277  1.0000
  H   H264      1.0  0.08900  0.38797  0.99321  1.0000
  Fe  Fe43      1.0  0.34154  0.98910  0.09989  1.0000
  H   H265      1.0  0.34128  0.99091  0.12885  1.0000
  C   C265      1.0  0.34182  0.13643  0.17914  1.0000
  C   C266      1.0  0.48315  0.33998  0.11348  1.0000
  H   H266      1.0  0.14960  0.36227  0.98364  1.0000
  C   C267      1.0  0.10379  0.42581  0.17863  1.0000
  C   C268      1.0  0.08538  0.35415  0.98383  1.0000
  N   N22       1.0  0.37521  0.14819  0.18256  1.0000
  H   H267      1.0  0.09518  0.42269  0.18180  1.0000
  C   C269      1.0  0.11911  0.43378  0.18229  1.0000
  C   C270      1.0  0.38106  0.04253  0.20050  1.0000
  Fe  Fe44      1.0  0.39704  0.10711  0.20094  1.0000
  Fe  Fe45      1.0  0.38128  0.09341  0.22307  1.0000
  S   S88       1.0  0.37156  0.08844  0.21123  1.0000
  S   S89       1.0  0.37736  0.08542  0.24354  1.0000
  Fe  Fe46      1.0  0.39008  0.08466  0.19883  1.0000
  C   C271      1.0  0.36904  0.99478  0.33585  1.0000
  Fe  Fe47      1.0  0.37077  0.10792  0.20078  1.0000
  S   S90       1.0  0.40000  0.08767  0.21160  1.0000
  S   S91       1.0  0.37911  0.11331  0.21346  1.0000
  H   H268      1.0  0.33691  0.99776  0.35703  1.0000
  H   H269      1.0  0.31803  0.13282  0.35188  1.0000
  S   S92       1.0  0.38842  0.10368  0.18739  1.0000
  Fe  Fe48      1.0  0.08029  0.21726  0.36321  1.0000
  N   N23       1.0  0.13491  0.37283  0.20386  1.0000
  S   S93       1.0  0.07722  0.20632  0.35131  1.0000
  Fe  Fe49      1.0  0.07930  0.24226  0.36797  1.0000
  S   S94       1.0  0.07373  0.26256  0.36007  1.0000
  H   H270      1.0  0.39390  0.07725  0.30063  1.0000
  S   S95       1.0  0.09330  0.23019  0.35628  1.0000
  C   C272      1.0  0.05834  0.43302  0.28319  1.0000
  S   S96       1.0  0.26356  0.06863  0.37089  1.0000
  H   H271      1.0  0.36525  0.15206  0.19984  1.0000
  H   H272      1.0  0.35602  0.14973  0.19055  1.0000
  S   S97       1.0  0.04298  0.15658  0.35290  1.0000
  S   S98       1.0  0.27920  0.09244  0.37603  1.0000
  Fe  Fe50      1.0  0.03263  0.14124  0.36170  1.0000
  S   S99       1.0  0.01736  0.14171  0.35207  1.0000
  Fe  Fe51      1.0  0.05950  0.14333  0.35895  1.0000
  S   S100      1.0  0.07865  0.14270  0.34704  1.0000
  H   H273      1.0  0.22401  0.12749  0.33542  1.0000
  C   C273      1.0  0.06431  0.39832  0.36497  1.0000
  S   S101      1.0  0.06555  0.23012  0.37341  1.0000
  H   H274      1.0  0.99857  0.12824  0.37659  1.0000
  Fe  Fe52      1.0  0.15010  0.15650  0.35716  1.0000
  S   S102      1.0  0.15277  0.13823  0.35236  1.0000
  S   S103      1.0  0.14581  0.17420  0.34380  1.0000
  H   H275      1.0  0.10718  0.27503  0.36932  1.0000
  H   H276      1.0  0.99707  0.14836  0.34012  1.0000
  Fe  Fe53      1.0  0.16731  0.13229  0.36377  1.0000
  S   S104      1.0  0.18603  0.11973  0.35982  1.0000
  H   H277      1.0  0.35475  0.11859  0.37585  1.0000
  S   S105      1.0  0.16553  0.15098  0.36714  1.0000
  H   H278      1.0  0.08862  0.18501  0.34077  1.0000
  H   H279      1.0  0.07012  0.12683  0.33662  1.0000
  C   C274      1.0  0.35119  0.06425  0.31632  1.0000
  H   H280      1.0  0.39573  0.06089  0.21619  1.0000
  H   H281      1.0  0.03661  0.42576  0.27371  1.0000
  S   S106      1.0  0.37438  0.03429  0.33896  1.0000
  S   S107      1.0  0.34652  0.02073  0.35003  1.0000
  C   C275      1.0  0.32670  0.14450  0.35696  1.0000
  S   S108      1.0  0.35644  0.02522  0.37240  1.0000
  C   C276      1.0  0.36861  0.05748  0.21702  1.0000
  H   H282      1.0  0.12259  0.43712  0.18833  1.0000
  S   S109      1.0  0.03295  0.17933  0.37611  1.0000
  H   H283      1.0  0.34184  0.08288  0.31069  1.0000
  H   H284      1.0  0.12137  0.36244  0.18723  1.0000
  S   S110      1.0  0.27987  0.12338  0.35229  1.0000
  S   S111      1.0  0.25366  0.10450  0.36586  1.0000
  Fe  Fe54      1.0  0.36049  0.11452  0.30112  1.0000
  S   S112      1.0  0.36191  0.09482  0.31080  1.0000
  S   S113      1.0  0.36312  0.12124  0.28057  1.0000
  Fe  Fe55      1.0  0.35687  0.12303  0.32494  1.0000
  S   S114      1.0  0.35814  0.10407  0.33655  1.0000
  S   S115      1.0  0.35445  0.13950  0.33279  1.0000
  Fe  Fe56      1.0  0.37354  0.09887  0.32121  1.0000
  S   S116      1.0  0.39064  0.08506  0.32410  1.0000
  Fe  Fe57      1.0  0.34629  0.10187  0.32519  1.0000
  S   S117      1.0  0.33175  0.09090  0.33451  1.0000
  S   S118      1.0  0.37353  0.11804  0.31048  1.0000
  S   S119      1.0  0.34366  0.12140  0.31460  1.0000
  H   H285      1.0  0.09584  0.42331  0.20258  1.0000
  C   C277      1.0  0.08565  0.36193  0.36960  1.0000
  H   H286      1.0  0.35595  0.05210  0.38215  1.0000
  Fe  Fe58      1.0  0.02232  0.37409  0.32695  1.0000
  S   S120      1.0  0.00733  0.38525  0.31740  1.0000
  S   S121      1.0  0.02532  0.35368  0.33307  1.0000
  Fe  Fe59      1.0  0.02920  0.39618  0.33072  1.0000
  S   S122      1.0  0.01412  0.40956  0.32214  1.0000
  S   S123      1.0  0.04475  0.39809  0.33801  1.0000
  C   C278      1.0  0.07623  0.39596  0.36685  1.0000
  Fe  Fe60      1.0  0.02044  0.39788  0.30800  1.0000
  S   S124      1.0  0.02250  0.40621  0.28790  1.0000
  S   S125      1.0  0.01656  0.38382  0.34241  1.0000
  S   S126      1.0  0.03611  0.38541  0.31588  1.0000
  Fe  Fe61      1.0  0.11004  0.40302  0.23198  1.0000
  S   S127      1.0  0.11661  0.40748  0.24661  1.0000
  S   S128      1.0  0.12163  0.40569  0.21267  1.0000
  Fe  Fe62      1.0  0.08789  0.39482  0.24989  1.0000
  S   S129      1.0  0.09235  0.39855  0.26592  1.0000
  S   S130      1.0  0.07138  0.38724  0.25179  1.0000
  Fe  Fe63      1.0  0.09682  0.41582  0.25322  1.0000
  S   S131      1.0  0.08930  0.43238  0.26170  1.0000
  Fe  Fe64      1.0  0.11165  0.38989  0.25818  1.0000
  S   S132      1.0  0.12235  0.37732  0.27187  1.0000
  S   S133      1.0  0.09053  0.41300  0.23759  1.0000
  S   S134      1.0  0.10689  0.38452  0.24308  1.0000
  Fe  Fe65      1.0  0.10446  0.34597  0.34377  1.0000
  S   S135      1.0  0.08606  0.35483  0.33921  1.0000
  S   S136      1.0  0.11777  0.35747  0.34303  1.0000
  Fe  Fe66      1.0  0.10040  0.31971  0.34796  1.0000
  S   S137      1.0  0.08184  0.32679  0.34324  1.0000
  S   S138      1.0  0.10767  0.29941  0.35489  1.0000
  Fe  Fe67      1.0  0.09058  0.34047  0.32807  1.0000
  S   S139      1.0  0.08558  0.34638  0.30958  1.0000
  Fe  Fe68      1.0  0.07936  0.34025  0.35484  1.0000
  S   S140      1.0  0.06159  0.34244  0.36850  1.0000
  S   S141      1.0  0.10957  0.33226  0.33168  1.0000
  S   S142      1.0  0.09735  0.33252  0.36055  1.0000
  Fe  Fe69      1.0  0.10175  0.45647  0.33332  1.0000
  S   S143      1.0  0.09559  0.45845  0.31578  1.0000
  S   S144      1.0  0.10258  0.47458  0.33768  1.0000
  Fe  Fe70      1.0  0.10270  0.42859  0.33984  1.0000
  S   S145      1.0  0.09712  0.42855  0.32288  1.0000
  S   S146      1.0  0.10635  0.41081  0.35369  1.0000
  Fe  Fe71      1.0  0.10986  0.44135  0.31348  1.0000
  S   S147      1.0  0.12176  0.43731  0.29567  1.0000
  Fe  Fe72      1.0  0.08321  0.44544  0.32670  1.0000
  S   S148      1.0  0.06413  0.44745  0.32370  1.0000
  S   S149      1.0  0.11700  0.44001  0.33013  1.0000
  S   S150      1.0  0.08790  0.44482  0.34450  1.0000
  C   C279      1.0  0.11303  0.37217  0.34656  1.0000
  C   C280      1.0  0.10479  0.38175  0.34068  1.0000
  C   C281      1.0  0.10280  0.39383  0.34246  1.0000
  C   C282      1.0  0.10881  0.39621  0.35037  1.0000
  C   C283      1.0  0.11671  0.38653  0.35643  1.0000
  C   C284      1.0  0.11897  0.37467  0.35437  1.0000
  H   H287      1.0  0.10032  0.37993  0.33444  1.0000
  H   H288      1.0  0.09653  0.40124  0.33787  1.0000
  H   H289      1.0  0.24689  0.12343  0.33171  1.0000
  H   H290      1.0  0.12549  0.36740  0.35878  1.0000
  C   C285      1.0  0.09843  0.43384  0.27099  1.0000
  C   C286      1.0  0.09308  0.44049  0.28028  1.0000
  C   C287      1.0  0.10018  0.44147  0.28796  1.0000
  C   C288      1.0  0.11275  0.43616  0.28612  1.0000
  C   C289      1.0  0.11813  0.42962  0.27677  1.0000
  C   C290      1.0  0.11095  0.42831  0.26934  1.0000
  H   H291      1.0  0.08345  0.44490  0.28157  1.0000
  H   H292      1.0  0.09596  0.44658  0.29513  1.0000
  H   H293      1.0  0.12787  0.42560  0.27521  1.0000
  H   H294      1.0  0.11520  0.42334  0.26210  1.0000
  C   C291      1.0  0.11294  0.36751  0.28172  1.0000
  C   C292      1.0  0.10218  0.36696  0.27871  1.0000
  C   C293      1.0  0.09393  0.36020  0.28718  1.0000
  C   C294      1.0  0.09639  0.35402  0.29870  1.0000
  C   C295      1.0  0.10724  0.35444  0.30162  1.0000
  C   C296      1.0  0.11560  0.36100  0.29308  1.0000
  H   H295      1.0  0.10014  0.37179  0.26989  1.0000
  H   H296      1.0  0.08556  0.36002  0.28483  1.0000
  H   H297      1.0  0.10920  0.34981  0.31047  1.0000
  H   H298      1.0  0.12401  0.36114  0.29540  1.0000
  C   C297      1.0  0.03639  0.40098  0.27819  1.0000
  C   C298      1.0  0.04762  0.39739  0.28198  1.0000
  C   C299      1.0  0.05860  0.39369  0.27372  1.0000
  C   C300      1.0  0.05826  0.39340  0.26179  1.0000
  C   C301      1.0  0.04704  0.39707  0.25807  1.0000
  C   C302      1.0  0.03618  0.40103  0.26618  1.0000
  H   H299      1.0  0.04786  0.39762  0.29117  1.0000
  H   H300      1.0  0.06725  0.39068  0.27668  1.0000
  H   H301      1.0  0.04672  0.39678  0.24890  1.0000
  H   H302      1.0  0.02755  0.40394  0.26318  1.0000
  C   C303      1.0  0.04960  0.41205  0.33435  1.0000
  C   C304      1.0  0.04245  0.42315  0.32938  1.0000
  C   C305      1.0  0.04686  0.43406  0.32639  1.0000
  C   C306      1.0  0.05844  0.43386  0.32824  1.0000
  C   C307      1.0  0.06549  0.42275  0.33331  1.0000
  C   C308      1.0  0.06114  0.41188  0.33623  1.0000
  H   H303      1.0  0.03348  0.42334  0.32803  1.0000
  H   H304      1.0  0.04128  0.44270  0.32271  1.0000
  H   H305      1.0  0.07429  0.42251  0.33502  1.0000
  H   H306      1.0  0.06686  0.40327  0.33973  1.0000
  C   C309      1.0  0.03510  0.35045  0.34325  1.0000
  C   C310      1.0  0.03380  0.34138  0.35402  1.0000
  C   C311      1.0  0.04146  0.33936  0.36228  1.0000
  C   C312      1.0  0.05064  0.34614  0.35949  1.0000
  C   C313      1.0  0.05192  0.35512  0.34871  1.0000
  C   C314      1.0  0.04403  0.35742  0.34073  1.0000
  H   H307      1.0  0.02678  0.33610  0.35607  1.0000
  H   H308      1.0  0.04047  0.33239  0.37063  1.0000
  H   H309      1.0  0.06278  0.36925  0.36547  1.0000
  H   H310      1.0  0.04506  0.36446  0.33250  1.0000
  N   N24       1.0  0.32935  0.07075  0.31773  1.0000
  C   C315      1.0  0.10487  0.39343  0.19296  1.0000
  C   C316      1.0  0.10725  0.39712  0.20258  1.0000
  C   C317      1.0  0.11804  0.40127  0.20086  1.0000
  C   C318      1.0  0.12630  0.40190  0.18947  1.0000
  H   H311      1.0  0.22162  0.14416  0.36511  1.0000
  H   H312      1.0  0.09657  0.39010  0.19435  1.0000
  H   H313      1.0  0.10080  0.39666  0.21133  1.0000
  H   H314      1.0  0.13459  0.40525  0.18803  1.0000
  C   C319      1.0  0.11431  0.36356  0.20622  1.0000
  C   C320      1.0  0.35731  0.13742  0.34745  1.0000
  C   C321      1.0  0.36119  0.14677  0.34997  1.0000
  C   C322      1.0  0.36299  0.14589  0.36167  1.0000
  C   C323      1.0  0.36054  0.13585  0.37111  1.0000
  C   C324      1.0  0.35647  0.12649  0.36870  1.0000
  C   C325      1.0  0.35501  0.12720  0.35681  1.0000
  H   H315      1.0  0.36289  0.15473  0.34280  1.0000
  H   H316      1.0  0.36621  0.15311  0.36342  1.0000
  C   C326      1.0  0.02863  0.14789  0.32058  1.0000
  H   H317      1.0  0.35179  0.12004  0.35498  1.0000
  C   C327      1.0  0.29418  0.11455  0.34670  1.0000
  C   C328      1.0  0.29546  0.10202  0.34738  1.0000
  C   C329      1.0  0.30706  0.09476  0.34376  1.0000
  C   C330      1.0  0.31738  0.10009  0.33923  1.0000
  C   C331      1.0  0.31610  0.11265  0.33839  1.0000
  C   C332      1.0  0.30448  0.11991  0.34203  1.0000
  H   H318      1.0  0.28747  0.09793  0.35048  1.0000
  H   H319      1.0  0.30799  0.08506  0.34440  1.0000
  H   H320      1.0  0.32405  0.11679  0.33502  1.0000
  H   H321      1.0  0.30346  0.12963  0.34135  1.0000
  C   C333      1.0  0.30025  0.05586  0.35945  1.0000
  C   C334      1.0  0.07062  0.38284  0.31134  1.0000
  C   C335      1.0  0.36838  0.04680  0.20183  1.0000
  H   H322      1.0  0.07920  0.16711  0.35672  1.0000
  S   S151      1.0  0.12014  0.21535  0.37426  1.0000
  C   C336      1.0  0.37893  0.04831  0.33554  1.0000
  C   C337      1.0  0.39121  0.04890  0.33010  1.0000
  C   C338      1.0  0.39493  0.06014  0.32698  1.0000
  C   C339      1.0  0.38630  0.07084  0.32901  1.0000
  C   C340      1.0  0.37400  0.07026  0.33440  1.0000
  C   C341      1.0  0.37035  0.05898  0.33781  1.0000
  H   H323      1.0  0.39786  0.04064  0.32835  1.0000
  H   H324      1.0  0.40443  0.06056  0.32279  1.0000
  H   H325      1.0  0.36727  0.07847  0.33597  1.0000
  H   H326      1.0  0.36086  0.05858  0.34194  1.0000
  H   H327      1.0  0.14192  0.47277  0.34856  1.0000
  S   S152      1.0  0.13552  0.15292  0.37407  1.0000
  C   C342      1.0  0.19711  0.11988  0.36769  1.0000
  C   C343      1.0  0.31981  0.13554  0.35939  1.0000
  C   C344      1.0  0.14577  0.37771  0.20268  1.0000
  C   C345      1.0  0.34088  0.08169  0.36244  1.0000
  Fe  Fe73      1.0  0.00206  0.39580  0.33231  1.0000
  C   C346      1.0  0.20837  0.11136  0.36657  1.0000
  C   C347      1.0  0.28904  0.06283  0.36474  1.0000
  H   H328      1.0  0.30543  0.08003  0.37457  1.0000
  C   C348      1.0  0.31534  0.13006  0.37151  1.0000
  H   H329      1.0  0.21018  0.10479  0.36084  1.0000
  C   C349      1.0  0.00995  0.13255  0.34738  1.0000
  C   C350      1.0  0.01356  0.11974  0.34925  1.0000
  C   C351      1.0  0.00720  0.11299  0.34546  1.0000
  C   C352      1.0  0.32801  0.05887  0.32235  1.0000
  H   H330      1.0  0.07938  0.13380  0.37282  1.0000
  C   C353      1.0  0.36208  0.05429  0.21017  1.0000
  H   H331      1.0  0.02121  0.11501  0.35363  1.0000
  C   C354      1.0  0.21498  0.11968  0.38032  1.0000
  H   H332      1.0  0.10609  0.36030  0.20701  1.0000
  C   C355      1.0  0.09085  0.13813  0.35491  1.0000
  C   C356      1.0  0.08859  0.13428  0.36767  1.0000
  Fe  Fe74      1.0  0.10018  0.22106  0.37354  1.0000
  C   C357      1.0  0.36508  0.14670  0.19327  1.0000
  C   C358      1.0  0.11276  0.13479  0.35457  1.0000
  C   C359      1.0  0.10297  0.13843  0.34837  1.0000
  H   H333      1.0  0.14110  0.19550  0.37654  1.0000
  C   C360      1.0  0.99700  0.11888  0.34003  1.0000
  H   H334      1.0  0.06367  0.43390  0.25806  1.0000
  H   H335      1.0  0.10482  0.14136  0.33849  1.0000
  C   C361      1.0  0.12755  0.20423  0.36549  1.0000
  C   C362      1.0  0.13767  0.19531  0.36878  1.0000
  C   C363      1.0  0.14319  0.18596  0.36223  1.0000
  C   C364      1.0  0.13897  0.18586  0.35201  1.0000
  C   C365      1.0  0.12903  0.19494  0.34855  1.0000
  C   C366      1.0  0.12315  0.20396  0.35545  1.0000
  H   H336      1.0  0.08670  0.16036  0.36930  1.0000
  H   H337      1.0  0.15088  0.17895  0.36492  1.0000
  H   H338      1.0  0.12574  0.19488  0.34068  1.0000
  H   H339      1.0  0.11531  0.21076  0.35289  1.0000
  C   C367      1.0  0.06432  0.19960  0.35788  1.0000
  C   C368      1.0  0.05680  0.20165  0.36913  1.0000
  C   C369      1.0  0.32572  0.09081  0.38242  1.0000
  C   C370      1.0  0.04465  0.18755  0.36879  1.0000
  C   C371      1.0  0.05224  0.18540  0.35762  1.0000
  C   C372      1.0  0.06186  0.19165  0.35202  1.0000
  C   C373      1.0  0.05652  0.30018  0.36829  1.0000
  H   H340      1.0  0.10746  0.26188  0.32807  1.0000
  H   H341      1.0  0.05054  0.17912  0.35315  1.0000
  H   H342      1.0  0.06740  0.19024  0.34319  1.0000
  C   C374      1.0  0.08369  0.27236  0.35830  1.0000
  C   C375      1.0  0.08180  0.28400  0.35055  1.0000
  C   C376      1.0  0.08912  0.29234  0.34943  1.0000
  C   C377      1.0  0.09825  0.28918  0.35623  1.0000
  C   C378      1.0  0.10014  0.27752  0.36401  1.0000
  C   C379      1.0  0.09302  0.26904  0.36490  1.0000
  H   H343      1.0  0.07463  0.28659  0.34538  1.0000
  H   H344      1.0  0.08776  0.30116  0.34321  1.0000
  H   H345      1.0  0.05894  0.36042  0.34654  1.0000
  H   H346      1.0  0.12982  0.48312  0.31565  1.0000
  C   C380      1.0  0.37261  0.09557  0.25373  1.0000
  C   C381      1.0  0.36900  0.09098  0.26638  1.0000
  C   C382      1.0  0.36588  0.09875  0.27475  1.0000
  C   C383      1.0  0.36625  0.11121  0.27048  1.0000
  C   C384      1.0  0.36966  0.11582  0.25783  1.0000
  C   C385      1.0  0.37288  0.10804  0.24950  1.0000
  H   H347      1.0  0.36876  0.08134  0.26972  1.0000
  H   H348      1.0  0.36324  0.09511  0.28446  1.0000
  H   H349      1.0  0.36992  0.12546  0.25446  1.0000
  H   H350      1.0  0.37566  0.11169  0.23981  1.0000
  C   C386      1.0  0.22719  0.13983  0.35762  1.0000
  Fe  Fe75      1.0  0.13912  0.13421  0.37012  1.0000
  Fe  Fe76      1.0  0.35651  0.03363  0.35255  1.0000
  C   C387      1.0  0.31792  0.13360  0.38105  1.0000
  C   C388      1.0  0.12473  0.47313  0.34418  1.0000
  C   C389      1.0  0.13301  0.47832  0.34725  1.0000
  C   C390      1.0  0.39710  0.08476  0.26964  1.0000
  H   H351      1.0  0.12731  0.46371  0.34312  1.0000
  C   C391      1.0  0.38586  0.10334  0.34744  1.0000
  H   H352      1.0  0.15312  0.37023  0.20613  1.0000
  H   H353      1.0  0.39722  0.04294  0.20606  1.0000
  H   H354      1.0  0.38310  0.08477  0.35270  1.0000
  C   C392      1.0  0.04216  0.12975  0.33043  1.0000
  H   H355      1.0  0.06090  0.31815  0.36248  1.0000
  C   C393      1.0  0.24555  0.14103  0.36356  1.0000
  C   C394      1.0  0.13328  0.36928  0.19414  1.0000
  H   H356      1.0  0.32562  0.07442  0.36250  1.0000
  S   S153      1.0  0.15397  0.12626  0.38094  1.0000
  N   N25       1.0  0.23975  0.13738  0.35567  1.0000
  H   H357      1.0  0.08114  0.17683  0.36571  1.0000
  H   H358      1.0  0.18620  0.13484  0.37617  1.0000
  S   S154      1.0  0.04976  0.12750  0.36613  1.0000
  H   H359      1.0  0.33338  0.13534  0.18582  1.0000
  N   N26       1.0  0.04008  0.14195  0.32488  1.0000
  C   C395      1.0  0.04853  0.14882  0.32352  1.0000
  C   C396      1.0  0.08304  0.38388  0.36851  1.0000
  H   H360      1.0  0.05552  0.42190  0.26007  1.0000
  C   C397      1.0  0.09831  0.13084  0.37384  1.0000
  C   C398      1.0  0.05945  0.38865  0.36448  1.0000
  H   H361      1.0  0.05448  0.28148  0.37541  1.0000
  H   H362      1.0  0.04676  0.15856  0.31939  1.0000
  C   C399      1.0  0.08550  0.16856  0.36173  1.0000
  N   N27       1.0  0.38108  0.05338  0.21553  1.0000
  H   H363      1.0  0.08027  0.40345  0.36686  1.0000
  H   H364      1.0  0.06794  0.43366  0.28035  1.0000
  H   H365      1.0  0.35463  0.08973  0.36490  1.0000
  H   H366      1.0  0.39166  0.04879  0.22916  1.0000
  Fe  Fe77      1.0  0.33844  0.03874  0.37586  1.0000
  C   C400      1.0  0.09347  0.40901  0.29816  1.0000
  H   H367      1.0  0.13244  0.41820  0.31515  1.0000
  H   H368      1.0  0.13809  0.40531  0.32640  1.0000
  H   H369      1.0  0.12951  0.27558  0.34846  1.0000
  H   H370      1.0  0.09455  0.26007  0.37090  1.0000
  H   H371      1.0  0.39639  0.06774  0.28296  1.0000
  S   S155      1.0  0.31394  0.03841  0.34608  1.0000
  H   H372      1.0  0.38484  0.12062  0.36732  1.0000
  C   C401      1.0  0.34078  0.07347  0.31444  1.0000
  C   C402      1.0  0.13093  0.40907  0.32082  1.0000
  C   C403      1.0  0.22846  0.13043  0.34096  1.0000
  H   H373      1.0  0.01009  0.10309  0.34691  1.0000
  H   H374      1.0  0.29950  0.03470  0.37907  1.0000
  H   H375      1.0  0.35226  0.05784  0.21111  1.0000
  C   C404      1.0  0.05935  0.28834  0.37539  1.0000
  H   H376      1.0  0.31595  0.08059  0.30722  1.0000
  H   H377      1.0  0.31059  0.07902  0.32367  1.0000
  C   C405      1.0  0.24679  0.13182  0.34631  1.0000
  H   H378      1.0  0.12787  0.37448  0.22249  1.0000
  H   H379      1.0  0.05895  0.40767  0.36354  1.0000
  H   H380      1.0  0.12923  0.38572  0.32874  1.0000
  C   C406      1.0  0.04090  0.42861  0.27945  1.0000
  H   H381      1.0  0.13409  0.41352  0.29630  1.0000
  H   H382      1.0  0.14342  0.38505  0.20799  1.0000
  C   C407      1.0  0.13302  0.39623  0.29365  1.0000
  H   H383      1.0  0.28913  0.04010  0.34541  1.0000
  C   C408      1.0  0.13028  0.38043  0.31202  1.0000
  H   H384      1.0  0.11787  0.23625  0.35260  1.0000
  C   C409      1.0  0.28915  0.04645  0.35077  1.0000
  H   H385      1.0  0.13200  0.37791  0.29376  1.0000
  H   H386      1.0  0.32014  0.08967  0.31536  1.0000
  H   H387      1.0  0.06886  0.41862  0.26641  1.0000
  C   C410      1.0  0.06658  0.37669  0.36604  1.0000
  N   N28       1.0  0.39482  0.10254  0.27770  1.0000
  C   C411      1.0  0.39649  0.09735  0.26791  1.0000
  C   C412      1.0  0.39409  0.09542  0.28931  1.0000
  C   C413      1.0  0.39441  0.11571  0.27566  1.0000
  H   H388      1.0  0.39701  0.10298  0.25870  1.0000
  H   H389      1.0  0.39301  0.09946  0.29707  1.0000
  H   H390      1.0  0.39003  0.12095  0.26780  1.0000
  H   H391      1.0  0.38865  0.11950  0.28372  1.0000
  H   H392      1.0  0.40384  0.11735  0.27385  1.0000
  N   N29       1.0  0.09722  0.17025  0.35331  1.0000
  C   C414      1.0  0.09717  0.17912  0.34276  1.0000
  C   C415      1.0  0.10809  0.16314  0.35601  1.0000
  C   C416      1.0  0.10816  0.18080  0.33442  1.0000
  C   C417      1.0  0.11921  0.16439  0.34774  1.0000
  C   C418      1.0  0.11923  0.17327  0.33688  1.0000
  H   H393      1.0  0.09085  0.36001  0.37695  1.0000
  H   H394      1.0  0.03356  0.43797  0.30640  1.0000
  H   H395      1.0  0.10823  0.15628  0.36447  1.0000
  H   H396      1.0  0.10808  0.18794  0.32614  1.0000
  H   H397      1.0  0.12781  0.15857  0.34975  1.0000
  H   H398      1.0  0.12786  0.17443  0.33050  1.0000
  H   H399      1.0  0.37191  0.07750  0.18999  1.0000
  C   C419      1.0  0.38729  0.04588  0.20751  1.0000
  C   C420      1.0  0.32890  0.07972  0.36691  1.0000
  C   C421      1.0  0.12729  0.26682  0.34918  1.0000
  C   C422      1.0  0.06058  0.42574  0.26456  1.0000
  N   N30       1.0  0.05391  0.35172  0.30126  1.0000
  C   C423      1.0  0.06337  0.35095  0.29123  1.0000
  C   C424      1.0  0.04302  0.35987  0.30021  1.0000
  C   C425      1.0  0.06191  0.35820  0.27970  1.0000
  C   C426      1.0  0.04123  0.36724  0.28882  1.0000
  C   C427      1.0  0.05071  0.36624  0.27849  1.0000
  C   C428      1.0  0.05565  0.34427  0.31333  1.0000
  H   H400      1.0  0.07214  0.34476  0.29214  1.0000
  H   H401      1.0  0.03563  0.36070  0.30819  1.0000
  H   H402      1.0  0.06945  0.35771  0.27175  1.0000
  H   H403      1.0  0.03261  0.37377  0.28802  1.0000
  H   H404      1.0  0.04944  0.37182  0.26958  1.0000
  H   H405      1.0  0.04714  0.34104  0.31874  1.0000
  H   H406      1.0  0.06315  0.33599  0.31255  1.0000
  H   H407      1.0  0.05813  0.34977  0.31847  1.0000
  Fe  Fe78      1.0  0.26961  0.11098  0.36755  1.0000
  H   H408      1.0  0.07787  0.42152  0.30628  1.0000
  C   C429      1.0  0.39463  0.08281  0.29138  1.0000
  H   H409      1.0  0.09376  0.37950  0.29874  1.0000
  H   H410      1.0  0.35784  0.04491  0.32280  1.0000
  C   C430      1.0  0.37514  0.99536  0.34451  1.0000
  H   H411      1.0  0.38216  0.06404  0.22772  1.0000
  H   H412      1.0  0.05031  0.39044  0.36267  1.0000
  C   C431      1.0  0.04680  0.19584  0.37444  1.0000
  C   C432      1.0  0.11043  0.13094  0.36735  1.0000
  C   C433      1.0  0.39609  0.07748  0.28147  1.0000
  H   H413      1.0  0.05454  0.11450  0.33926  1.0000
  C   C434      1.0  0.13174  0.38423  0.29930  1.0000
  C   C435      1.0  0.24126  0.12814  0.33890  1.0000
  Fe  Fe79      1.0  0.03839  0.16070  0.37159  1.0000
  H   H414      1.0  0.38611  0.03707  0.19373  1.0000
  H   H415      1.0  0.21140  0.13820  0.35199  1.0000
  C   C436      1.0  0.13288  0.40428  0.30081  1.0000
  S   S156      1.0  0.35108  0.99222  0.37571  1.0000
  H   H416      1.0  0.25676  0.12995  0.34467  1.0000
  C   C437      1.0  0.09789  0.39718  0.29593  1.0000
  C   C438      1.0  0.33767  0.09294  0.37819  1.0000
  C   C439      1.0  0.30027  0.04762  0.35250  1.0000
  C   C440      1.0  0.38637  0.11344  0.35157  1.0000
  Fe  Fe80      1.0  0.34545  0.01292  0.37001  1.0000
  C   C441      1.0  0.03906  0.43549  0.29788  1.0000
  H   H417      1.0  0.06373  0.38463  0.31981  1.0000
  H   H418      1.0  0.07611  0.37335  0.31373  1.0000
  H   H419      1.0  0.09935  0.41564  0.29488  1.0000
  H   H420      1.0  0.37258  0.00336  0.34860  1.0000
  C   C442      1.0  0.05300  0.12412  0.33470  1.0000
  S   S157      1.0  0.33947  0.04825  0.35606  1.0000
  H   H421      1.0  0.36367  0.06345  0.22336  1.0000
  C   C443      1.0  0.10733  0.25465  0.33663  1.0000
  H   H422      1.0  0.07990  0.35492  0.37213  1.0000
  C   C444      1.0  0.27800  0.05316  0.35627  1.0000
  H   H423      1.0  0.13976  0.37038  0.18540  1.0000
  C   C445      1.0  0.12052  0.24488  0.35150  1.0000
  H   H424      1.0  0.41889  0.09227  0.19142  1.0000
  H   H425      1.0  0.05863  0.20774  0.37373  1.0000
  C   C446      1.0  0.13187  0.25636  0.35734  1.0000
  C   C447      1.0  0.06172  0.13103  0.33322  1.0000
  C   C448      1.0  0.27787  0.06136  0.36326  1.0000
  H   H426      1.0  0.22586  0.10453  0.37207  1.0000
  H   H427      1.0  0.04949  0.30251  0.36296  1.0000
  C   C449      1.0  0.05142  0.43629  0.29420  1.0000
  H   H428      1.0  0.36352  0.04461  0.19612  1.0000
  H   H429      1.0  0.11542  0.27436  0.33637  1.0000
  H   H430      1.0  0.12210  0.13480  0.34945  1.0000
  H   H431      1.0  0.12926  0.37110  0.31657  1.0000
  H   H432      1.0  0.33039  0.14868  0.34755  1.0000
  C   C450      1.0  0.12661  0.37157  0.21482  1.0000
  C   C451      1.0  0.05951  0.14345  0.32759  1.0000
  H   H433      1.0  0.02418  0.43082  0.29329  1.0000
  H   H434      1.0  0.10944  0.36632  0.22477  1.0000
  C   C452      1.0  0.33824  0.04940  0.32416  1.0000
  C   C453      1.0  0.03376  0.43159  0.29050  1.0000
  H   H435      1.0  0.09233  0.38213  0.36991  1.0000
  H   H436      1.0  0.12178  0.41056  0.32712  1.0000
  C   C454      1.0  0.08140  0.41230  0.30453  1.0000
  C   C455      1.0  0.22136  0.13645  0.35027  1.0000
  H   H437      1.0  0.06448  0.40627  0.31333  1.0000
  H   H438      1.0  0.06573  0.38319  0.30417  1.0000
  N   N31       1.0  0.07852  0.39187  0.30689  1.0000
  H   H439      1.0  0.39798  0.08079  0.26186  1.0000
  C   C456      1.0  0.38795  0.05693  0.22253  1.0000
  H   H440      1.0  0.36018  0.06650  0.31416  1.0000
  H   H441      1.0  0.10713  0.39461  0.29063  1.0000
  C   C457      1.0  0.09026  0.38867  0.30044  1.0000
  H   H442      1.0  0.14776  0.48789  0.31982  1.0000
  C   C458      1.0  0.31848  0.08048  0.31584  1.0000
  Fe  Fe81      1.0  0.32944  0.03431  0.35571  1.0000
  C   C459      1.0  0.38347  0.09266  0.35590  1.0000
  C   C460      1.0  0.38462  0.11265  0.36416  1.0000
  C   C461      1.0  0.11617  0.36697  0.21616  1.0000
  C   C462      1.0  0.34987  0.05214  0.32123  1.0000
  H   H443      1.0  0.38791  0.12190  0.34508  1.0000
  H   H444      1.0  0.03537  0.12435  0.33173  1.0000
  N   N32       1.0  0.05308  0.42915  0.27602  1.0000
  H   H445      1.0  0.13790  0.25686  0.36286  1.0000
  H   H446      1.0  0.31897  0.05668  0.32477  1.0000
  H   H447      1.0  0.38725  0.10383  0.33769  1.0000
  H   H448      1.0  0.09787  0.25600  0.34239  1.0000
  C   C463      1.0  0.13020  0.38875  0.31889  1.0000
  H   H449      1.0  0.12132  0.38826  0.36260  1.0000
  S   S158      1.0  0.41195  0.11782  0.19274  1.0000
  H   H450      1.0  0.37945  0.08403  0.37506  1.0000
  H   H451      1.0  0.24137  0.13780  0.37338  1.0000
  H   H452      1.0  0.30885  0.05680  0.36081  1.0000
  H   H453      1.0  0.26942  0.05193  0.35515  1.0000
  H   H454      1.0  0.13184  0.23711  0.36494  1.0000
  C   C464      1.0  0.12848  0.24531  0.35852  1.0000
  N   N33       1.0  0.13139  0.40052  0.31328  1.0000
  C   C465      1.0  0.07393  0.40361  0.30865  1.0000
  C   C466      1.0  0.32913  0.14778  0.36671  1.0000
  C   C467      1.0  0.11932  0.26606  0.34232  1.0000
  H   H455      1.0  0.13418  0.39925  0.28375  1.0000
  S   S159      1.0  0.12233  0.12572  0.37559  1.0000
  H   H456      1.0  0.33707  0.04002  0.32800  1.0000
  N   N34       1.0  0.10816  0.43001  0.18626  1.0000
  C   C468      1.0  0.11318  0.48018  0.34244  1.0000
  N   N35       1.0  0.11612  0.25515  0.34346  1.0000
  C   C469      1.0  0.38154  0.09226  0.36846  1.0000
  H   H457      1.0  0.05560  0.43950  0.29979  1.0000
  S   S160      1.0  0.35295  0.11863  0.19564  1.0000
  H   H458      1.0  0.34669  0.07802  0.35463  1.0000
  H   H459      1.0  0.06616  0.14894  0.32664  1.0000
  H   H460      1.0  0.33483  0.15448  0.36472  1.0000
  C   C470      1.0  0.99994  0.13846  0.34170  1.0000
  N   N36       1.0  0.07815  0.37443  0.36821  1.0000
  H   H461      1.0  0.28903  0.06896  0.37030  1.0000
  N   N37       1.0  0.38226  0.10215  0.37240  1.0000
  N   N38       1.0  0.32148  0.08431  0.37674  1.0000
  C   C471      1.0  0.19485  0.12830  0.37514  1.0000
  C   C472      1.0  0.34528  0.08833  0.36815  1.0000
  C   C473      1.0  0.10081  0.43097  0.19857  1.0000
  H   H462      1.0  0.10951  0.24562  0.33397  1.0000
  H   H463      1.0  0.25557  0.13695  0.36226  1.0000
  H   H464      1.0  0.03066  0.15270  0.31081  1.0000
  H   H465      1.0  0.24432  0.15117  0.36150  1.0000
  C   C474      1.0  0.21728  0.11122  0.37289  1.0000
  S   S161      1.0  0.02707  0.14637  0.38021  1.0000
  C   C475      1.0  0.07212  0.30581  0.37469  1.0000
  H   H466      1.0  0.36166  0.00230  0.33323  1.0000
  H   H467      1.0  0.14932  0.38199  0.19299  1.0000
  H   H468      1.0  0.30989  0.12315  0.37352  1.0000
  Fe  Fe82      1.0  0.26250  0.08629  0.37608  1.0000
  C   C476      1.0  0.42384  0.10976  0.18292  1.0000
  S   S162      1.0  0.39808  0.06914  0.18894  1.0000
  C   C477      1.0  0.06295  0.30895  0.36798  1.0000
  H   H469      1.0  0.09408  0.43987  0.19817  1.0000
  H   H470      1.0  0.10675  0.43029  0.20498  1.0000
  H   H471      1.0  0.36576  0.13687  0.19801  1.0000
  C   C478      1.0  0.12292  0.36468  0.19515  1.0000
  S   S163      1.0  0.32734  0.02546  0.37563  1.0000
  H   H472      1.0  0.38803  0.13338  0.19080  1.0000
  S   S164      1.0  0.08857  0.20696  0.37937  1.0000
  N   N39       1.0  0.32462  0.14245  0.37858  1.0000
  C   C479      1.0  0.42511  0.09712  0.18432  1.0000
  H   H473      1.0  0.09235  0.36082  0.36088  1.0000
  H   H474      1.0  0.07725  0.31257  0.37435  1.0000
  S   S165      1.0  0.05567  0.14888  0.37687  1.0000
  H   H475      1.0  0.00175  0.36608  0.34641  1.0000
  H   H476      1.0  0.02300  0.14116  0.32137  1.0000
  H   H477      1.0  0.02298  0.15463  0.32625  1.0000
  C   C480      1.0  0.38653  0.14061  0.18282  1.0000
  C   C481      1.0  0.34293  0.98883  0.35687  1.0000
  C   C482      1.0  0.30924  0.08149  0.38179  1.0000
  H   H478      1.0  0.28313  0.03906  0.38134  1.0000
  N   N40       1.0  0.06840  0.28531  0.38192  1.0000
  H   H479      1.0  0.99711  0.35501  0.33322  1.0000
  C   C483      1.0  0.20378  0.12826  0.38134  1.0000
  H   H480      1.0  0.11456  0.18647  0.38191  1.0000
  C   C484      1.0  0.07471  0.29388  0.38169  1.0000
  C   C485      1.0  0.37584  0.07225  0.18290  1.0000
  Fe  Fe83      1.0  0.36303  0.15708  0.51818  1.0000
  S   S166      1.0  0.37364  0.13910  0.52696  1.0000
  S   S167      1.0  0.35272  0.16970  0.53150  1.0000
  Fe  Fe84      1.0  0.36830  0.14873  0.49332  1.0000
  S   S168      1.0  0.37994  0.13065  0.50038  1.0000
  S   S169      1.0  0.36284  0.15265  0.47476  1.0000
  Fe  Fe85      1.0  0.36506  0.13038  0.51724  1.0000
  S   S170      1.0  0.35579  0.11449  0.52501  1.0000
  Fe  Fe86      1.0  0.38749  0.14131  0.50929  1.0000
  S   S171      1.0  0.40761  0.13721  0.50958  1.0000
  S   S172      1.0  0.35298  0.14802  0.51008  1.0000
  S   S173      1.0  0.37734  0.15976  0.50064  1.0000
  C   C486      1.0  0.17712  0.99271  0.58141  1.0000
  C   C487      1.0  0.07090  0.27298  0.38968  1.0000
  Fe  Fe87      1.0  0.36721  0.21439  0.56368  1.0000
  H   H481      1.0  0.30164  0.16842  0.55399  1.0000
  S   S174      1.0  0.37500  0.20749  0.54595  1.0000
  C   C488      1.0  0.13527  0.10440  0.51301  1.0000
  H   H482      1.0  0.28851  0.13015  0.40652  1.0000
  Fe  Fe88      1.0  0.26893  0.09727  0.39392  1.0000
  H   H483      1.0  0.16730  0.09287  0.56843  1.0000
  S   S175      1.0  0.35187  0.23063  0.56726  1.0000
  S   S176      1.0  0.37932  0.22040  0.57229  1.0000
  H   H484      1.0  0.09728  0.14014  0.56387  1.0000
  C   C489      1.0  0.39592  0.18998  0.57969  1.0000
  H   H485      1.0  0.32035  0.14444  0.39720  1.0000
  S   S177      1.0  0.30611  0.14421  0.55058  1.0000
  S   S178      1.0  0.08716  0.23408  0.38485  1.0000
  H   H486      1.0  0.10305  0.16992  0.38608  1.0000
  C   C490      1.0  0.38753  0.43059  0.57271  1.0000
  H   H487      1.0  0.27298  0.05460  0.39228  1.0000
  S   S179      1.0  0.42753  0.11519  0.55855  1.0000
  H   H488      1.0  0.09640  0.12814  0.38372  1.0000
  S   S180      1.0  0.42847  0.16942  0.56690  1.0000
  C   C491      1.0  0.38844  0.10534  0.55951  1.0000
  H   H489      1.0  0.41181  0.16067  0.51090  1.0000
  S   S181      1.0  0.26063  0.11653  0.38547  1.0000
  H   H490      1.0  0.20534  0.06973  0.57866  1.0000
  Fe  Fe89      1.0  0.08652  0.13579  0.47025  1.0000
  S   S182      1.0  0.08287  0.12348  0.46011  1.0000
  S   S183      1.0  0.08575  0.12790  0.49054  1.0000
  Fe  Fe90      1.0  0.09244  0.15476  0.44682  1.0000
  S   S184      1.0  0.08957  0.14401  0.43475  1.0000
  S   S185      1.0  0.09994  0.17173  0.43730  1.0000
  Fe  Fe91      1.0  0.07298  0.14067  0.44935  1.0000
  S   S186      1.0  0.05491  0.14120  0.44496  1.0000
  Fe  Fe92      1.0  0.09964  0.12788  0.44645  1.0000
  S   S187      1.0  0.11391  0.11417  0.43724  1.0000
  S   S188      1.0  0.07490  0.15280  0.46079  1.0000
  S   S189      1.0  0.10422  0.13882  0.45718  1.0000
  S   S190      1.0  0.06419  0.21316  0.40775  1.0000
  S   S191      1.0  0.04690  0.12148  0.40216  1.0000
  S   S192      1.0  0.14997  0.14752  0.40253  1.0000
  H   H491      1.0  0.12463  0.10922  0.47506  1.0000
  H   H492      1.0  0.17626  0.10821  0.38573  1.0000
  C   C492      1.0  0.12151  0.17930  0.39853  1.0000
  H   H493      1.0  0.18992  0.09703  0.38747  1.0000
  H   H494      1.0  0.06936  0.26599  0.38556  1.0000
  S   S193      1.0  0.28098  0.08999  0.40776  1.0000
  H   H495      1.0  0.32828  0.16189  0.53858  1.0000
  Fe  Fe93      1.0  0.35089  0.11381  0.43041  1.0000
  S   S194      1.0  0.33881  0.10122  0.43015  1.0000
  S   S195      1.0  0.35661  0.11314  0.44826  1.0000
  Fe  Fe94      1.0  0.35420  0.12341  0.40251  1.0000
  S   S196      1.0  0.34220  0.11225  0.40045  1.0000
  Fe  Fe95      1.0  0.32994  0.11759  0.41747  1.0000
  S   S197      1.0  0.31018  0.12518  0.41606  1.0000
  Fe  Fe96      1.0  0.35223  0.09697  0.41287  1.0000
  S   S198      1.0  0.36125  0.08040  0.40426  1.0000
  S   S199      1.0  0.34110  0.13035  0.41861  1.0000
  S   S200      1.0  0.36505  0.10799  0.41420  1.0000
  H   H496      1.0  0.19762  0.11765  0.56696  1.0000
  C   C493      1.0  0.14209  0.05310  0.56780  1.0000
  S   S201      1.0  0.20945  0.09655  0.55625  1.0000
  H   H497      1.0  0.36788  0.06380  0.38798  1.0000
  Fe  Fe97      1.0  0.12579  0.12847  0.53480  1.0000
  S   S202      1.0  0.14584  0.11940  0.53255  1.0000
  S   S203      1.0  0.11884  0.14153  0.51853  1.0000
  Fe  Fe98      1.0  0.12041  0.11775  0.56228  1.0000
  S   S204      1.0  0.13979  0.10763  0.56222  1.0000
  N   N41       1.0  0.09431  0.14795  0.54566  1.0000
  Fe  Fe99      1.0  0.14480  0.12493  0.54998  1.0000
  S   S205      1.0  0.15813  0.13301  0.55463  1.0000
  Fe  Fe100     1.0  0.13889  0.10301  0.54500  1.0000
  S   S206      1.0  0.14729  0.08390  0.54214  1.0000
  S   S207      1.0  0.12538  0.13551  0.55123  1.0000
  S   S208      1.0  0.11886  0.11161  0.54599  1.0000
  H   H498      1.0  0.38765  0.19464  0.57637  1.0000
  H   H499      1.0  0.30982  0.07302  0.38912  1.0000
  C   C494      1.0  0.12875  0.17071  0.41768  1.0000
  C   C495      1.0  0.19561  0.10722  0.55502  1.0000
  C   C496      1.0  0.19177  0.11658  0.56160  1.0000
  C   C497      1.0  0.18043  0.12474  0.56107  1.0000
  C   C498      1.0  0.17266  0.12325  0.55440  1.0000
  C   C499      1.0  0.17637  0.11374  0.54801  1.0000
  C   C500      1.0  0.18795  0.10587  0.54812  1.0000
  C   C501      1.0  0.39993  0.23338  0.58021  1.0000
  H   H500      1.0  0.36454  0.15693  0.55867  1.0000
  H   H501      1.0  0.17040  0.11256  0.54282  1.0000
  H   H502      1.0  0.19088  0.09858  0.54309  1.0000
  H   H503      1.0  0.08757  0.12270  0.56677  1.0000
  H   H504      1.0  0.09398  0.16710  0.54097  1.0000
  C   C502      1.0  0.14705  0.06126  0.55742  1.0000
  C   C503      1.0  0.14069  0.07345  0.55455  1.0000
  C   C504      1.0  0.12927  0.07737  0.56189  1.0000
  H   H505      1.0  0.05092  0.17282  0.39110  1.0000
  H   H506      1.0  0.40922  0.25429  0.56821  1.0000
  H   H507      1.0  0.15587  0.05820  0.55172  1.0000
  H   H508      1.0  0.12432  0.08675  0.55978  1.0000
  C   C505      1.0  0.12408  0.06909  0.57192  1.0000
  C   C506      1.0  0.28959  0.09987  0.40906  1.0000
  C   C507      1.0  0.30045  0.09487  0.41349  1.0000
  C   C508      1.0  0.30710  0.10259  0.41527  1.0000
  C   C509      1.0  0.30266  0.11531  0.41299  1.0000
  C   C510      1.0  0.29197  0.12031  0.40829  1.0000
  C   C511      1.0  0.28553  0.11261  0.40617  1.0000
  H   H509      1.0  0.30363  0.08501  0.41575  1.0000
  H   H510      1.0  0.31534  0.09868  0.41890  1.0000
  H   H511      1.0  0.03625  0.15917  0.40082  1.0000
  H   H512      1.0  0.37240  0.27747  0.57526  1.0000
  H   H513      1.0  0.02944  0.15436  0.42356  1.0000
  H   H514      1.0  0.34115  0.09774  0.38296  1.0000
  H   H515      1.0  0.16976  0.05539  0.56728  1.0000
  H   H516      1.0  0.29442  0.18013  0.57052  1.0000
  S   S209      1.0  0.22569  0.11970  0.38866  1.0000
  C   C512      1.0  0.33892  0.05871  0.39394  1.0000
  C   C513      1.0  0.33317  0.06630  0.40240  1.0000
  C   C514      1.0  0.33985  0.07317  0.40551  1.0000
  C   C515      1.0  0.35241  0.07226  0.40035  1.0000
  Fe  Fe101     1.0  0.07481  0.22070  0.38920  1.0000
  H   H517      1.0  0.36055  0.10604  0.49272  1.0000
  H   H518      1.0  0.32351  0.06690  0.40659  1.0000
  H   H519      1.0  0.33536  0.07895  0.41208  1.0000
  C   C516      1.0  0.17238  0.08345  0.56899  1.0000
  H   H520      1.0  0.29005  0.02639  0.39204  1.0000
  C   C517      1.0  0.08986  0.18324  0.42926  1.0000
  C   C518      1.0  0.07719  0.18373  0.43247  1.0000
  C   C519      1.0  0.06927  0.19321  0.42610  1.0000
  C   C520      1.0  0.07406  0.20186  0.41618  1.0000
  C   C521      1.0  0.08675  0.20124  0.41287  1.0000
  C   C522      1.0  0.09460  0.19210  0.41955  1.0000
  H   H521      1.0  0.07347  0.17702  0.44008  1.0000
  H   H522      1.0  0.05944  0.19386  0.42884  1.0000
  H   H523      1.0  0.09049  0.20800  0.40533  1.0000
  H   H524      1.0  0.10434  0.19192  0.41719  1.0000
  C   C523      1.0  0.12460  0.12271  0.42772  1.0000
  C   C524      1.0  0.13096  0.12821  0.43275  1.0000
  C   C525      1.0  0.13887  0.13580  0.42504  1.0000
  C   C526      1.0  0.14013  0.13812  0.41233  1.0000
  C   C527      1.0  0.13342  0.13296  0.40739  1.0000
  C   C528      1.0  0.12583  0.12511  0.41503  1.0000
  H   H525      1.0  0.12981  0.12657  0.44260  1.0000
  H   H526      1.0  0.14391  0.13992  0.42892  1.0000
  H   H527      1.0  0.13380  0.13517  0.39768  1.0000
  H   H528      1.0  0.12069  0.12119  0.41107  1.0000
  C   C529      1.0  0.05378  0.13532  0.43282  1.0000
  C   C530      1.0  0.04461  0.12870  0.43501  1.0000
  C   C531      1.0  0.04257  0.12466  0.42550  1.0000
  C   C532      1.0  0.04931  0.12762  0.41353  1.0000
  C   C533      1.0  0.05848  0.13438  0.41120  1.0000
  C   C534      1.0  0.06083  0.13809  0.42088  1.0000
  H   H529      1.0  0.03903  0.12665  0.44415  1.0000
  H   H530      1.0  0.03560  0.11932  0.42743  1.0000
  H   H531      1.0  0.06391  0.13650  0.40201  1.0000
  H   H532      1.0  0.06779  0.14340  0.41907  1.0000
  C   C535      1.0  0.09504  0.13176  0.49815  1.0000
  C   C536      1.0  0.10026  0.14211  0.49321  1.0000
  C   C537      1.0  0.10753  0.14501  0.49958  1.0000
  C   C538      1.0  0.10986  0.13743  0.51076  1.0000
  C   C539      1.0  0.10490  0.12690  0.51555  1.0000
  C   C540      1.0  0.09737  0.12418  0.50934  1.0000
  H   H533      1.0  0.09849  0.14802  0.48460  1.0000
  H   H534      1.0  0.11135  0.15317  0.49582  1.0000
  H   H535      1.0  0.10670  0.12097  0.52411  1.0000
  H   H536      1.0  0.09339  0.11612  0.51316  1.0000
  H   H537      1.0  0.39017  0.12980  0.58227  1.0000
  H   H538      1.0  0.13968  0.10196  0.52076  1.0000
  C   C541      1.0  0.09959  0.10786  0.40346  1.0000
  H   H539      1.0  0.04091  0.19757  0.38307  1.0000
  H   H540      1.0  0.39642  0.17712  0.51997  1.0000
  Fe  Fe102     1.0  0.04497  0.13405  0.38387  1.0000
  C   C542      1.0  0.08403  0.13712  0.53783  1.0000
  C   C543      1.0  0.18606  0.05970  0.56942  1.0000
  C   C544      1.0  0.19529  0.10601  0.40322  1.0000
  H   H541      1.0  0.20192  0.13483  0.38707  1.0000
  H   H542      1.0  0.26829  0.11822  0.57234  1.0000
  H   H543      1.0  0.36130  0.10850  0.55272  1.0000
  H   H544      1.0  0.36466  0.10653  0.56744  1.0000
  H   H545      1.0  0.33647  0.14000  0.39057  1.0000
  C   C545      1.0  0.18449  0.08026  0.57062  1.0000
  H   H546      1.0  0.40565  0.18523  0.56240  1.0000
  H   H547      1.0  0.15768  0.07686  0.56637  1.0000
  C   C546      1.0  0.17526  0.11861  0.40396  1.0000
  H   H548      1.0  0.39943  0.10688  0.52470  1.0000
  C   C547      1.0  0.32122  0.16996  0.53548  1.0000
  H   H549      1.0  0.20713  0.11064  0.41214  1.0000
  C   C548      1.0  0.20419  0.06581  0.57136  1.0000
  H   H550      1.0  0.43583  0.15598  0.54700  1.0000
  C   C549      1.0  0.08799  0.12952  0.55822  1.0000
  H   H551      1.0  0.19134  0.05040  0.56949  1.0000
  C   C550      1.0  0.35943  0.17971  0.53566  1.0000
  C   C551      1.0  0.36964  0.18412  0.52801  1.0000
  C   C552      1.0  0.37424  0.19268  0.53126  1.0000
  C   C553      1.0  0.36883  0.19674  0.54228  1.0000
  C   C554      1.0  0.35872  0.19217  0.55003  1.0000
  C   C555      1.0  0.35400  0.18378  0.54668  1.0000
  H   H552      1.0  0.37371  0.18128  0.51938  1.0000
  H   H553      1.0  0.38188  0.19639  0.52510  1.0000
  H   H554      1.0  0.35444  0.19522  0.55852  1.0000
  H   H555      1.0  0.34614  0.18038  0.55271  1.0000
  C   C556      1.0  0.41253  0.13144  0.52356  1.0000
  C   C557      1.0  0.40532  0.13438  0.53467  1.0000
  C   C558      1.0  0.41002  0.12997  0.54547  1.0000
  C   C559      1.0  0.42178  0.12235  0.54518  1.0000
  C   C560      1.0  0.42888  0.11951  0.53407  1.0000
  C   C561      1.0  0.42436  0.12417  0.52331  1.0000
  H   H556      1.0  0.39624  0.14018  0.53489  1.0000
  H   H557      1.0  0.40442  0.13208  0.55406  1.0000
  H   H558      1.0  0.43793  0.11358  0.53379  1.0000
  H   H559      1.0  0.43002  0.12196  0.51476  1.0000
  C   C562      1.0  0.34173  0.12159  0.53286  1.0000
  C   C563      1.0  0.34176  0.12876  0.54079  1.0000
  C   C564      1.0  0.33075  0.13549  0.54636  1.0000
  C   C565      1.0  0.31972  0.13566  0.54346  1.0000
  C   C566      1.0  0.31964  0.12872  0.53528  1.0000
  C   C567      1.0  0.33067  0.12146  0.53013  1.0000
  H   H560      1.0  0.35032  0.12928  0.54254  1.0000
  H   H561      1.0  0.33089  0.14085  0.55263  1.0000
  H   H562      1.0  0.31109  0.12890  0.53301  1.0000
  H   H563      1.0  0.33068  0.11616  0.52373  1.0000
  C   C568      1.0  0.36230  0.14162  0.46672  1.0000
  C   C569      1.0  0.36664  0.12900  0.47065  1.0000
  C   C570      1.0  0.36533  0.12052  0.46451  1.0000
  C   C571      1.0  0.35960  0.12446  0.45440  1.0000
  C   C572      1.0  0.35558  0.13710  0.45024  1.0000
  C   C573      1.0  0.35695  0.14559  0.45634  1.0000
  H   H564      1.0  0.37093  0.12576  0.47848  1.0000
  H   H565      1.0  0.36859  0.11080  0.46776  1.0000
  H   H566      1.0  0.35117  0.14033  0.44248  1.0000
  H   H567      1.0  0.35364  0.15532  0.45313  1.0000
  H   H568      1.0  0.37724  0.11096  0.53416  1.0000
  Fe  Fe103     1.0  0.42624  0.15046  0.57634  1.0000
  H   H569      1.0  0.36396  0.12130  0.55711  1.0000
  H   H570      1.0  0.31449  0.12925  0.39043  1.0000
  C   C574      1.0  0.30469  0.11075  0.56120  1.0000
  H   H571      1.0  0.33083  0.18757  0.53774  1.0000
  C   C575      1.0  0.40389  0.17182  0.52445  1.0000
  H   H572      1.0  0.06430  0.18444  0.39231  1.0000
  C   C576      1.0  0.40483  0.17407  0.53538  1.0000
  H   H573      1.0  0.31378  0.16660  0.53380  1.0000
  N   N42       1.0  0.38004  0.10805  0.55228  1.0000
  H   H574      1.0  0.03733  0.16359  0.43618  1.0000
  C   C577      1.0  0.38388  0.10856  0.53994  1.0000
  C   C578      1.0  0.41453  0.16704  0.54099  1.0000
  H   H575      1.0  0.08064  0.27020  0.39063  1.0000
  H   H576      1.0  0.20969  0.06994  0.56247  1.0000
  H   H577      1.0  0.38370  0.09261  0.39067  1.0000
  C   C579      1.0  0.11476  0.17930  0.39016  1.0000
  H   H578      1.0  0.30487  0.11045  0.55165  1.0000
  C   C580      1.0  0.19804  0.11279  0.41012  1.0000
  H   H579      1.0  0.30896  0.03492  0.39676  1.0000
  H   H580      1.0  0.07906  0.12065  0.54998  1.0000
  C   C581      1.0  0.37718  0.16537  0.57772  1.0000
  H   H581      1.0  0.10359  0.11103  0.41925  1.0000
  C   C582      1.0  0.30226  0.18199  0.56319  1.0000
  H   H582      1.0  0.12651  0.18657  0.39664  1.0000
  H   H583      1.0  0.12814  0.08791  0.51818  1.0000
  C   C583      1.0  0.29088  0.03560  0.38622  1.0000
  H   H584      1.0  0.17764  0.13214  0.56595  1.0000
  H   H585      1.0  0.08991  0.10706  0.43965  1.0000
  N   N43       1.0  0.29095  0.04392  0.39377  1.0000
  C   C584      1.0  0.28093  0.05310  0.39622  1.0000
  C   C585      1.0  0.30095  0.04211  0.39875  1.0000
  C   C586      1.0  0.28080  0.06076  0.40380  1.0000
  C   C587      1.0  0.30106  0.04952  0.40646  1.0000
  C   C588      1.0  0.29091  0.05889  0.40899  1.0000
  H   H586      1.0  0.28217  0.12486  0.58121  1.0000
  S   S210      1.0  0.32217  0.15259  0.57335  1.0000
  H   H587      1.0  0.27292  0.06814  0.40562  1.0000
  H   H588      1.0  0.30905  0.04809  0.41033  1.0000
  H   H589      1.0  0.29092  0.06473  0.41493  1.0000
  H   H590      1.0  0.06818  0.18249  0.40682  1.0000
  H   H591      1.0  0.34817  0.09834  0.49486  1.0000
  H   H592      1.0  0.34882  0.10541  0.50665  1.0000
  C   C589      1.0  0.18137  0.10201  0.39270  1.0000
  C   C590      1.0  0.12878  0.09649  0.51153  1.0000
  H   H593      1.0  0.05522  0.19418  0.40266  1.0000
  C   C591      1.0  0.13053  0.05699  0.57497  1.0000
  H   H594      1.0  0.32757  0.14938  0.47396  1.0000
  C   C592      1.0  0.40106  0.10274  0.55444  1.0000
  S   S211      1.0  0.41121  0.14360  0.57320  1.0000
  H   H595      1.0  0.16630  0.12100  0.40161  1.0000
  C   C593      1.0  0.16704  0.07448  0.56774  1.0000
  H   H596      1.0  0.10873  0.10834  0.39785  1.0000
  S   S212      1.0  0.21965  0.11048  0.57946  1.0000
  Fe  Fe104     1.0  0.36333  0.23524  0.57789  1.0000
  H   H597      1.0  0.40185  0.41471  0.56954  1.0000
  S   S213      1.0  0.44083  0.13370  0.57387  1.0000
  H   H598      1.0  0.10946  0.11051  0.48498  1.0000
  C   C594      1.0  0.32422  0.25150  0.57653  1.0000
  C   C595      1.0  0.30643  0.17537  0.55384  1.0000
  C   C596      1.0  0.37646  0.16164  0.56743  1.0000
  H   H599      1.0  0.07398  0.10751  0.44082  1.0000
  H   H600      1.0  0.36952  0.10351  0.38912  1.0000
  H   H601      1.0  0.32000  0.09403  0.39052  1.0000
  H   H602      1.0  0.13861  0.17012  0.41310  1.0000
  H   H603      1.0  0.37482  0.12547  0.57350  1.0000
  H   H604      1.0  0.10299  0.15850  0.55217  1.0000
  Fe  Fe105     1.0  0.42526  0.12613  0.57268  1.0000
  H   H605      1.0  0.08054  0.13624  0.53035  1.0000
  N   N44       1.0  0.31651  0.17748  0.54478  1.0000
  Fe  Fe106     1.0  0.21456  0.09573  0.57384  1.0000
  Fe  Fe107     1.0  0.30943  0.14358  0.56889  1.0000
  H   H606      1.0  0.19129  0.12815  0.41904  1.0000
  C   C597      1.0  0.04009  0.16578  0.42625  1.0000
  H   H607      1.0  0.09071  0.15339  0.52763  1.0000
  C   C598      1.0  0.03567  0.16059  0.41917  1.0000
  H   H608      1.0  0.12504  0.17931  0.42119  1.0000
  H   H609      1.0  0.39826  0.26350  0.57825  1.0000
  H   H610      1.0  0.31436  0.10983  0.56180  1.0000
  C   C599      1.0  0.39642  0.10616  0.53455  1.0000
  H   H611      1.0  0.27713  0.11653  0.40283  1.0000
  C   C600      1.0  0.08204  0.11133  0.43501  1.0000
  N   N45       1.0  0.12170  0.17037  0.40903  1.0000
  C   C601      1.0  0.11527  0.16130  0.41147  1.0000
  S   S214      1.0  0.36334  0.13520  0.38550  1.0000
  C   C602      1.0  0.10853  0.16094  0.40324  1.0000
  C   C603      1.0  0.36687  0.11123  0.55763  1.0000
  C   C604      1.0  0.10826  0.17003  0.39253  1.0000
  N   N46       1.0  0.29915  0.10103  0.57017  1.0000
  H   H612      1.0  0.11528  0.15431  0.41987  1.0000
  N   N47       1.0  0.19122  0.06856  0.57066  1.0000
  H   H613      1.0  0.10356  0.15364  0.40523  1.0000
  H   H614      1.0  0.32561  0.17525  0.52659  1.0000
  C   C605      1.0  0.06039  0.18466  0.40213  1.0000
  H   H615      1.0  0.07164  0.10458  0.40197  1.0000
  C   C606      1.0  0.28509  0.08739  0.57596  1.0000
  C   C607      1.0  0.08324  0.12837  0.54881  1.0000
  H   H616      1.0  0.27823  0.08394  0.57379  1.0000
  S   S215      1.0  0.36643  0.25447  0.57645  1.0000
  C   C608      1.0  0.35142  0.05796  0.38863  1.0000
  H   H617      1.0  0.34620  0.16044  0.57537  1.0000
  H   H618      1.0  0.38542  0.10522  0.56925  1.0000
  H   H619      1.0  0.11511  0.07211  0.57741  1.0000
  N   N48       1.0  0.08508  0.10902  0.42259  1.0000
  H   H620      1.0  0.39291  0.25723  0.56858  1.0000
  H   H621      1.0  0.29935  0.11990  0.56291  1.0000
  H   H622      1.0  0.17578  0.09534  0.39870  1.0000
  C   C609      1.0  0.13604  0.11544  0.50449  1.0000
  H   H623      1.0  0.05182  0.17745  0.42606  1.0000
  H   H624      1.0  0.38457  0.15994  0.56028  1.0000
  H   H625      1.0  0.18858  0.08724  0.57165  1.0000
  H   H626      1.0  0.11605  0.12371  0.47893  1.0000
  C   C610      1.0  0.43300  0.15061  0.54197  1.0000
  H   H627      1.0  0.14080  0.12181  0.50573  1.0000
  H   H628      1.0  0.10875  0.15736  0.53639  1.0000
  C   C611      1.0  0.12315  0.09974  0.50148  1.0000
  C   C612      1.0  0.31881  0.19282  0.55402  1.0000
  C   C613      1.0  0.04792  0.17092  0.40098  1.0000
  C   C614      1.0  0.07881  0.10571  0.40576  1.0000
  C   C615      1.0  0.40503  0.10310  0.54189  1.0000
  C   C616      1.0  0.40613  0.18461  0.57175  1.0000
  C   C617      1.0  0.17769  0.12557  0.41087  1.0000
  H   H629      1.0  0.11809  0.09357  0.50039  1.0000
  H   H630      1.0  0.28862  0.09937  0.55832  1.0000
  H   H631      1.0  0.07981  0.12138  0.43456  1.0000
  N   N49       1.0  0.42313  0.15815  0.53577  1.0000
  H   H632      1.0  0.12815  0.16293  0.42576  1.0000
  C   C618      1.0  0.30849  0.19079  0.56323  1.0000
  H   H633      1.0  0.38598  0.16641  0.57851  1.0000
  H   H634      1.0  0.38326  0.10880  0.38763  1.0000
  H   H635      1.0  0.32385  0.19949  0.55409  1.0000
  H   H636      1.0  0.20800  0.05578  0.57351  1.0000
  C   C619      1.0  0.09060  0.10598  0.39856  1.0000
  H   H637      1.0  0.06697  0.10719  0.42331  1.0000
  H   H638      1.0  0.17072  0.13327  0.41371  1.0000
  C   C620      1.0  0.04838  0.17352  0.42047  1.0000
  H   H639      1.0  0.39810  0.18124  0.53945  1.0000
  C   C621      1.0  0.13036  0.11837  0.49451  1.0000
  C   C622      1.0  0.36524  0.15993  0.56654  1.0000
  H   H640      1.0  0.42984  0.14256  0.54858  1.0000
  S   S216      1.0  0.25261  0.08970  0.39474  1.0000
  H   H641      1.0  0.44130  0.14718  0.53531  1.0000
  C   C623      1.0  0.08972  0.14686  0.53637  1.0000
  C   C624      1.0  0.32272  0.18603  0.54481  1.0000
  C   C625      1.0  0.09662  0.10943  0.41555  1.0000
  H   H642      1.0  0.30538  0.19590  0.57050  1.0000
  H   H643      1.0  0.20237  0.09858  0.40002  1.0000
  H   H644      1.0  0.42878  0.14856  0.52112  1.0000
  C   C626      1.0  0.35816  0.06463  0.39192  1.0000
  H   H645      1.0  0.41519  0.16878  0.54952  1.0000
  H   H646      1.0  0.41479  0.10131  0.53782  1.0000
  N   N50       1.0  0.18409  0.10910  0.40005  1.0000
  C   C627      1.0  0.09351  0.13944  0.55650  1.0000
  S   S217      1.0  0.33014  0.05044  0.39013  1.0000
  H   H647      1.0  0.09272  0.10498  0.38912  1.0000
  H   H648      1.0  0.13086  0.12706  0.48803  1.0000
  C   C628      1.0  0.07621  0.10723  0.41785  1.0000
  C   C629      1.0  0.18919  0.12267  0.41390  1.0000
  C   C630      1.0  0.41259  0.16264  0.51928  1.0000
  Fe  Fe108     1.0  0.15123  0.14534  0.38359  1.0000
  C   C631      1.0  0.03959  0.16317  0.40644  1.0000
  C   C632      1.0  0.42219  0.15583  0.52511  1.0000
  C   C633      1.0  0.17385  0.06248  0.56812  1.0000
  H   H649      1.0  0.17488  0.99553  0.57241  1.0000
  N   N51       1.0  0.12393  0.11060  0.49317  1.0000
  N   N52       1.0  0.05217  0.17603  0.40798  1.0000
  C   C634      1.0  0.11831  0.11362  0.48249  1.0000
  N   N53       1.0  0.34345  0.11799  0.49086  1.0000
  C   C635      1.0  0.33880  0.11861  0.48096  1.0000
  C   C636      1.0  0.34238  0.12839  0.49489  1.0000
  C   C637      1.0  0.33280  0.12986  0.47489  1.0000
  C   C638      1.0  0.33646  0.13980  0.48902  1.0000
  C   C639      1.0  0.33168  0.14052  0.47894  1.0000
  C   C640      1.0  0.35058  0.10634  0.49655  1.0000
  H   H650      1.0  0.34026  0.11051  0.47727  1.0000
  H   H651      1.0  0.34647  0.12796  0.50244  1.0000
  H   H652      1.0  0.32965  0.13037  0.46670  1.0000
  H   H653      1.0  0.33614  0.14810  0.49189  1.0000
  C   C641      1.0  0.10028  0.15824  0.54375  1.0000
  H   H654      1.0  0.14706  0.04372  0.57008  1.0000
  H   H655      1.0  0.38096  0.42791  0.56932  1.0000
  H   H656      1.0  0.40775  0.10076  0.56013  1.0000
  H   H657      1.0  0.08195  0.29150  0.38678  1.0000
  C   C642      1.0  0.29097  0.09618  0.56727  1.0000
  H   H658      1.0  0.40150  0.23322  0.57059  1.0000
  C   C643      1.0  0.41674  0.17811  0.57604  1.0000
  H   H659      1.0  0.30269  0.08913  0.38574  1.0000
  H   H660      1.0  0.12447  0.13115  0.57798  1.0000
  H   H661      1.0  0.32368  0.24177  0.57768  1.0000
  Fe  Fe109     1.0  0.24513  0.10860  0.38450  1.0000
  S   S218      1.0  0.10711  0.11604  0.58049  1.0000
  H   H662      1.0  0.18629  0.00771  0.57823  1.0000
  C   C644      1.0  0.32756  0.14578  0.38866  1.0000
  H   H663      1.0  0.32827  0.15557  0.38637  1.0000
  H   H664      1.0  0.31498  0.25740  0.57598  1.0000
  S   S219      1.0  0.22977  0.08087  0.58036  1.0000
  H   H665      1.0  0.06477  0.27275  0.39890  1.0000
  C   C645      1.0  0.40383  0.43728  0.58219  1.0000
  C   C646      1.0  0.37961  0.10176  0.38557  1.0000
  S   S220      1.0  0.31670  0.12483  0.57904  1.0000
  H   H666      1.0  0.33077  0.25383  0.56770  1.0000
  H   H667      1.0  0.15490  0.11384  0.57590  1.0000
  C   C647      1.0  0.39990  0.25533  0.57423  1.0000
  H   H668      1.0  0.33708  0.26783  0.57591  1.0000
  H   H669      1.0  0.46348  0.15139  0.58110  1.0000
  C   C648      1.0  0.35489  0.16202  0.57586  1.0000
  C   C649      1.0  0.39924  0.42321  0.57281  1.0000
  C   C650      1.0  0.37186  0.12885  0.58188  1.0000
  S   S221      1.0  0.34899  0.12660  0.58145  1.0000
  S   S222      1.0  0.36028  0.20129  0.58068  1.0000
  N   N54       1.0  0.39233  0.44449  0.58202  1.0000
  H   H670      1.0  0.15772  0.13202  0.58118  1.0000
  H   H671      1.0  0.47153  0.12909  0.58167  1.0000
  S   S223      1.0  0.25307  0.10040  0.58188  1.0000
  C   C651      1.0  0.26847  0.11485  0.58197  1.0000
  H   H672      1.0  0.41650  0.42069  0.57790  1.0000
  C   C652      1.0  0.30154  0.09749  0.58171  1.0000
  C   C653      1.0  0.40748  0.42658  0.57753  1.0000
  H   H673      1.0  0.37503  0.44688  0.57735  1.0000
  C   C654      1.0  0.38422  0.44129  0.57733  1.0000
  H   H674      1.0  0.12651  0.18360  0.76095  1.0000
  C   C655      1.0  0.11240  0.12030  0.59136  1.0000
  N   N55       1.0  0.15546  0.12415  0.60035  1.0000
  H   H675      1.0  0.39638  0.35616  0.58981  1.0000
  S   S224      1.0  0.28847  0.11682  0.60538  1.0000
  H   H676      1.0  0.42531  0.17180  0.59163  1.0000
  S   S225      1.0  0.31385  0.13724  0.60203  1.0000
  S   S226      1.0  0.42125  0.14515  0.59682  1.0000
  S   S227      1.0  0.44965  0.11791  0.60566  1.0000
  S   S228      1.0  0.38767  0.13889  0.60411  1.0000
  Fe  Fe110     1.0  0.14518  0.02613  0.62172  1.0000
  S   S229      1.0  0.16092  0.01126  0.61593  1.0000
  S   S230      1.0  0.14105  0.02890  0.64093  1.0000
  C   C656      1.0  0.36027  0.47413  0.62215  1.0000
  C   C657      1.0  0.40922  0.36466  0.60853  1.0000
  H   H677      1.0  0.18588  0.05988  0.62813  1.0000
  Fe  Fe111     1.0  0.14789  0.00643  0.60735  1.0000
  H   H678      1.0  0.40386  0.38963  0.65961  1.0000
  H   H679      1.0  0.16817  0.07152  0.64080  1.0000
  H   H680      1.0  0.36507  0.24566  0.60304  1.0000
  S   S231      1.0  0.13185  0.02036  0.61462  1.0000
  S   S232      1.0  0.14995  0.04053  0.60505  1.0000
  C   C658      1.0  0.15362  0.11401  0.60941  1.0000
  S   S233      1.0  0.22156  0.09078  0.60592  1.0000
  S   S234      1.0  0.19328  0.11885  0.60718  1.0000
  C   C659      1.0  0.36208  0.38341  0.73908  1.0000
  H   H681      1.0  0.32895  0.38541  0.78099  1.0000
  N   N56       1.0  0.39882  0.24411  0.58369  1.0000
  C   C660      1.0  0.17849  0.04346  0.63367  1.0000
  N   N57       1.0  0.34834  0.44351  0.64686  1.0000
  Fe  Fe112     1.0  0.11579  0.11299  0.66616  1.0000
  S   S235      1.0  0.12497  0.09302  0.66746  1.0000
  S   S236      1.0  0.10437  0.11768  0.68420  1.0000
  Fe  Fe113     1.0  0.12374  0.11871  0.63823  1.0000
  S   S237      1.0  0.13329  0.09929  0.63753  1.0000
  S   S238      1.0  0.12564  0.13164  0.61975  1.0000
  Fe  Fe114     1.0  0.11694  0.09432  0.65152  1.0000
  S   S239      1.0  0.10785  0.07972  0.65080  1.0000
  Fe  Fe115     1.0  0.14047  0.09996  0.65338  1.0000
  S   S240      1.0  0.16024  0.09066  0.65297  1.0000
  S   S241      1.0  0.10654  0.11375  0.65104  1.0000
  S   S242      1.0  0.13213  0.11988  0.65324  1.0000
  H   H682      1.0  0.45095  0.32524  0.61890  1.0000
  N   N58       1.0  0.12941  0.16523  0.77177  1.0000
  H   H683      1.0  0.39518  0.21438  0.60828  1.0000
  C   C661      1.0  0.34100  0.44095  0.63965  1.0000
  C   C662      1.0  0.48697  0.12825  0.58929  1.0000
  Fe  Fe116     1.0  0.37869  0.34895  0.72321  1.0000
  S   S243      1.0  0.37132  0.34410  0.70930  1.0000
  S   S244      1.0  0.36919  0.34582  0.74334  1.0000
  Fe  Fe117     1.0  0.39783  0.36088  0.70379  1.0000
  S   S245      1.0  0.39207  0.35767  0.68821  1.0000
  S   S246      1.0  0.41273  0.37078  0.70184  1.0000
  Fe  Fe118     1.0  0.37289  0.36305  0.69870  1.0000
  S   S247      1.0  0.35879  0.37423  0.68800  1.0000
  Fe  Fe119     1.0  0.39101  0.33890  0.69973  1.0000
  S   S248      1.0  0.39937  0.32391  0.68891  1.0000
  S   S249      1.0  0.37866  0.36842  0.71312  1.0000
  S   S250      1.0  0.39842  0.34161  0.71478  1.0000
  Fe  Fe120     1.0  0.45305  0.34574  0.63295  1.0000
  S   S251      1.0  0.46926  0.33775  0.64193  1.0000
  S   S252      1.0  0.43595  0.33788  0.63853  1.0000
  Fe  Fe121     1.0  0.46004  0.37078  0.62346  1.0000
  S   S253      1.0  0.47642  0.36503  0.63212  1.0000
  S   S254      1.0  0.45345  0.39051  0.61496  1.0000
  Fe  Fe122     1.0  0.48004  0.34802  0.62481  1.0000
  Fe  Fe123     1.0  0.46434  0.35539  0.64828  1.0000
  S   S255      1.0  0.46437  0.35576  0.66750  1.0000
  S   S256      1.0  0.46419  0.35436  0.61504  1.0000
  S   S257      1.0  0.44764  0.36287  0.64038  1.0000
  Fe  Fe124     1.0  0.38044  0.29567  0.61694  1.0000
  S   S258      1.0  0.39108  0.29403  0.63138  1.0000
  S   S259      1.0  0.37447  0.27797  0.61737  1.0000
  Fe  Fe125     1.0  0.38083  0.32313  0.60766  1.0000
  S   S260      1.0  0.39160  0.32333  0.62092  1.0000
  S   S261      1.0  0.37669  0.34174  0.59527  1.0000
  Fe  Fe126     1.0  0.40279  0.30545  0.61643  1.0000
  S   S262      1.0  0.42345  0.30238  0.61294  1.0000
  Fe  Fe127     1.0  0.37905  0.31216  0.63468  1.0000
  S   S263      1.0  0.36978  0.31837  0.65254  1.0000
  S   S264      1.0  0.39314  0.30605  0.60176  1.0000
  S   S265      1.0  0.36730  0.31298  0.62169  1.0000
  Fe  Fe128     1.0  0.36974  0.42613  0.60837  1.0000
  S   S266      1.0  0.38908  0.42225  0.61093  1.0000
  S   S267      1.0  0.36034  0.44559  0.60125  1.0000
  Fe  Fe129     1.0  0.36729  0.39937  0.61870  1.0000
  S   S268      1.0  0.38628  0.39360  0.62232  1.0000
  S   S269      1.0  0.35685  0.38411  0.62533  1.0000
  Fe  Fe130     1.0  0.38182  0.41093  0.62909  1.0000
  S   S270      1.0  0.38677  0.41082  0.64651  1.0000
  Fe  Fe131     1.0  0.39152  0.40531  0.60383  1.0000
  C   C663      1.0  0.10791  0.11618  0.60390  1.0000
  S   S271      1.0  0.36224  0.41595  0.62710  1.0000
  S   S272      1.0  0.37280  0.41005  0.59953  1.0000
  S   S273      1.0  0.48166  0.14156  0.62684  1.0000
  Fe  Fe132     1.0  0.09396  0.16639  0.75414  1.0000
  S   S274      1.0  0.08355  0.16375  0.74152  1.0000
  S   S275      1.0  0.09061  0.18464  0.75937  1.0000
  Fe  Fe133     1.0  0.10806  0.14015  0.75723  1.0000
  S   S276      1.0  0.09874  0.13485  0.74539  1.0000
  S   S277      1.0  0.12173  0.12760  0.76777  1.0000
  Fe  Fe134     1.0  0.10153  0.15289  0.73284  1.0000
  S   S278      1.0  0.10799  0.15582  0.71221  1.0000
  Fe  Fe135     1.0  0.08169  0.14602  0.75501  1.0000
  S   S279      1.0  0.06367  0.14001  0.76203  1.0000
  S   S280      1.0  0.11220  0.15739  0.74412  1.0000
  S   S281      1.0  0.09077  0.14944  0.76824  1.0000
  C   C664      1.0  0.18361  0.99961  0.58461  1.0000
  H   H684      1.0  0.39971  0.21402  0.58623  1.0000
  H   H685      1.0  0.34332  0.37195  0.74770  1.0000
  C   C665      1.0  0.09655  0.18539  0.77156  1.0000
  H   H686      1.0  0.35958  0.36115  0.78112  1.0000
  C   C666      1.0  0.36861  0.26081  0.58800  1.0000
  C   C667      1.0  0.20317  0.05192  0.60216  1.0000
  H   H687      1.0  0.30169  0.21288  0.60166  1.0000
  H   H688      1.0  0.34787  0.16719  0.59329  1.0000
  C   C668      1.0  0.32643  0.19381  0.58809  1.0000
  H   H689      1.0  0.13147  0.17861  0.78030  1.0000
  H   H690      1.0  0.10610  0.04809  0.63376  1.0000
  H   H691      1.0  0.10061  0.20318  0.76253  1.0000
  H   H692      1.0  0.10856  0.11173  0.76331  1.0000
  C   C669      1.0  0.37063  0.35360  0.60351  1.0000
  C   C670      1.0  0.37152  0.36574  0.59761  1.0000
  C   C671      1.0  0.36754  0.37511  0.60428  1.0000
  C   C672      1.0  0.36203  0.37252  0.61675  1.0000
  H   H693      1.0  0.14501  0.07267  0.65018  1.0000
  N   N59       1.0  0.35326  0.38356  0.75082  1.0000
  C   C673      1.0  0.11418  0.05716  0.61572  1.0000
  H   H694      1.0  0.36843  0.38441  0.59971  1.0000
  H   H695      1.0  0.12803  0.15010  0.76538  1.0000
  C   C674      1.0  0.44136  0.39235  0.60778  1.0000
  H   H696      1.0  0.10066  0.09550  0.62727  1.0000
  H   H697      1.0  0.40873  0.38785  0.63898  1.0000
  Fe  Fe136     1.0  0.40743  0.13650  0.59350  1.0000
  C   C675      1.0  0.42206  0.40441  0.60259  1.0000
  C   C676      1.0  0.43230  0.40316  0.60747  1.0000
  H   H698      1.0  0.41499  0.41267  0.60260  1.0000
  H   H699      1.0  0.43305  0.41044  0.61129  1.0000
  C   C677      1.0  0.43370  0.32677  0.63205  1.0000
  S   S282      1.0  0.21065  0.05955  0.60846  1.0000
  C   C678      1.0  0.43942  0.31424  0.61679  1.0000
  C   C679      1.0  0.42793  0.31087  0.62086  1.0000
  C   C680      1.0  0.41965  0.31500  0.63087  1.0000
  C   C681      1.0  0.42255  0.32282  0.63650  1.0000
  H   H700      1.0  0.36331  0.37469  0.73612  1.0000
  H   H701      1.0  0.42445  0.38592  0.63075  1.0000
  H   H702      1.0  0.41099  0.31209  0.63428  1.0000
  H   H703      1.0  0.41607  0.32588  0.64429  1.0000
  C   C682      1.0  0.42686  0.36631  0.69216  1.0000
  C   C683      1.0  0.42763  0.36157  0.68198  1.0000
  C   C684      1.0  0.43909  0.35867  0.67407  1.0000
  C   C685      1.0  0.44978  0.36012  0.67659  1.0000
  C   C686      1.0  0.44895  0.36465  0.68688  1.0000
  C   C687      1.0  0.43751  0.36791  0.69452  1.0000
  H   H704      1.0  0.41941  0.36037  0.68008  1.0000
  H   H705      1.0  0.43968  0.35493  0.66629  1.0000
  H   H706      1.0  0.45718  0.36575  0.68889  1.0000
  H   H707      1.0  0.43693  0.37160  0.70237  1.0000
  C   C688      1.0  0.36562  0.38537  0.67692  1.0000
  C   C689      1.0  0.36344  0.38833  0.66509  1.0000
  C   C690      1.0  0.37003  0.39607  0.65575  1.0000
  C   C691      1.0  0.37835  0.40137  0.65834  1.0000
  C   C692      1.0  0.38017  0.39881  0.67030  1.0000
  C   C693      1.0  0.37403  0.39055  0.67954  1.0000
  H   H708      1.0  0.35703  0.38424  0.66302  1.0000
  H   H709      1.0  0.36876  0.39770  0.64654  1.0000
  H   H710      1.0  0.38654  0.40295  0.67238  1.0000
  H   H711      1.0  0.37575  0.38821  0.68870  1.0000
  C   C694      1.0  0.39137  0.32357  0.67803  1.0000
  C   C695      1.0  0.37872  0.32838  0.67943  1.0000
  C   C696      1.0  0.37226  0.32693  0.67139  1.0000
  C   C697      1.0  0.37843  0.32095  0.66171  1.0000
  C   C698      1.0  0.39115  0.31660  0.65998  1.0000
  C   C699      1.0  0.39758  0.31777  0.66821  1.0000
  H   H712      1.0  0.37383  0.33284  0.68697  1.0000
  H   H713      1.0  0.36240  0.33028  0.67282  1.0000
  H   H714      1.0  0.39595  0.31189  0.65261  1.0000
  H   H715      1.0  0.40737  0.31401  0.66707  1.0000
  C   C700      1.0  0.37618  0.36601  0.76916  1.0000
  C   C701      1.0  0.38443  0.36504  0.75792  1.0000
  C   C702      1.0  0.38244  0.35882  0.74995  1.0000
  C   C703      1.0  0.37228  0.35331  0.75328  1.0000
  C   C704      1.0  0.36415  0.35406  0.76463  1.0000
  C   C705      1.0  0.36598  0.36054  0.77247  1.0000
  H   H716      1.0  0.39239  0.36918  0.75532  1.0000
  H   H717      1.0  0.38880  0.35825  0.74125  1.0000
  H   H718      1.0  0.35628  0.34979  0.76727  1.0000
  C   C706      1.0  0.42114  0.39506  0.59754  1.0000
  Fe  Fe137     1.0  0.16486  0.02537  0.59860  1.0000
  C   C707      1.0  0.17833  0.05556  0.63371  1.0000
  H   H719      1.0  0.36803  0.25523  0.61861  1.0000
  C   C708      1.0  0.10845  0.12672  0.69193  1.0000
  C   C709      1.0  0.11334  0.13707  0.68558  1.0000
  C   C710      1.0  0.11390  0.14560  0.69200  1.0000
  C   C711      1.0  0.10962  0.14380  0.70477  1.0000
  C   C712      1.0  0.10551  0.13304  0.71117  1.0000
  C   C713      1.0  0.10489  0.12456  0.70476  1.0000
  H   H720      1.0  0.11606  0.13884  0.67567  1.0000
  H   H721      1.0  0.11717  0.15388  0.68699  1.0000
  H   H722      1.0  0.10224  0.13150  0.72097  1.0000
  H   H723      1.0  0.10115  0.11654  0.70973  1.0000
  C   C714      1.0  0.12050  0.12716  0.60893  1.0000
  C   C715      1.0  0.11215  0.11937  0.61269  1.0000
  H   H724      1.0  0.36988  0.16246  0.60487  1.0000
  H   H725      1.0  0.41522  0.40117  0.63162  1.0000
  C   C716      1.0  0.19043  0.05536  0.60272  1.0000
  H   H726      1.0  0.14101  0.05885  0.66006  1.0000
  H   H727      1.0  0.10869  0.11612  0.62236  1.0000
  H   H728      1.0  0.34908  0.47134  0.59886  1.0000
  C   C717      1.0  0.19111  0.03735  0.59512  1.0000
  C   C718      1.0  0.39639  0.22272  0.60141  1.0000
  C   C719      1.0  0.18445  0.11114  0.62031  1.0000
  C   C720      1.0  0.17381  0.11768  0.62678  1.0000
  C   C721      1.0  0.16638  0.11142  0.63688  1.0000
  C   C722      1.0  0.16982  0.09868  0.64081  1.0000
  C   C723      1.0  0.18078  0.09224  0.63468  1.0000
  C   C724      1.0  0.18794  0.09842  0.62429  1.0000
  H   H729      1.0  0.17123  0.12755  0.62392  1.0000
  H   H730      1.0  0.15807  0.11648  0.64174  1.0000
  H   H731      1.0  0.18368  0.08245  0.63782  1.0000
  H   H732      1.0  0.19617  0.09330  0.61940  1.0000
  N   N60       1.0  0.36694  0.16753  0.58675  1.0000
  H   H733      1.0  0.20918  0.02610  0.59082  1.0000
  H   H734      1.0  0.18607  0.03839  0.62790  1.0000
  C   C725      1.0  0.15922  0.04466  0.64850  1.0000
  H   H735      1.0  0.37130  0.38399  0.73983  1.0000
  H   H736      1.0  0.09422  0.06747  0.63995  1.0000
  H   H737      1.0  0.20542  0.12452  0.62434  1.0000
  C   C726      1.0  0.41320  0.39031  0.65890  1.0000
  C   C727      1.0  0.36308  0.44863  0.65951  1.0000
  H   H738      1.0  0.17455  0.05063  0.59995  1.0000
  C   C728      1.0  0.13206  0.04324  0.64331  1.0000
  C   C729      1.0  0.12290  0.04368  0.65398  1.0000
  C   C730      1.0  0.11570  0.05496  0.65632  1.0000
  C   C731      1.0  0.11798  0.06591  0.64829  1.0000
  C   C732      1.0  0.12741  0.06557  0.63776  1.0000
  C   C733      1.0  0.13435  0.05420  0.63517  1.0000
  H   H739      1.0  0.12120  0.03524  0.66035  1.0000
  H   H740      1.0  0.10836  0.05519  0.66441  1.0000
  H   H741      1.0  0.12904  0.07404  0.63142  1.0000
  H   H742      1.0  0.14157  0.05390  0.62700  1.0000
  H   H743      1.0  0.35600  0.35853  0.63203  1.0000
  C   C734      1.0  0.10078  0.19592  0.77069  1.0000
  H   H744      1.0  0.25596  0.09567  0.60729  1.0000
  S   S283      1.0  0.32564  0.21709  0.59170  1.0000
  H   H745      1.0  0.37212  0.42952  0.66099  1.0000
  Fe  Fe138     1.0  0.30151  0.12980  0.59474  1.0000
  C   C735      1.0  0.36709  0.46209  0.62485  1.0000
  C   C736      1.0  0.36718  0.45332  0.61846  1.0000
  C   C737      1.0  0.36061  0.45659  0.60914  1.0000
  C   C738      1.0  0.35416  0.46875  0.60609  1.0000
  H   H746      1.0  0.37216  0.45947  0.63209  1.0000
  H   H747      1.0  0.37223  0.44401  0.62086  1.0000
  C   C739      1.0  0.35387  0.45790  0.65495  1.0000
  C   C740      1.0  0.45832  0.12466  0.61165  1.0000
  C   C741      1.0  0.46865  0.11723  0.61616  1.0000
  C   C742      1.0  0.47588  0.12221  0.62087  1.0000
  C   C743      1.0  0.47272  0.13466  0.62132  1.0000
  C   C744      1.0  0.46221  0.14202  0.61707  1.0000
  C   C745      1.0  0.45511  0.13710  0.61215  1.0000
  H   H748      1.0  0.47115  0.10757  0.61594  1.0000
  H   H749      1.0  0.48381  0.11638  0.62426  1.0000
  H   H750      1.0  0.45966  0.15166  0.61741  1.0000
  H   H751      1.0  0.44718  0.14293  0.60875  1.0000
  C   C746      1.0  0.42864  0.33045  0.68740  1.0000
  H   H752      1.0  0.12093  0.06875  0.59860  1.0000
  H   H753      1.0  0.38776  0.29585  0.68977  1.0000
  H   H754      1.0  0.41018  0.43966  0.58614  1.0000
  C   C747      1.0  0.33578  0.38486  0.77252  1.0000
  C   C748      1.0  0.28751  0.08370  0.58773  1.0000
  H   H755      1.0  0.16875  0.02860  0.64108  1.0000
  C   C749      1.0  0.37686  0.13576  0.59765  1.0000
  C   C750      1.0  0.36433  0.13775  0.60341  1.0000
  C   C751      1.0  0.35559  0.13529  0.59842  1.0000
  H   H756      1.0  0.36138  0.14109  0.61183  1.0000
  H   H757      1.0  0.34599  0.13667  0.60302  1.0000
  C   C752      1.0  0.36519  0.35101  0.61600  1.0000
  H   H758      1.0  0.40734  0.18179  0.60558  1.0000
  C   C753      1.0  0.42892  0.39110  0.66864  1.0000
  H   H759      1.0  0.39335  0.23398  0.61451  1.0000
  H   H760      1.0  0.43193  0.39089  0.67681  1.0000
  H   H761      1.0  0.35681  0.35055  0.65567  1.0000
  C   C754      1.0  0.44040  0.38296  0.60281  1.0000
  H   H762      1.0  0.44663  0.39218  0.65660  1.0000
  C   C755      1.0  0.37215  0.27173  0.60581  1.0000
  C   C756      1.0  0.36905  0.26010  0.60913  1.0000
  H   H763      1.0  0.37553  0.17589  0.59565  1.0000
  H   H764      1.0  0.05945  0.20041  0.76900  1.0000
  H   H765      1.0  0.23502  0.13003  0.58544  1.0000
  H   H766      1.0  0.27018  0.10201  0.61606  1.0000
  H   H767      1.0  0.40860  0.37245  0.61237  1.0000
  H   H768      1.0  0.36425  0.34172  0.62059  1.0000
  S   S284      1.0  0.29377  0.14819  0.58416  1.0000
  S   S285      1.0  0.18427  0.02825  0.58985  1.0000
  C   C757      1.0  0.29579  0.08875  0.59064  1.0000
  H   H769      1.0  0.21766  0.12230  0.60054  1.0000
  H   H770      1.0  0.05357  0.17604  0.77990  1.0000
  C   C758      1.0  0.20386  0.03421  0.59420  1.0000
  C   C759      1.0  0.26146  0.10221  0.60164  1.0000
  S   S286      1.0  0.30006  0.17342  0.59583  1.0000
  H   H771      1.0  0.10170  0.99444  0.60237  1.0000
  S   S287      1.0  0.35575  0.22349  0.59568  1.0000
  C   C760      1.0  0.36797  0.17088  0.59772  1.0000
  S   S288      1.0  0.40822  0.39646  0.59171  1.0000
  C   C761      1.0  0.39637  0.18904  0.59186  1.0000
  C   C762      1.0  0.41897  0.34418  0.60541  1.0000
  H   H772      1.0  0.11951  0.04870  0.61299  1.0000
  H   H773      1.0  0.21957  0.03842  0.59767  1.0000
  H   H774      1.0  0.13513  0.99284  0.59054  1.0000
  Fe  Fe139     1.0  0.23406  0.09542  0.58744  1.0000
  H   H775      1.0  0.44590  0.31097  0.60908  1.0000
  C   C763      1.0  0.37339  0.27790  0.59350  1.0000
  C   C764      1.0  0.30151  0.19521  0.59914  1.0000
  C   C765      1.0  0.26106  0.10653  0.58922  1.0000
  C   C766      1.0  0.36060  0.36051  0.62250  1.0000
  S   S289      1.0  0.42067  0.11836  0.59293  1.0000
  C   C767      1.0  0.44319  0.32599  0.66904  1.0000
  H   H776      1.0  0.28260  0.07730  0.59469  1.0000
  N   N61       1.0  0.42131  0.39109  0.64782  1.0000
  H   H777      1.0  0.37544  0.36787  0.58789  1.0000
  C   C768      1.0  0.09679  0.17603  0.78215  1.0000
  H   H778      1.0  0.35270  0.46727  0.65591  1.0000
  C   C769      1.0  0.43715  0.39183  0.65732  1.0000
  H   H779      1.0  0.41043  0.38960  0.67828  1.0000
  H   H780      1.0  0.33988  0.46260  0.64452  1.0000
  C   C770      1.0  0.41723  0.39150  0.63675  1.0000
  H   H781      1.0  0.35899  0.42516  0.64975  1.0000
  H   H782      1.0  0.36897  0.45070  0.66424  1.0000
  C   C771      1.0  0.36486  0.43679  0.65767  1.0000
  H   H783      1.0  0.29185  0.19588  0.60340  1.0000
  C   C772      1.0  0.10821  0.07929  0.61139  1.0000
  N   N62       1.0  0.41803  0.12019  0.62673  1.0000
  C   C773      1.0  0.40663  0.12709  0.62544  1.0000
  C   C774      1.0  0.42633  0.12518  0.62926  1.0000
  C   C775      1.0  0.40343  0.13943  0.62630  1.0000
  C   C776      1.0  0.42346  0.13751  0.63012  1.0000
  C   C777      1.0  0.41194  0.14468  0.62859  1.0000
  C   C778      1.0  0.42124  0.10722  0.62595  1.0000
  H   H784      1.0  0.39998  0.12315  0.62351  1.0000
  H   H785      1.0  0.43534  0.11968  0.63038  1.0000
  H   H786      1.0  0.39449  0.14494  0.62491  1.0000
  H   H787      1.0  0.43022  0.14148  0.63182  1.0000
  H   H788      1.0  0.40964  0.15431  0.62903  1.0000
  H   H789      1.0  0.41542  0.10523  0.62078  1.0000
  H   H790      1.0  0.43094  0.10475  0.62099  1.0000
  H   H791      1.0  0.42008  0.10130  0.63531  1.0000
  N   N63       1.0  0.07993  0.15025  0.70346  1.0000
  C   C779      1.0  0.07804  0.13953  0.70210  1.0000
  C   C780      1.0  0.07752  0.15276  0.71487  1.0000
  C   C781      1.0  0.07399  0.13082  0.71238  1.0000
  C   C782      1.0  0.07336  0.14429  0.72533  1.0000
  C   C783      1.0  0.07166  0.13323  0.72406  1.0000
  C   C784      1.0  0.08414  0.15932  0.69261  1.0000
  H   H792      1.0  0.08020  0.13740  0.69308  1.0000
  H   H793      1.0  0.07916  0.16119  0.71594  1.0000
  H   H794      1.0  0.07299  0.12214  0.71125  1.0000
  H   H795      1.0  0.07162  0.14621  0.73439  1.0000
  H   H796      1.0  0.06867  0.12651  0.73214  1.0000
  H   H797      1.0  0.08968  0.15480  0.68494  1.0000
  H   H798      1.0  0.07613  0.16611  0.68961  1.0000
  H   H799      1.0  0.09024  0.16419  0.69463  1.0000
  C   C785      1.0  0.12478  0.13150  0.59639  1.0000
  H   H800      1.0  0.40320  0.33400  0.59144  1.0000
  Fe  Fe140     1.0  0.37111  0.20846  0.58957  1.0000
  Fe  Fe141     1.0  0.13820  0.03335  0.59720  1.0000
  C   C786      1.0  0.44227  0.32231  0.62232  1.0000
  C   C787      1.0  0.47780  0.15306  0.58892  1.0000
  C   C788      1.0  0.05784  0.20046  0.77867  1.0000
  C   C789      1.0  0.22486  0.12409  0.60377  1.0000
  C   C790      1.0  0.26958  0.10578  0.60657  1.0000
  S   S290      1.0  0.37912  0.37381  0.77893  1.0000
  C   C791      1.0  0.45256  0.32729  0.67380  1.0000
  S   S291      1.0  0.15346  0.01914  0.58923  1.0000
  C   C792      1.0  0.38353  0.29358  0.68358  1.0000
  H   H801      1.0  0.37569  0.28687  0.59077  1.0000
  H   H802      1.0  0.42378  0.32656  0.67226  1.0000
  C   C793      1.0  0.33504  0.37793  0.76466  1.0000
  C   C794      1.0  0.41717  0.17703  0.58826  1.0000
  H   H803      1.0  0.44525  0.32386  0.66003  1.0000
  C   C795      1.0  0.40132  0.36545  0.60098  1.0000
  C   C796      1.0  0.37083  0.29709  0.68455  1.0000
  S   S292      1.0  0.38371  0.19619  0.60157  1.0000
  C   C797      1.0  0.15619  0.12403  0.58840  1.0000
  C   C798      1.0  0.43042  0.38443  0.59745  1.0000
  H   H804      1.0  0.36516  0.30212  0.69148  1.0000
  H   H805      1.0  0.42454  0.35331  0.61641  1.0000
  N   N64       1.0  0.37423  0.35482  0.65350  1.0000
  C   C799      1.0  0.38087  0.35845  0.65955  1.0000
  C   C800      1.0  0.38009  0.34875  0.64420  1.0000
  C   C801      1.0  0.39373  0.35596  0.65636  1.0000
  C   C802      1.0  0.39294  0.34611  0.64078  1.0000
  C   C803      1.0  0.39977  0.34978  0.64690  1.0000
  C   C804      1.0  0.36077  0.35796  0.65660  1.0000
  H   H806      1.0  0.37624  0.36319  0.66698  1.0000
  H   H807      1.0  0.37486  0.34568  0.63953  1.0000
  H   H808      1.0  0.39897  0.35873  0.66124  1.0000
  H   H809      1.0  0.39753  0.34111  0.63354  1.0000
  H   H810      1.0  0.40974  0.34775  0.64440  1.0000
  H   H811      1.0  0.35729  0.35918  0.66623  1.0000
  H   H812      1.0  0.35740  0.36667  0.65035  1.0000
  H   H813      1.0  0.32769  0.37296  0.76702  1.0000
  C   C805      1.0  0.10654  0.05681  0.62733  1.0000
  H   H814      1.0  0.10897  0.08805  0.60511  1.0000
  C   C806      1.0  0.05408  0.14994  0.77146  1.0000
  H   H815      1.0  0.47412  0.16268  0.58914  1.0000
  C   C807      1.0  0.39886  0.22252  0.58900  1.0000
  C   C808      1.0  0.30823  0.18475  0.59468  1.0000
  H   H816      1.0  0.35879  0.39121  0.73191  1.0000
  C   C809      1.0  0.35396  0.47751  0.61260  1.0000
  Fe  Fe142     1.0  0.34567  0.21760  0.58480  1.0000
  H   H817      1.0  0.32594  0.17601  0.58548  1.0000
  H   H818      1.0  0.33833  0.25832  0.61400  1.0000
  H   H819      1.0  0.10931  0.20496  0.77913  1.0000
  H   H820      1.0  0.29734  0.08638  0.59990  1.0000
  H   H821      1.0  0.21530  0.11475  0.63441  1.0000
  C   C810      1.0  0.48831  0.14678  0.59355  1.0000
  C   C811      1.0  0.16885  0.03796  0.64108  1.0000
  H   H822      1.0  0.03978  0.13950  0.77846  1.0000
  C   C812      1.0  0.41815  0.35397  0.61076  1.0000
  C   C813      1.0  0.44972  0.33021  0.68534  1.0000
  N   N65       1.0  0.43784  0.33193  0.69189  1.0000
  C   C814      1.0  0.21401  0.11735  0.62482  1.0000
  H   H823      1.0  0.40073  0.28526  0.67317  1.0000
  H   H824      1.0  0.42580  0.34120  0.70564  1.0000
  C   C815      1.0  0.43501  0.33502  0.70396  1.0000
  C   C816      1.0  0.39081  0.28767  0.67423  1.0000
  C   C817      1.0  0.38526  0.28537  0.66595  1.0000
  Fe  Fe143     1.0  0.32830  0.13409  0.58500  1.0000
  H   H825      1.0  0.39452  0.37383  0.59900  1.0000
  H   H826      1.0  0.15187  0.04023  0.65436  1.0000
  H   H827      1.0  0.15301  0.11412  0.61888  1.0000
  H   H828      1.0  0.10110  0.11057  0.60679  1.0000
  H   H829      1.0  0.49025  0.11846  0.58974  1.0000
  H   H830      1.0  0.49264  0.15162  0.59749  1.0000
  H   H831      1.0  0.43514  0.32652  0.71126  1.0000
  C   C818      1.0  0.27640  0.11860  0.58696  1.0000
  C   C819      1.0  0.18437  0.04799  0.59940  1.0000
  H   H832      1.0  0.18520  0.06355  0.60599  1.0000
  C   C820      1.0  0.40700  0.18257  0.59616  1.0000
  C   C821      1.0  0.35739  0.43438  0.65126  1.0000
  H   H833      1.0  0.35578  0.29786  0.67660  1.0000
  C   C822      1.0  0.43115  0.32754  0.67588  1.0000
  C   C823      1.0  0.34660  0.45519  0.64853  1.0000
  H   H834      1.0  0.41925  0.33167  0.69266  1.0000
  H   H835      1.0  0.36488  0.29538  0.65136  1.0000
  C   C824      1.0  0.12774  0.17393  0.76022  1.0000
  C   C825      1.0  0.27727  0.11381  0.59921  1.0000
  C   C826      1.0  0.15207  0.10353  0.60665  1.0000
  H   H836      1.0  0.35841  0.28337  0.66272  1.0000
  N   N66       1.0  0.10074  0.07886  0.62282  1.0000
  H   H837      1.0  0.39103  0.28107  0.65852  1.0000
  C   C827      1.0  0.20980  0.04128  0.59795  1.0000
  C   C828      1.0  0.36706  0.28665  0.65810  1.0000
  C   C829      1.0  0.32075  0.18401  0.58910  1.0000
  C   C830      1.0  0.40241  0.35546  0.59582  1.0000
  H   H838      1.0  0.15100  0.09550  0.59230  1.0000
  H   H839      1.0  0.07561  0.20378  0.77720  1.0000
  H   H840      1.0  0.33178  0.44719  0.64036  1.0000
  H   H841      1.0  0.05401  0.12111  0.78084  1.0000
  H   H842      1.0  0.37320  0.27966  0.65295  1.0000
  C   C831      1.0  0.36558  0.29462  0.67613  1.0000
  C   C832      1.0  0.15460  0.11373  0.58534  1.0000
  C   C833      1.0  0.15245  0.10346  0.59454  1.0000
  H   H843      1.0  0.34314  0.27150  0.59327  1.0000
  C   C834      1.0  0.33457  0.26226  0.58499  1.0000
  S   S293      1.0  0.20036  0.09184  0.59096  1.0000
  N   N67       1.0  0.22444  0.12191  0.61607  1.0000
  C   C835      1.0  0.23353  0.12420  0.62014  1.0000
  S   S294      1.0  0.12401  0.04693  0.58781  1.0000
  C   C836      1.0  0.24334  0.12884  0.61180  1.0000
  C   C837      1.0  0.23456  0.12864  0.59519  1.0000
  C   C838      1.0  0.24378  0.13114  0.59926  1.0000
  C   C839      1.0  0.33807  0.26436  0.59478  1.0000
  H   H844      1.0  0.08832  0.09613  0.61997  1.0000
  C   C840      1.0  0.30710  0.20488  0.59814  1.0000
  H   H845      1.0  0.21270  0.10909  0.62256  1.0000
  C   C841      1.0  0.39672  0.24433  0.59584  1.0000
  C   C842      1.0  0.04297  0.14729  0.77897  1.0000
  C   C843      1.0  0.35936  0.13069  0.58769  1.0000
  S   S295      1.0  0.35881  0.48418  0.63178  1.0000
  N   N68       1.0  0.32834  0.25316  0.58679  1.0000
  H   H846      1.0  0.43951  0.39275  0.63811  1.0000
  H   H847      1.0  0.44169  0.34008  0.70459  1.0000
  H   H848      1.0  0.46193  0.32630  0.66850  1.0000
  C   C844      1.0  0.34535  0.39110  0.76944  1.0000
  C   C845      1.0  0.09982  0.06781  0.63075  1.0000
  C   C846      1.0  0.41685  0.39036  0.66946  1.0000
  C   C847      1.0  0.43311  0.39199  0.64691  1.0000
  Fe  Fe144     1.0  0.43502  0.12771  0.59432  1.0000
  C   C848      1.0  0.10321  0.10000  0.78090  1.0000
  H   H849      1.0  0.06617  0.16270  0.76585  1.0000
  C   C849      1.0  0.47183  0.14672  0.58443  1.0000
  C   C850      1.0  0.36735  0.25464  0.60031  1.0000
  Fe  Fe145     1.0  0.20700  0.10497  0.59739  1.0000
  Fe  Fe146     1.0  0.30725  0.15533  0.58989  1.0000
  C   C851      1.0  0.11502  0.06845  0.60767  1.0000
  N   N69       1.0  0.37277  0.28871  0.66706  1.0000
  H   H850      1.0  0.45703  0.33154  0.68878  1.0000
  C   C852      1.0  0.16836  0.06208  0.64096  1.0000
  H   H851      1.0  0.15200  0.06557  0.66321  1.0000
  H   H852      1.0  0.11221  0.99526  0.61820  1.0000
  N   N70       1.0  0.15895  0.05664  0.64820  1.0000
  C   C853      1.0  0.10876  0.10947  0.77295  1.0000
  H   H853      1.0  0.13107  0.13770  0.59344  1.0000
  C   C854      1.0  0.34388  0.37744  0.75374  1.0000
  C   C855      1.0  0.35408  0.39035  0.75849  1.0000
  H   H854      1.0  0.44746  0.37467  0.60288  1.0000
  C   C856      1.0  0.14874  0.06371  0.65582  1.0000
  C   C857      1.0  0.31953  0.20428  0.59267  1.0000
  Fe  Fe147     1.0  0.21571  0.07782  0.59800  1.0000
  C   C858      1.0  0.09402  0.09038  0.62662  1.0000
  C   C859      1.0  0.12097  0.12785  0.58762  1.0000
  H   H855      1.0  0.42981  0.37725  0.59341  1.0000
  H   H856      1.0  0.08787  0.08876  0.63584  1.0000
  H   H857      1.0  0.34599  0.39651  0.77550  1.0000
  H   H858      1.0  0.13582  0.17185  0.75276  1.0000
  H   H859      1.0  0.33953  0.43138  0.64291  1.0000
  C   C860      1.0  0.13130  0.16907  0.78119  1.0000
  H   H860      1.0  0.34578  0.44224  0.62983  1.0000
  C   C861      1.0  0.11487  0.11573  0.77743  1.0000
  H   H861      1.0  0.30753  0.10175  0.58423  1.0000
  C   C862      1.0  0.39535  0.23368  0.60489  1.0000
  H   H862      1.0  0.36158  0.39510  0.75626  1.0000
  C   C863      1.0  0.18634  0.99619  0.59623  1.0000
  H   H863      1.0  0.25141  0.13459  0.59270  1.0000
  H   H864      1.0  0.09866  0.09502  0.77741  1.0000
  N   N71       1.0  0.49285  0.13458  0.59353  1.0000
  C   C864      1.0  0.32893  0.24775  0.60819  1.0000
  C   C865      1.0  0.47639  0.13422  0.58467  1.0000
  N   N72       1.0  0.41103  0.34494  0.59822  1.0000
  C   C866      1.0  0.38866  0.45542  0.58736  1.0000
  H   H865      1.0  0.11935  0.17328  0.75766  1.0000
  C   C867      1.0  0.05779  0.16038  0.77180  1.0000
  C   C868      1.0  0.37152  0.27251  0.58471  1.0000
  H   H866      1.0  0.15226  0.13574  0.61292  1.0000
  C   C869      1.0  0.35591  0.16583  0.58597  1.0000
  H   H867      1.0  0.25067  0.13047  0.61500  1.0000
  C   C870      1.0  0.41230  0.33475  0.59238  1.0000
  C   C871      1.0  0.33536  0.25695  0.60642  1.0000
  C   C872      1.0  0.05055  0.16805  0.77971  1.0000
  H   H868      1.0  0.23328  0.12244  0.62987  1.0000
  H   H869      1.0  0.37952  0.46099  0.58578  1.0000
  H   H870      1.0  0.35937  0.17704  0.60144  1.0000
  H   H871      1.0  0.34865  0.48677  0.61047  1.0000
  C   C873      1.0  0.32532  0.24608  0.59825  1.0000
  H   H872      1.0  0.42608  0.33603  0.60693  1.0000
  H   H873      1.0  0.39576  0.25284  0.59864  1.0000
  H   H874      1.0  0.33602  0.19333  0.58372  1.0000
  C   C874      1.0  0.15716  0.13502  0.60337  1.0000
  H   H875      1.0  0.41618  0.32581  0.59795  1.0000
  H   H876      1.0  0.32677  0.24189  0.61719  1.0000
  C   C875      1.0  0.38057  0.13138  0.58680  1.0000
  C   C876      1.0  0.10559  0.19699  0.78014  1.0000
  H   H877      1.0  0.15044  0.09560  0.61390  1.0000
  C   C877      1.0  0.12928  0.15318  0.77294  1.0000
  H   H878      1.0  0.19113  0.00163  0.59890  1.0000
  H   H879      1.0  0.38793  0.45260  0.59744  1.0000
  H   H880      1.0  0.16713  0.13448  0.60238  1.0000
  H   H881      1.0  0.15324  0.14355  0.59728  1.0000
  H   H882      1.0  0.32018  0.23901  0.59975  1.0000
  H   H883      1.0  0.41842  0.33616  0.58316  1.0000
  H   H884      1.0  0.39547  0.46139  0.58331  1.0000
  H   H885      1.0  0.11526  0.35710  0.82838  1.0000
  S   S296      1.0  0.12705  0.01410  0.81973  1.0000
  Fe  Fe148     1.0  0.11742  0.34292  0.93750  1.0000
  S   S297      1.0  0.10926  0.36091  0.92647  1.0000
  S   S298      1.0  0.12625  0.32675  0.92815  1.0000
  Fe  Fe149     1.0  0.11319  0.35401  0.96056  1.0000
  S   S299      1.0  0.10415  0.37248  0.95116  1.0000
  Fe  Fe150     1.0  0.09482  0.36212  0.94365  1.0000
  S   S300      1.0  0.07454  0.36818  0.94388  1.0000
  Fe  Fe151     1.0  0.11942  0.36927  0.93503  1.0000
  S   S301      1.0  0.13224  0.38207  0.92567  1.0000
  S   S302      1.0  0.10243  0.34367  0.95456  1.0000
  S   S303      1.0  0.12895  0.35118  0.94463  1.0000
  Fe  Fe152     1.0  0.13359  0.28478  0.87138  1.0000
  S   S304      1.0  0.12188  0.27678  0.88919  1.0000
  S   S305      1.0  0.15348  0.28522  0.86886  1.0000
  Fe  Fe153     1.0  0.11261  0.29412  0.85856  1.0000
  S   S306      1.0  0.09908  0.28779  0.87540  1.0000
  S   S307      1.0  0.10475  0.30291  0.84194  1.0000
  Fe  Fe154     1.0  0.10881  0.29502  0.88550  1.0000
  S   S308      1.0  0.09842  0.30810  0.89827  1.0000
  Fe  Fe155     1.0  0.11331  0.27019  0.87719  1.0000
  S   S309      1.0  0.10538  0.25297  0.88071  1.0000
  S   S310      1.0  0.12090  0.30310  0.86825  1.0000
  S   S311      1.0  0.12646  0.27646  0.85983  1.0000
  Fe  Fe156     1.0  0.04712  0.37190  0.85764  1.0000
  S   S312      1.0  0.04045  0.36047  0.87602  1.0000
  S   S313      1.0  0.03221  0.38307  0.84697  1.0000
  Fe  Fe157     1.0  0.07428  0.36270  0.86036  1.0000
  S   S314      1.0  0.06930  0.35028  0.87868  1.0000
  S   S315      1.0  0.09482  0.36016  0.85229  1.0000
  Fe  Fe158     1.0  0.05621  0.34580  0.87013  1.0000
  S   S316      1.0  0.05370  0.32714  0.87074  1.0000
  Fe  Fe159     1.0  0.05418  0.36628  0.88273  1.0000
  S   S317      1.0  0.04798  0.37156  0.90119  1.0000
  S   S318      1.0  0.06236  0.35676  0.85143  1.0000
  S   S319      1.0  0.05966  0.37920  0.86481  1.0000
  Fe  Fe160     1.0  0.17159  0.35273  0.88075  1.0000
  S   S320      1.0  0.16535  0.37307  0.87579  1.0000
  S   S321      1.0  0.17568  0.34587  0.89940  1.0000
  Fe  Fe161     1.0  0.16992  0.34907  0.85676  1.0000
  S   S322      1.0  0.16417  0.36934  0.84931  1.0000
  S   S323      1.0  0.17216  0.33500  0.84567  1.0000
  Fe  Fe162     1.0  0.17862  0.37167  0.85793  1.0000
  S   S324      1.0  0.19077  0.38581  0.84886  1.0000
  Fe  Fe163     1.0  0.15151  0.36911  0.86780  1.0000
  S   S325      1.0  0.13175  0.37964  0.87071  1.0000
  S   S326      1.0  0.18569  0.35131  0.86341  1.0000
  S   S327      1.0  0.15642  0.34876  0.87473  1.0000
  H   H886      1.0  0.06668  0.10010  0.82001  1.0000
  C   C878      1.0  0.06389  0.10489  0.81144  1.0000
  S   S328      1.0  0.39510  0.36510  0.96085  1.0000
  Fe  Fe164     1.0  0.31741  0.47397  0.85870  1.0000
  S   S329      1.0  0.33328  0.45843  0.85521  1.0000
  S   S330      1.0  0.29970  0.46793  0.86958  1.0000
  C   C879      1.0  0.28699  0.44180  0.82569  1.0000
  Fe  Fe165     1.0  0.33622  0.46950  0.83601  1.0000
  S   S331      1.0  0.33934  0.46080  0.81987  1.0000
  Fe  Fe166     1.0  0.34455  0.46969  0.85867  1.0000
  S   S332      1.0  0.36084  0.46380  0.86754  1.0000
  H   H887      1.0  0.09585  0.13850  0.79679  1.0000
  Fe  Fe167     1.0  0.24609  0.40536  0.86389  1.0000
  S   S333      1.0  0.26211  0.39171  0.85615  1.0000
  S   S334      1.0  0.22844  0.39818  0.87322  1.0000
  Fe  Fe168     1.0  0.26190  0.42520  0.85667  1.0000
  S   S335      1.0  0.27865  0.41307  0.84792  1.0000
  S   S336      1.0  0.26236  0.44490  0.85600  1.0000
  Fe  Fe169     1.0  0.26555  0.40740  0.84044  1.0000
  S   S337      1.0  0.26887  0.40528  0.82115  1.0000
  Fe  Fe170     1.0  0.27347  0.39869  0.86455  1.0000
  S   S338      1.0  0.28780  0.38548  0.87406  1.0000
  S   S339      1.0  0.24897  0.42084  0.84756  1.0000
  S   S340      1.0  0.25734  0.41107  0.87392  1.0000
  Fe  Fe171     1.0  0.36693  0.39660  0.88892  1.0000
  S   S341      1.0  0.37018  0.37758  0.90053  1.0000
  S   S342      1.0  0.38215  0.40686  0.88117  1.0000
  Fe  Fe172     1.0  0.33975  0.39845  0.89231  1.0000
  S   S343      1.0  0.34043  0.37970  0.90456  1.0000
  S   S344      1.0  0.32319  0.41159  0.88620  1.0000
  Fe  Fe173     1.0  0.35304  0.38474  0.91331  1.0000
  S   S345      1.0  0.35038  0.38093  0.93395  1.0000
  Fe  Fe174     1.0  0.35746  0.37419  0.89068  1.0000
  S   S346      1.0  0.36041  0.35605  0.88549  1.0000
  S   S347      1.0  0.35065  0.40410  0.90240  1.0000
  S   S348      1.0  0.35592  0.39258  0.87779  1.0000
  C   C880      1.0  0.10002  0.35067  0.88631  1.0000
  S   S349      1.0  0.34660  0.37368  0.80189  1.0000
  C   C881      1.0  0.37469  0.40932  0.91338  1.0000
  H   H888      1.0  0.09839  0.33855  0.84305  1.0000
  Fe  Fe175     1.0  0.34964  0.37125  0.82087  1.0000
  S   S350      1.0  0.34653  0.35522  0.83640  1.0000
  S   S351      1.0  0.34014  0.39042  0.82276  1.0000
  Fe  Fe176     1.0  0.02038  0.15802  0.84145  1.0000
  S   S352      1.0  0.00915  0.17316  0.82986  1.0000
  S   S353      1.0  0.03115  0.15967  0.85431  1.0000
  Fe  Fe177     1.0  0.01842  0.13862  0.82929  1.0000
  S   S354      1.0  0.00729  0.15206  0.81633  1.0000
  S   S355      1.0  0.02400  0.11840  0.82977  1.0000
  Fe  Fe178     1.0  0.02038  0.16411  0.81441  1.0000
  H   H889      1.0  0.36812  0.46071  0.82099  1.0000
  H   H890      1.0  0.39526  0.35120  0.81469  1.0000
  S   S356      1.0  0.03242  0.14989  0.82579  1.0000
  S   S357      1.0  0.00718  0.14540  0.84614  1.0000
  Fe  Fe179     1.0  0.10886  0.07237  0.84418  1.0000
  S   S358      1.0  0.09109  0.07300  0.83946  1.0000
  S   S359      1.0  0.11996  0.05367  0.85114  1.0000
  Fe  Fe180     1.0  0.10676  0.10036  0.83514  1.0000
  S   S360      1.0  0.08883  0.10279  0.82987  1.0000
  S   S361      1.0  0.11440  0.11771  0.82838  1.0000
  Fe  Fe181     1.0  0.08417  0.08969  0.84764  1.0000
  S   S362      1.0  0.06543  0.09221  0.85981  1.0000
  Fe  Fe182     1.0  0.09777  0.08594  0.82229  1.0000
  S   S363      1.0  0.09637  0.08555  0.80352  1.0000
  S   S364      1.0  0.10145  0.08833  0.85376  1.0000
  S   S365      1.0  0.11613  0.08414  0.82632  1.0000
  Fe  Fe183     1.0  0.10024  0.20536  0.84030  1.0000
  S   S366      1.0  0.09192  0.21003  0.82362  1.0000
  S   S367      1.0  0.10984  0.21908  0.84337  1.0000
  Fe  Fe184     1.0  0.09685  0.17872  0.84625  1.0000
  S   S368      1.0  0.08838  0.18138  0.83028  1.0000
  S   S369      1.0  0.09871  0.15989  0.85855  1.0000
  Fe  Fe185     1.0  0.10295  0.19181  0.81974  1.0000
  S   S370      1.0  0.11395  0.18842  0.80129  1.0000
  Fe  Fe186     1.0  0.07798  0.19909  0.83562  1.0000
  S   S371      1.0  0.05824  0.20440  0.83391  1.0000
  S   S372      1.0  0.11247  0.18778  0.83530  1.0000
  S   S373      1.0  0.08526  0.19578  0.85267  1.0000
  C   C882      1.0  0.10974  0.12924  0.83701  1.0000
  C   C883      1.0  0.11262  0.14079  0.83141  1.0000
  C   C884      1.0  0.10901  0.15027  0.83791  1.0000
  C   C885      1.0  0.10278  0.14817  0.85018  1.0000
  C   C886      1.0  0.09989  0.13662  0.85581  1.0000
  C   C887      1.0  0.10322  0.12721  0.84918  1.0000
  H   H891      1.0  0.11767  0.14242  0.82202  1.0000
  H   H892      1.0  0.11134  0.15912  0.83351  1.0000
  H   H893      1.0  0.09509  0.13494  0.86530  1.0000
  H   H894      1.0  0.10099  0.11832  0.85358  1.0000
  C   C888      1.0  0.03853  0.17220  0.84879  1.0000
  C   C889      1.0  0.03362  0.18280  0.84095  1.0000
  C   C890      1.0  0.03953  0.19278  0.83671  1.0000
  C   C891      1.0  0.05063  0.19204  0.83991  1.0000
  C   C892      1.0  0.05564  0.18136  0.84761  1.0000
  C   C893      1.0  0.04949  0.17154  0.85220  1.0000
  H   H895      1.0  0.02507  0.18348  0.83845  1.0000
  H   H896      1.0  0.03547  0.20108  0.83095  1.0000
  H   H897      1.0  0.06412  0.18076  0.85026  1.0000
  H   H898      1.0  0.05329  0.16342  0.85835  1.0000
  C   C894      1.0  0.03560  0.11125  0.83802  1.0000
  C   C895      1.0  0.04570  0.11654  0.83628  1.0000
  C   C896      1.0  0.05514  0.11048  0.84265  1.0000
  C   C897      1.0  0.05431  0.09930  0.85098  1.0000
  C   C898      1.0  0.04424  0.09401  0.85269  1.0000
  C   C899      1.0  0.03500  0.09988  0.84605  1.0000
  H   H899      1.0  0.04640  0.12513  0.82981  1.0000
  H   H900      1.0  0.06289  0.11461  0.84135  1.0000
  H   H901      1.0  0.04361  0.08534  0.85910  1.0000
  H   H902      1.0  0.02729  0.09570  0.84729  1.0000
  H   H903      1.0  0.29974  0.45079  0.89594  1.0000
  H   H904      1.0  0.10361  0.32981  0.83114  1.0000
  C   C900      1.0  0.14105  0.33689  0.83524  1.0000
  C   C901      1.0  0.37074  0.33902  0.81866  1.0000
  H   H905      1.0  0.30771  0.44069  0.88561  1.0000
  H   H906      1.0  0.10951  0.37245  0.89257  1.0000
  H   H907      1.0  0.05328  0.16804  0.82415  1.0000
  C   C902      1.0  0.07496  0.20363  0.80057  1.0000
  C   C903      1.0  0.99888  0.40086  0.79676  1.0000
  H   H908      1.0  0.07469  0.14806  0.79644  1.0000
  C   C904      1.0  0.37568  0.44203  0.81881  1.0000
  C   C905      1.0  0.10461  0.33960  0.88231  1.0000
  H   H909      1.0  0.01000  0.39267  0.83769  1.0000
  H   H910      1.0  0.10179  0.16992  0.79987  1.0000
  H   H911      1.0  0.10902  0.10200  0.80745  1.0000
  S   S374      1.0  0.36863  0.37493  0.81437  1.0000
  C   C906      1.0  0.35654  0.35631  0.87170  1.0000
  C   C907      1.0  0.35730  0.36631  0.86169  1.0000
  C   C908      1.0  0.35426  0.36609  0.85076  1.0000
  C   C909      1.0  0.35038  0.35590  0.84988  1.0000
  C   C910      1.0  0.34967  0.34595  0.85987  1.0000
  C   C911      1.0  0.35284  0.34611  0.87068  1.0000
  H   H912      1.0  0.36041  0.37411  0.86229  1.0000
  H   H913      1.0  0.35494  0.37380  0.84304  1.0000
  H   H914      1.0  0.34669  0.33805  0.85927  1.0000
  H   H915      1.0  0.35229  0.33833  0.87834  1.0000
  C   C912      1.0  0.28434  0.40481  0.81386  1.0000
  C   C913      1.0  0.29372  0.40007  0.82050  1.0000
  C   C914      1.0  0.30605  0.39996  0.81444  1.0000
  H   H916      1.0  0.06001  0.31002  0.89353  1.0000
  H   H917      1.0  0.37812  0.43454  0.85262  1.0000
  C   C915      1.0  0.28728  0.40949  0.80125  1.0000
  H   H918      1.0  0.29147  0.39627  0.83023  1.0000
  H   H919      1.0  0.31331  0.39617  0.81950  1.0000
  C   C916      1.0  0.37198  0.45141  0.82533  1.0000
  H   H920      1.0  0.28006  0.41320  0.79612  1.0000
  C   C917      1.0  0.29738  0.39286  0.87763  1.0000
  C   C918      1.0  0.30629  0.38590  0.88430  1.0000
  C   C919      1.0  0.31438  0.39158  0.88680  1.0000
  C   C920      1.0  0.31355  0.40424  0.88266  1.0000
  C   C921      1.0  0.30471  0.41118  0.87588  1.0000
  C   C922      1.0  0.29654  0.40552  0.87346  1.0000
  H   H921      1.0  0.30693  0.37610  0.88756  1.0000
  H   H922      1.0  0.32114  0.38616  0.89204  1.0000
  H   H923      1.0  0.30412  0.42096  0.87257  1.0000
  H   H924      1.0  0.28964  0.41095  0.86837  1.0000
  C   C923      1.0  0.29107  0.46182  0.86300  1.0000
  C   C924      1.0  0.27955  0.46876  0.86113  1.0000
  C   C925      1.0  0.27114  0.46342  0.85869  1.0000
  C   C926      1.0  0.27393  0.45094  0.85837  1.0000
  C   C927      1.0  0.28561  0.44393  0.85988  1.0000
  C   C928      1.0  0.29419  0.44939  0.86216  1.0000
  C   C929      1.0  0.09561  0.01579  0.84131  1.0000
  H   H925      1.0  0.26219  0.46895  0.85747  1.0000
  H   H926      1.0  0.28790  0.43430  0.85960  1.0000
  H   H927      1.0  0.30295  0.44383  0.86391  1.0000
  C   C930      1.0  0.34488  0.44482  0.82219  1.0000
  C   C931      1.0  0.34757  0.43792  0.83342  1.0000
  C   C932      1.0  0.35296  0.42538  0.83473  1.0000
  C   C933      1.0  0.13656  0.32611  0.83870  1.0000
  C   C934      1.0  0.06166  0.16197  0.82054  1.0000
  H   H928      1.0  0.34614  0.44228  0.84093  1.0000
  H   H929      1.0  0.35548  0.42021  0.84331  1.0000
  C   C935      1.0  0.36624  0.44795  0.87191  1.0000
  C   C936      1.0  0.37829  0.44363  0.87372  1.0000
  C   C937      1.0  0.38313  0.43099  0.87656  1.0000
  C   C938      1.0  0.37586  0.42262  0.87784  1.0000
  C   C939      1.0  0.36372  0.42690  0.87626  1.0000
  C   C940      1.0  0.35893  0.43958  0.87319  1.0000
  H   H930      1.0  0.38395  0.45009  0.87273  1.0000
  H   H931      1.0  0.39252  0.42772  0.87777  1.0000
  H   H932      1.0  0.35806  0.42046  0.87718  1.0000
  H   H933      1.0  0.34958  0.44286  0.87192  1.0000
  C   C941      1.0  0.38268  0.36891  0.95343  1.0000
  C   C942      1.0  0.37055  0.37097  0.96007  1.0000
  C   C943      1.0  0.36076  0.37475  0.95394  1.0000
  C   C944      1.0  0.36301  0.37640  0.94115  1.0000
  C   C945      1.0  0.37515  0.37428  0.93448  1.0000
  C   C946      1.0  0.38496  0.37055  0.94062  1.0000
  H   H934      1.0  0.36869  0.36978  0.96994  1.0000
  H   H935      1.0  0.35140  0.37641  0.95916  1.0000
  H   H936      1.0  0.37698  0.37556  0.92462  1.0000
  H   H937      1.0  0.39434  0.36902  0.93543  1.0000
  C   C947      1.0  0.20086  0.38945  0.85596  1.0000
  C   C948      1.0  0.20212  0.38368  0.86796  1.0000
  C   C949      1.0  0.21050  0.38656  0.87311  1.0000
  C   C950      1.0  0.21791  0.39504  0.86629  1.0000
  C   C951      1.0  0.21656  0.40088  0.85432  1.0000
  C   C952      1.0  0.20798  0.39820  0.84925  1.0000
  H   H938      1.0  0.19667  0.37697  0.87327  1.0000
  H   H939      1.0  0.21138  0.38206  0.88241  1.0000
  H   H940      1.0  0.22203  0.40757  0.84902  1.0000
  H   H941      1.0  0.20699  0.40282  0.84002  1.0000
  C   C953      1.0  0.02444  0.37649  0.83984  1.0000
  C   C954      1.0  0.02890  0.36457  0.83777  1.0000
  C   C955      1.0  0.02251  0.35965  0.83208  1.0000
  C   C956      1.0  0.01143  0.36645  0.82866  1.0000
  C   C957      1.0  0.00693  0.37838  0.83073  1.0000
  C   C958      1.0  0.01349  0.38341  0.83616  1.0000
  H   H942      1.0  0.03733  0.35916  0.84047  1.0000
  H   H943      1.0  0.02614  0.35045  0.83043  1.0000
  C   C959      1.0  0.10473  0.36566  0.85781  1.0000
  C   C960      1.0  0.10089  0.37650  0.86223  1.0000
  C   C961      1.0  0.10930  0.38087  0.86596  1.0000
  C   C962      1.0  0.12152  0.37435  0.86543  1.0000
  C   C963      1.0  0.12529  0.36343  0.86116  1.0000
  C   C964      1.0  0.11691  0.35910  0.85742  1.0000
  H   H944      1.0  0.09153  0.38165  0.86253  1.0000
  H   H945      1.0  0.10631  0.38932  0.86925  1.0000
  H   H946      1.0  0.13463  0.35825  0.86084  1.0000
  H   H947      1.0  0.11981  0.35045  0.85455  1.0000
  C   C965      1.0  0.15745  0.29960  0.86192  1.0000
  C   C966      1.0  0.15108  0.31028  0.86632  1.0000
  C   C967      1.0  0.15551  0.32126  0.86154  1.0000
  C   C968      1.0  0.16616  0.32160  0.85221  1.0000
  C   C969      1.0  0.17216  0.31106  0.84758  1.0000
  C   C970      1.0  0.16796  0.30008  0.85254  1.0000
  H   H948      1.0  0.14305  0.30992  0.87371  1.0000
  H   H949      1.0  0.15069  0.32943  0.86503  1.0000
  H   H950      1.0  0.18030  0.31128  0.84029  1.0000
  H   H951      1.0  0.17296  0.29188  0.84914  1.0000
  C   C971      1.0  0.09038  0.31049  0.84876  1.0000
  C   C972      1.0  0.08988  0.31736  0.85718  1.0000
  C   C973      1.0  0.07855  0.32263  0.86369  1.0000
  C   C974      1.0  0.06770  0.32049  0.86233  1.0000
  C   C975      1.0  0.06815  0.31341  0.85406  1.0000
  C   C976      1.0  0.07954  0.30854  0.84710  1.0000
  H   H952      1.0  0.09824  0.31862  0.85874  1.0000
  H   H953      1.0  0.07828  0.32806  0.87005  1.0000
  H   H954      1.0  0.05973  0.31185  0.85294  1.0000
  H   H955      1.0  0.07995  0.30300  0.84077  1.0000
  C   C977      1.0  0.10656  0.24382  0.87008  1.0000
  C   C978      1.0  0.11611  0.24338  0.85969  1.0000
  C   C979      1.0  0.11702  0.23561  0.85179  1.0000
  C   C980      1.0  0.10830  0.22835  0.85399  1.0000
  C   C981      1.0  0.09869  0.22883  0.86433  1.0000
  C   C982      1.0  0.09789  0.23646  0.87236  1.0000
  H   H956      1.0  0.12292  0.24888  0.85785  1.0000
  H   H957      1.0  0.12453  0.23531  0.84385  1.0000
  H   H958      1.0  0.09189  0.22333  0.86616  1.0000
  H   H959      1.0  0.09049  0.23669  0.88039  1.0000
  C   C983      1.0  0.11831  0.32182  0.91986  1.0000
  C   C984      1.0  0.12426  0.31174  0.91435  1.0000
  C   C985      1.0  0.11834  0.30754  0.90760  1.0000
  C   C986      1.0  0.10628  0.31328  0.90647  1.0000
  C   C987      1.0  0.10034  0.32344  0.91190  1.0000
  C   C988      1.0  0.10633  0.32773  0.91853  1.0000
  H   H960      1.0  0.13341  0.30702  0.91552  1.0000
  H   H961      1.0  0.12300  0.29970  0.90350  1.0000
  H   H962      1.0  0.09114  0.32815  0.91083  1.0000
  H   H963      1.0  0.10167  0.33555  0.92266  1.0000
  C   C989      1.0  0.14458  0.37231  0.91827  1.0000
  C   C990      1.0  0.15662  0.37139  0.91925  1.0000
  C   C991      1.0  0.16625  0.36277  0.91398  1.0000
  C   C992      1.0  0.16378  0.35530  0.90761  1.0000
  C   C993      1.0  0.15176  0.35641  0.90651  1.0000
  C   C994      1.0  0.14215  0.36474  0.91202  1.0000
  H   H964      1.0  0.15848  0.37714  0.92424  1.0000
  H   H965      1.0  0.17561  0.36208  0.91460  1.0000
  H   H966      1.0  0.14984  0.35078  0.90145  1.0000
  H   H967      1.0  0.13286  0.36543  0.91125  1.0000
  C   C995      1.0  0.06815  0.36896  0.93132  1.0000
  C   C996      1.0  0.07452  0.36324  0.92146  1.0000
  C   C997      1.0  0.06871  0.36414  0.91182  1.0000
  C   C998      1.0  0.05649  0.37067  0.91216  1.0000
  C   C999      1.0  0.05023  0.37617  0.92210  1.0000
  C   C1000     1.0  0.05600  0.37534  0.93157  1.0000
  H   H968      1.0  0.08376  0.35792  0.92146  1.0000
  H   H969      1.0  0.07351  0.35961  0.90433  1.0000
  H   H970      1.0  0.04079  0.38111  0.92253  1.0000
  H   H971      1.0  0.05095  0.37969  0.93916  1.0000
  C   C1001     1.0  0.12456  0.02467  0.82907  1.0000
  C   C1002     1.0  0.12977  0.02167  0.83937  1.0000
  C   C1003     1.0  0.12834  0.03062  0.84610  1.0000
  C   C1004     1.0  0.12175  0.04261  0.84254  1.0000
  C   C1005     1.0  0.11655  0.04559  0.83225  1.0000
  C   C1006     1.0  0.11786  0.03662  0.82562  1.0000
  H   H972      1.0  0.13519  0.01258  0.84194  1.0000
  H   H973      1.0  0.13247  0.02830  0.85400  1.0000
  H   H974      1.0  0.11153  0.05481  0.82936  1.0000
  H   H975      1.0  0.11373  0.03899  0.81772  1.0000
  H   H976      1.0  0.30522  0.43473  0.90194  1.0000
  H   H977      1.0  0.00699  0.37298  0.86795  1.0000
  C   C1007     1.0  0.10133  0.17726  0.79181  1.0000
  H   H978      1.0  0.12000  0.00659  0.86433  1.0000
  H   H979      1.0  0.28425  0.45707  0.83399  1.0000
  H   H980      1.0  0.08161  0.20847  0.79336  1.0000
  H   H981      1.0  0.31198  0.46598  0.82208  1.0000
  H   H982      1.0  0.38148  0.40811  0.83953  1.0000
  C   C1008     1.0  0.06856  0.11622  0.79059  1.0000
  C   C1009     1.0  0.39079  0.39678  0.94464  1.0000
  H   H983      1.0  0.07696  0.35611  0.96870  1.0000
  C   C1010     1.0  0.12719  0.06673  0.80105  1.0000
  H   H984      1.0  0.10037  0.03241  0.86391  1.0000
  H   H985      1.0  0.09461  0.37273  0.89054  1.0000
  H   H986      1.0  0.02818  0.37699  0.80736  1.0000
  H   H987      1.0  0.04086  0.34728  0.90598  1.0000
  N   N73       1.0  0.16316  0.31392  0.89899  1.0000
  C   C1011     1.0  0.17151  0.31897  0.88945  1.0000
  C   C1012     1.0  0.16045  0.30307  0.89904  1.0000
  C   C1013     1.0  0.17760  0.31303  0.87978  1.0000
  C   C1014     1.0  0.16641  0.29684  0.88954  1.0000
  C   C1015     1.0  0.17511  0.30182  0.87992  1.0000
  C   C1016     1.0  0.15656  0.32057  0.90880  1.0000
  H   H988      1.0  0.17350  0.32767  0.88925  1.0000
  H   H989      1.0  0.15367  0.29914  0.90644  1.0000
  H   H990      1.0  0.18404  0.31719  0.87211  1.0000
  H   H991      1.0  0.16411  0.28834  0.88945  1.0000
  H   H992      1.0  0.17965  0.29717  0.87240  1.0000
  H   H993      1.0  0.16257  0.32557  0.91079  1.0000
  H   H994      1.0  0.14839  0.32734  0.90611  1.0000
  H   H995      1.0  0.15337  0.31425  0.91752  1.0000
  N   N74       1.0  0.35579  0.34981  0.93988  1.0000
  C   C1017     1.0  0.34923  0.35124  0.93118  1.0000
  C   C1018     1.0  0.36838  0.34737  0.93695  1.0000
  C   C1019     1.0  0.35526  0.35009  0.91921  1.0000
  C   C1020     1.0  0.37470  0.34632  0.92501  1.0000
  C   C1021     1.0  0.36807  0.34762  0.91612  1.0000
  C   C1022     1.0  0.34918  0.35077  0.95242  1.0000
  H   H996      1.0  0.33925  0.35344  0.93344  1.0000
  H   H997      1.0  0.37361  0.34648  0.94377  1.0000
  N   N75       1.0  0.11708  0.33766  0.83408  1.0000
  S   S375      1.0  0.35727  0.39914  0.79553  1.0000
  H   H998      1.0  0.09076  0.35561  0.88558  1.0000
  H   H999      1.0  0.34237  0.35965  0.95229  1.0000
  H   H1000     1.0  0.34430  0.34308  0.95670  1.0000
  H   H1001     1.0  0.35546  0.35056  0.95829  1.0000
  H   H1002     1.0  0.08001  0.19451  0.80472  1.0000
  N   N76       1.0  0.13978  0.04669  0.80641  1.0000
  H   H1003     1.0  0.03500  0.11350  0.78899  1.0000
  H   H1004     1.0  0.38034  0.41314  0.85315  1.0000
  H   H1005     1.0  0.23566  0.39867  0.81156  1.0000
  C   C1023     1.0  0.05666  0.11665  0.78952  1.0000
  C   C1024     1.0  0.30891  0.40482  0.80181  1.0000
  H   H1006     1.0  0.31419  0.45509  0.83613  1.0000
  H   H1007     1.0  0.22373  0.38408  0.82280  1.0000
  C   C1025     1.0  0.38447  0.41461  0.84314  1.0000
  C   C1026     1.0  0.09249  0.03435  0.84853  1.0000
  H   H1008     1.0  0.09885  0.36506  0.90499  1.0000
  C   C1027     1.0  0.08175  0.14942  0.82232  1.0000
  C   C1028     1.0  0.22506  0.37320  0.84074  1.0000
  C   C1029     1.0  0.07111  0.15739  0.82700  1.0000
  N   N77       1.0  0.04407  0.12416  0.86587  1.0000
  C   C1030     1.0  0.03314  0.12686  0.86225  1.0000
  C   C1031     1.0  0.04696  0.11382  0.87454  1.0000
  C   C1032     1.0  0.02496  0.11889  0.86699  1.0000
  C   C1033     1.0  0.03900  0.10564  0.87949  1.0000
  C   C1034     1.0  0.02795  0.10819  0.87564  1.0000
  C   C1035     1.0  0.05258  0.13257  0.86069  1.0000
  H   H1009     1.0  0.03085  0.13504  0.85538  1.0000
  H   H1010     1.0  0.05571  0.11155  0.87728  1.0000
  H   H1011     1.0  0.01654  0.12084  0.86370  1.0000
  H   H1012     1.0  0.04163  0.09716  0.88591  1.0000
  H   H1013     1.0  0.02187  0.10175  0.87912  1.0000
  H   H1014     1.0  0.06228  0.12755  0.86042  1.0000
  H   H1015     1.0  0.05184  0.13733  0.85112  1.0000
  H   H1016     1.0  0.05031  0.13967  0.86625  1.0000
  N   N78       1.0  0.09028  0.25708  0.84418  1.0000
  C   C1036     1.0  0.08839  0.26541  0.85131  1.0000
  C   C1037     1.0  0.10020  0.25627  0.83458  1.0000
  C   C1038     1.0  0.09666  0.27307  0.84900  1.0000
  C   C1039     1.0  0.10869  0.26377  0.83206  1.0000
  C   C1040     1.0  0.10688  0.27221  0.83934  1.0000
  C   C1041     1.0  0.08126  0.24944  0.84644  1.0000
  H   H1017     1.0  0.08055  0.26608  0.85894  1.0000
  H   H1018     1.0  0.10177  0.24959  0.82900  1.0000
  H   H1019     1.0  0.09518  0.27963  0.85469  1.0000
  H   H1020     1.0  0.11668  0.26295  0.82460  1.0000
  H   H1021     1.0  0.11338  0.27808  0.83753  1.0000
  H   H1022     1.0  0.08566  0.24061  0.84343  1.0000
  H   H1023     1.0  0.07714  0.24704  0.85639  1.0000
  H   H1024     1.0  0.07385  0.25443  0.84138  1.0000
  H   H1025     1.0  0.37066  0.41274  0.90535  1.0000
  H   H1026     1.0  0.10246  0.13933  0.80880  1.0000
  S   S376      1.0  0.31986  0.48480  0.83926  1.0000
  C   C1042     1.0  0.07758  0.37939  0.98113  1.0000
  H   H1027     1.0  0.02734  0.15269  0.79301  1.0000
  C   C1043     1.0  0.37266  0.40303  0.93531  1.0000
  C   C1044     1.0  0.36725  0.40723  0.92509  1.0000
  H   H1028     1.0  0.22782  0.36437  0.85900  1.0000
  H   H1029     1.0  0.36333  0.33579  0.82578  1.0000
  S   S377      1.0  0.11730  0.35088  0.97961  1.0000
  H   H1030     1.0  0.38425  0.39343  0.95313  1.0000
  H   H1031     1.0  0.35735  0.40870  0.92623  1.0000
  H   H1032     1.0  0.38075  0.34375  0.78769  1.0000
  N   N79       1.0  0.04850  0.11159  0.79927  1.0000
  C   C1045     1.0  0.10350  0.09710  0.79336  1.0000
  N   N80       1.0  0.32184  0.38586  0.85541  1.0000
  C   C1046     1.0  0.31389  0.39335  0.84831  1.0000
  C   C1047     1.0  0.33039  0.39040  0.85809  1.0000
  C   C1048     1.0  0.31441  0.40574  0.84362  1.0000
  C   C1049     1.0  0.33121  0.40272  0.85351  1.0000
  C   C1050     1.0  0.32318  0.41041  0.84621  1.0000
  C   C1051     1.0  0.32131  0.37284  0.85985  1.0000
  H   H1033     1.0  0.30696  0.38977  0.84640  1.0000
  H   H1034     1.0  0.33648  0.38459  0.86398  1.0000
  H   H1035     1.0  0.30799  0.41164  0.83810  1.0000
  H   H1036     1.0  0.33793  0.40629  0.85579  1.0000
  H   H1037     1.0  0.31171  0.37182  0.86421  1.0000
  H   H1038     1.0  0.32467  0.36806  0.85207  1.0000
  H   H1039     1.0  0.32700  0.36816  0.86682  1.0000
  H   H1040     1.0  0.07074  0.30237  0.90331  1.0000
  H   H1041     1.0  0.25121  0.39383  0.81396  1.0000
  C   C1052     1.0  0.10230  0.36696  0.89494  1.0000
  Fe  Fe187     1.0  0.33915  0.39345  0.80313  1.0000
  C   C1053     1.0  0.13078  0.14465  0.78387  1.0000
  C   C1054     1.0  0.22862  0.38184  0.83016  1.0000
  H   H1042     1.0  0.37012  0.45589  0.84277  1.0000
  H   H1043     1.0  0.38810  0.33918  0.83667  1.0000
  N   N81       1.0  0.10724  0.35537  0.89074  1.0000
  H   H1044     1.0  0.08646  0.03359  0.83273  1.0000
  N   N82       1.0  0.38041  0.42734  0.83689  1.0000
  C   C1055     1.0  0.29553  0.43352  0.81914  1.0000
  H   H1045     1.0  0.04828  0.33037  0.89474  1.0000
  H   H1046     1.0  0.39463  0.41229  0.84187  1.0000
  H   H1047     1.0  0.21742  0.36898  0.84158  1.0000
  C   C1056     1.0  0.07380  0.15067  0.80502  1.0000
  C   C1057     1.0  0.06299  0.15859  0.80949  1.0000
  H   H1048     1.0  0.13368  0.16405  0.79988  1.0000
  H   H1049     1.0  0.05562  0.16201  0.80448  1.0000
  H   H1050     1.0  0.13857  0.03294  0.79786  1.0000
  C   C1058     1.0  0.13555  0.04249  0.79866  1.0000
  H   H1051     1.0  0.12017  0.32460  0.88011  1.0000
  H   H1052     1.0  0.10820  0.01316  0.87597  1.0000
  H   H1053     1.0  0.04564  0.10141  0.81773  1.0000
  C   C1059     1.0  0.00240  0.36800  0.86444  1.0000
  H   H1054     1.0  0.09339  0.12805  0.81155  1.0000
  C   C1060     1.0  0.07209  0.11045  0.80170  1.0000
  C   C1061     1.0  0.37106  0.33916  0.80646  1.0000
  N   N83       1.0  0.14627  0.39853  0.88486  1.0000
  C   C1062     1.0  0.15516  0.39734  0.89114  1.0000
  C   C1063     1.0  0.14869  0.40179  0.87232  1.0000
  C   C1064     1.0  0.16678  0.39963  0.88486  1.0000
  C   C1065     1.0  0.16021  0.40416  0.86575  1.0000
  C   C1066     1.0  0.16929  0.40308  0.87208  1.0000
  C   C1067     1.0  0.13447  0.39528  0.89158  1.0000
  H   H1055     1.0  0.15337  0.39433  0.90105  1.0000
  H   H1056     1.0  0.14183  0.40216  0.86731  1.0000
  H   H1057     1.0  0.17391  0.39842  0.88982  1.0000
  H   H1058     1.0  0.16226  0.40636  0.85579  1.0000
  H   H1059     1.0  0.17836  0.40456  0.86706  1.0000
  H   H1060     1.0  0.13536  0.38521  0.89305  1.0000
  H   H1061     1.0  0.13155  0.39788  0.90066  1.0000
  H   H1062     1.0  0.12708  0.39995  0.88640  1.0000
  N   N84       1.0  0.11117  0.19642  0.87843  1.0000
  C   C1068     1.0  0.11991  0.19699  0.86775  1.0000
  C   C1069     1.0  0.10476  0.18718  0.88235  1.0000
  C   C1070     1.0  0.12258  0.18802  0.86084  1.0000
  C   C1071     1.0  0.10716  0.17809  0.87561  1.0000
  C   C1072     1.0  0.11622  0.17846  0.86487  1.0000
  C   C1073     1.0  0.10877  0.20553  0.88595  1.0000
  H   H1063     1.0  0.12477  0.20449  0.86441  1.0000
  H   H1064     1.0  0.09773  0.18680  0.89073  1.0000
  H   H1065     1.0  0.12939  0.18861  0.85229  1.0000
  H   H1066     1.0  0.10199  0.17082  0.87860  1.0000
  H   H1067     1.0  0.11815  0.17144  0.85958  1.0000
  H   H1068     1.0  0.11156  0.20105  0.89484  1.0000
  H   H1069     1.0  0.11395  0.21298  0.88137  1.0000
  H   H1070     1.0  0.09884  0.20993  0.88772  1.0000
  N   N85       1.0  0.28948  0.43867  0.89409  1.0000
  C   C1074     1.0  0.28002  0.44805  0.89092  1.0000
  C   C1075     1.0  0.28857  0.42672  0.89594  1.0000
  C   C1076     1.0  0.26946  0.44557  0.88917  1.0000
  C   C1077     1.0  0.27818  0.42390  0.89420  1.0000
  C   C1078     1.0  0.26864  0.43341  0.89066  1.0000
  C   C1079     1.0  0.30107  0.44136  0.89448  1.0000
  H   H1071     1.0  0.28080  0.45755  0.88924  1.0000
  H   H1072     1.0  0.29611  0.41929  0.89841  1.0000
  H   H1073     1.0  0.26221  0.45304  0.88616  1.0000
  H   H1074     1.0  0.27771  0.41440  0.89525  1.0000
  H   H1075     1.0  0.26071  0.43139  0.88884  1.0000
  H   H1076     1.0  0.07106  0.20917  0.80777  1.0000
  H   H1077     1.0  0.14871  0.02862  0.81425  1.0000
  C   C1080     1.0  0.38915  0.34785  0.80018  1.0000
  H   H1078     1.0  0.03034  0.12218  0.80097  1.0000
  N   N86       1.0  0.38517  0.40079  0.93388  1.0000
  H   H1079     1.0  0.03131  0.10587  0.80480  1.0000
  C   C1081     1.0  0.05204  0.10559  0.81007  1.0000
  C   C1082     1.0  0.11000  0.00821  0.86846  1.0000
  Fe  Fe188     1.0  0.36487  0.37913  0.79543  1.0000
  H   H1080     1.0  0.10732  0.99918  0.87261  1.0000
  H   H1081     1.0  0.09345  0.16790  0.78289  1.0000
  H   H1082     1.0  0.29249  0.42680  0.81629  1.0000
  C   C1083     1.0  0.38742  0.40694  0.91199  1.0000
  C   C1084     1.0  0.09875  0.02759  0.85782  1.0000
  H   H1083     1.0  0.14665  0.04001  0.82282  1.0000
  C   C1085     1.0  0.12380  0.33801  0.88779  1.0000
  C   C1086     1.0  0.11660  0.33329  0.88300  1.0000
  H   H1084     1.0  0.09889  0.33594  0.87872  1.0000
  H   H1085     1.0  0.13304  0.33303  0.88859  1.0000
  N   N87       1.0  0.08306  0.14628  0.81139  1.0000
  H   H1086     1.0  0.13670  0.35655  0.82898  1.0000
  H   H1087     1.0  0.10069  0.34628  0.82722  1.0000
  H   H1088     1.0  0.32373  0.41999  0.84269  1.0000
  C   C1087     1.0  0.37295  0.44871  0.83756  1.0000
  C   C1088     1.0  0.37735  0.43657  0.84317  1.0000
  C   C1089     1.0  0.12133  0.34831  0.83092  1.0000
  C   C1090     1.0  0.13340  0.34808  0.83134  1.0000
  C   C1091     1.0  0.37896  0.34322  0.83429  1.0000
  C   C1092     1.0  0.29101  0.45055  0.82910  1.0000
  N   N88       1.0  0.06517  0.20209  0.79561  1.0000
  C   C1093     1.0  0.10435  0.33808  0.83383  1.0000
  S   S378      1.0  0.32405  0.40534  0.79390  1.0000
  C   C1094     1.0  0.04842  0.33980  0.90829  1.0000
  H   H1089     1.0  0.15040  0.33662  0.83571  1.0000
  H   H1090     1.0  0.06877  0.33051  0.92704  1.0000
  C   C1095     1.0  0.12447  0.32667  0.83808  1.0000
  H   H1091     1.0  0.12101  0.31826  0.84084  1.0000
  H   H1092     1.0  0.37470  0.44399  0.80938  1.0000
  C   C1096     1.0  0.11892  0.34910  0.89170  1.0000
  H   H1093     1.0  0.12454  0.35272  0.89545  1.0000
  C   C1097     1.0  0.06411  0.33042  0.92009  1.0000
  H   H1094     1.0  0.05094  0.34728  0.92236  1.0000
  H   H1095     1.0  0.14240  0.31737  0.84191  1.0000
  H   H1096     1.0  0.07600  0.31377  0.91555  1.0000
  C   C1098     1.0  0.09419  0.13764  0.80687  1.0000
  C   C1099     1.0  0.06816  0.32100  0.91355  1.0000
  C   C1100     1.0  0.05414  0.33984  0.91745  1.0000
  H   H1097     1.0  0.38238  0.42264  0.81977  1.0000
  N   N89       1.0  0.06241  0.32096  0.90466  1.0000
  C   C1101     1.0  0.05270  0.33024  0.90194  1.0000
  H   H1098     1.0  0.07490  0.31383  0.88992  1.0000
  S   S379      1.0  0.34905  0.47935  0.83903  1.0000
  H   H1099     1.0  0.08121  0.11016  0.80273  1.0000
  C   C1102     1.0  0.37998  0.42997  0.82475  1.0000
  C   C1103     1.0  0.14200  0.37233  0.95579  1.0000
  C   C1104     1.0  0.06720  0.31132  0.89753  1.0000
  H   H1100     1.0  0.40245  0.40087  0.92127  1.0000
  N   N90       1.0  0.10310  0.01519  0.85896  1.0000
  H   H1101     1.0  0.24055  0.40572  0.82101  1.0000
  H   H1102     1.0  0.27691  0.47825  0.86205  1.0000
  H   H1103     1.0  0.01700  0.35186  0.86493  1.0000
  C   C1105     1.0  0.24142  0.39689  0.81839  1.0000
  H   H1104     1.0  0.08925  0.04422  0.84754  1.0000
  H   H1105     1.0  0.08893  0.14573  0.82753  1.0000
  N   N91       1.0  0.23780  0.38765  0.82934  1.0000
  Fe  Fe189     1.0  0.35898  0.39435  0.81514  1.0000
  C   C1106     1.0  0.35569  0.41970  0.82480  1.0000
  C   C1107     1.0  0.29951  0.40964  0.79528  1.0000
  H   H1106     1.0  0.36402  0.33606  0.80420  1.0000
  H   H1107     1.0  0.13909  0.06200  0.81375  1.0000
  C   C1108     1.0  0.14882  0.03844  0.81333  1.0000
  H   H1108     1.0  0.39613  0.35173  0.79294  1.0000
  N   N92       1.0  0.30323  0.45086  0.82635  1.0000
  H   H1109     1.0  0.03646  0.19625  0.80521  1.0000
  H   H1110     1.0  0.35005  0.35127  0.91228  1.0000
  S   S380      1.0  0.36449  0.40472  0.82586  1.0000
  C   C1109     1.0  0.24370  0.38500  0.83879  1.0000
  H   H1111     1.0  0.24460  0.37486  0.85727  1.0000
  C   C1110     1.0  0.02605  0.37469  0.79953  1.0000
  H   H1112     1.0  0.01447  0.39646  0.80512  1.0000
  H   H1113     1.0  0.25093  0.38967  0.83807  1.0000
  C   C1111     1.0  0.34711  0.43899  0.81242  1.0000
  C   C1112     1.0  0.35243  0.42642  0.81375  1.0000
  H   H1114     1.0  0.13343  0.14201  0.80219  1.0000
  N   N93       1.0  0.01429  0.38216  0.79676  1.0000
  S   S381      1.0  0.00401  0.35979  0.82127  1.0000
  C   C1113     1.0  0.24028  0.37652  0.84957  1.0000
  C   C1114     1.0  0.23088  0.37062  0.85053  1.0000
  S   S382      1.0  0.03102  0.17472  0.79765  1.0000
  H   H1115     1.0  0.27729  0.44147  0.82813  1.0000
  H   H1116     1.0  0.37281  0.34692  0.90679  1.0000
  H   H1117     1.0  0.34507  0.44428  0.80368  1.0000
  C   C1115     1.0  0.00974  0.39334  0.79997  1.0000
  H   H1118     1.0  0.36680  0.40133  0.94437  1.0000
  H   H1119     1.0  0.38467  0.34462  0.92265  1.0000
  C   C1116     1.0  0.05439  0.19989  0.80341  1.0000
  C   C1117     1.0  0.03568  0.11335  0.79841  1.0000
  H   H1120     1.0  0.35458  0.42208  0.80602  1.0000
  C   C1118     1.0  0.13580  0.05867  0.80757  1.0000
  C   C1119     1.0  0.13262  0.16083  0.79232  1.0000
  H   H1121     1.0  0.00698  0.34105  0.85571  1.0000
  C   C1120     1.0  0.13236  0.14853  0.79364  1.0000
  N   N94       1.0  0.37951  0.34308  0.82153  1.0000
  H   H1122     1.0  0.39875  0.38895  0.94345  1.0000
  C   C1121     1.0  0.03587  0.15481  0.78715  1.0000
  H   H1123     1.0  0.39393  0.40447  0.94605  1.0000
  C   C1122     1.0  0.14076  0.38490  0.95463  1.0000
  C   C1123     1.0  0.38858  0.34756  0.81247  1.0000
  H   H1124     1.0  0.15819  0.03999  0.80866  1.0000
  C   C1124     1.0  0.10917  0.10374  0.79783  1.0000
  C   C1125     1.0  0.39254  0.40268  0.92241  1.0000
  H   H1125     1.0  0.07019  0.15994  0.83562  1.0000
  H   H1126     1.0  0.39322  0.40838  0.90285  1.0000
  C   C1126     1.0  0.10583  0.18773  0.79074  1.0000
  C   C1127     1.0  0.30744  0.45986  0.83021  1.0000
  C   C1128     1.0  0.06702  0.20225  0.78340  1.0000
  C   C1129     1.0  0.12685  0.05028  0.79209  1.0000
  H   H1127     1.0  0.05303  0.19954  0.81310  1.0000
  H   H1128     1.0  0.09479  0.01110  0.83471  1.0000
  H   H1129     1.0  0.32133  0.44321  0.81757  1.0000
  H   H1130     1.0  0.03359  0.37617  0.79138  1.0000
  C   C1130     1.0  0.11507  0.11285  0.78987  1.0000
  H   H1131     1.0  0.37594  0.35282  0.83564  1.0000
  H   H1132     1.0  0.37230  0.33787  0.84084  1.0000
  C   C1131     1.0  0.12264  0.06247  0.79334  1.0000
  H   H1133     1.0  0.13816  0.39127  0.94650  1.0000
  H   H1134     1.0  0.29977  0.46573  0.83554  1.0000
  H   H1135     1.0  0.07453  0.38928  0.97995  1.0000
  H   H1136     1.0  0.14041  0.36897  0.94859  1.0000
  C   C1132     1.0  0.38040  0.34352  0.79720  1.0000
  C   C1133     1.0  0.10164  0.00929  0.85083  1.0000
  H   H1137     1.0  0.14181  0.39893  0.96306  1.0000
  C   C1134     1.0  0.31167  0.44279  0.81992  1.0000
  H   H1138     1.0  0.31466  0.42771  0.81093  1.0000
  Fe  Fe190     1.0  0.39015  0.36025  0.98163  1.0000
  C   C1135     1.0  0.14725  0.36869  0.97545  1.0000
  C   C1136     1.0  0.30796  0.43403  0.81617  1.0000
  H   H1139     1.0  0.30170  0.41344  0.78553  1.0000
  H   H1140     1.0  0.11235  0.37788  0.97319  1.0000
  H   H1141     1.0  0.12329  0.04683  0.78620  1.0000
  C   C1137     1.0  0.03964  0.16524  0.78746  1.0000
  C   C1138     1.0  0.07885  0.36078  0.97476  1.0000
  H   H1142     1.0  0.12391  0.07619  0.80207  1.0000
  H   H1143     1.0  0.11958  0.11780  0.79343  1.0000
  C   C1139     1.0  0.00805  0.35614  0.86271  1.0000
  H   H1144     1.0  0.14585  0.35438  0.96739  1.0000
  H   H1145     1.0  0.02572  0.36477  0.80226  1.0000
  C   C1140     1.0  0.14522  0.36415  0.96627  1.0000
  S   S383      1.0  0.32843  0.48439  0.86425  1.0000
  C   C1141     1.0  0.11548  0.37484  0.98172  1.0000
  C   C1142     1.0  0.09096  0.02840  0.84020  1.0000
  C   C1143     1.0  0.07495  0.37348  0.97335  1.0000
  Fe  Fe191     1.0  0.13097  0.99371  0.82817  1.0000
  C   C1144     1.0  0.04499  0.19810  0.79900  1.0000
  H   H1146     1.0  0.07004  0.37869  0.96614  1.0000
  C   C1145     1.0  0.00243  0.35008  0.85754  1.0000
  H   H1147     1.0  0.10529  0.99952  0.85161  1.0000
  C   C1146     1.0  0.00827  0.37820  0.79034  1.0000
  C   C1147     1.0  0.14281  0.38913  0.96400  1.0000
  H   H1148     1.0  0.11576  0.06862  0.78844  1.0000
  H   H1149     1.0  0.13073  0.13508  0.78471  1.0000
  H   H1150     1.0  0.99849  0.38377  0.82805  1.0000
  Fe  Fe192     1.0  0.99693  0.15979  0.83297  1.0000
  N   N95       1.0  0.14593  0.38105  0.97428  1.0000
  C   C1148     1.0  0.04671  0.19850  0.78653  1.0000
  H   H1151     1.0  0.15800  0.38702  0.98135  1.0000
  H   H1152     1.0  0.01177  0.36927  0.78795  1.0000
  C   C1149     1.0  0.99746  0.38555  0.78688  1.0000
  H   H1153     1.0  0.03951  0.19700  0.78302  1.0000
  H   H1154     1.0  0.07496  0.12033  0.78283  1.0000
  H   H1155     1.0  0.36848  0.48769  0.85729  1.0000
  S   S384      1.0  0.35081  0.95588  0.09357  1.0000
  S   S385      1.0  0.31954  0.95166  0.11281  1.0000
  Fe  Fe193     1.0  0.33258  0.96484  0.10365  1.0000
  Fe  Fe194     1.0  0.34967  0.97389  0.08021  1.0000
  S   S386      1.0  0.35554  0.97484  0.05998  1.0000
  Fe  Fe195     1.0  0.35913  0.96467  0.10342  1.0000
  S   S387      1.0  0.37476  0.95607  0.11285  1.0000
  Fe  Fe196     1.0  0.25358  0.90611  0.10145  1.0000
  S   S388      1.0  0.26553  0.88784  0.10747  1.0000
  S   S389      1.0  0.23452  0.90829  0.09752  1.0000
  Fe  Fe197     1.0  0.27514  0.91965  0.09725  1.0000
  S   S390      1.0  0.28845  0.90210  0.10250  1.0000
  S   S391      1.0  0.28216  0.93744  0.08983  1.0000
  Fe  Fe198     1.0  0.27997  0.89442  0.09174  1.0000
  S   S392      1.0  0.29064  0.88253  0.07847  1.0000
  Fe  Fe199     1.0  0.27264  0.89757  0.11772  1.0000
  S   S393      1.0  0.27485  0.88857  0.13699  1.0000
  S   S394      1.0  0.26789  0.91225  0.08510  1.0000
  S   S395      1.0  0.25945  0.91556  0.11315  1.0000
  Fe  Fe200     1.0  0.33844  0.90712  0.04159  1.0000
  S   S396      1.0  0.34214  0.88695  0.04966  1.0000
  S   S397      1.0  0.32103  0.91500  0.03483  1.0000
  Fe  Fe201     1.0  0.36212  0.91055  0.04518  1.0000
  S   S398      1.0  0.36827  0.89040  0.05284  1.0000
  S   S399      1.0  0.37387  0.92412  0.04287  1.0000
  Fe  Fe202     1.0  0.36098  0.88720  0.03781  1.0000
  S   S400      1.0  0.37065  0.87451  0.02439  1.0000
  Fe  Fe203     1.0  0.34881  0.89211  0.06381  1.0000
  S   S401      1.0  0.34189  0.88593  0.08431  1.0000
  S   S402      1.0  0.35687  0.90730  0.02918  1.0000
  S   S403      1.0  0.34311  0.91239  0.05678  1.0000
  Fe  Fe204     1.0  0.35847  0.88352  0.16928  1.0000
  Fe  Fe205     1.0  0.35869  0.89234  0.14172  1.0000
  S   S404      1.0  0.34093  0.90621  0.14456  1.0000
  S   S405      1.0  0.36987  0.89044  0.12277  1.0000
  Fe  Fe206     1.0  0.34844  0.91000  0.15885  1.0000
  S   S406      1.0  0.34822  0.92781  0.16305  1.0000
  Fe  Fe207     1.0  0.33461  0.89093  0.15953  1.0000
  H   H1156     1.0  0.27761  0.87957  0.16129  1.0000
  S   S407      1.0  0.36688  0.89772  0.15459  1.0000
  S   S408      1.0  0.35198  0.87669  0.15606  1.0000
  Fe  Fe208     1.0  0.13277  0.76537  0.08760  1.0000
  S   S409      1.0  0.12049  0.77887  0.09874  1.0000
  S   S410      1.0  0.13631  0.74501  0.09616  1.0000
  Fe  Fe209     1.0  0.13658  0.78529  0.06466  1.0000
  S   S411      1.0  0.12415  0.80037  0.07358  1.0000
  S   S412      1.0  0.14656  0.78881  0.04503  1.0000
  Fe  Fe210     1.0  0.13378  0.79130  0.08912  1.0000
  S   S413      1.0  0.13740  0.80378  0.09918  1.0000
  Fe  Fe211     1.0  0.11204  0.78677  0.08236  1.0000
  S   S414      1.0  0.09164  0.79018  0.08499  1.0000
  S   S415      1.0  0.14715  0.77697  0.07966  1.0000
  S   S416      1.0  0.12345  0.77259  0.07175  1.0000
  H   H1157     1.0  0.10843  0.75971  0.09884  1.0000
  S   S417      1.0  0.14995  0.87621  0.99415  1.0000
  Fe  Fe212     1.0  0.13106  0.85076  0.00513  1.0000
  S   S418      1.0  0.13449  0.85983  0.01832  1.0000
  S   S419      1.0  0.11934  0.83666  0.01312  1.0000
  Fe  Fe213     1.0  0.13038  0.87722  0.00450  1.0000
  S   S420      1.0  0.11885  0.89511  0.00888  1.0000
  Fe  Fe214     1.0  0.15364  0.85795  0.00696  1.0000
  S   S421      1.0  0.16900  0.85055  0.01715  1.0000
  S   S422      1.0  0.12513  0.86838  0.99216  1.0000
  S   S423      1.0  0.15059  0.84741  0.99475  1.0000
  Fe  Fe215     1.0  0.08853  0.85820  0.09221  1.0000
  S   S424      1.0  0.09145  0.86198  0.07175  1.0000
  S   S425      1.0  0.10533  0.84772  0.09970  1.0000
  Fe  Fe216     1.0  0.06119  0.87001  0.09555  1.0000
  S   S426      1.0  0.06214  0.87548  0.07530  1.0000
  S   S427      1.0  0.04251  0.87486  0.10779  1.0000
  Fe  Fe217     1.0  0.07345  0.85658  0.07515  1.0000
  S   S428      1.0  0.06892  0.84549  0.06458  1.0000
  Fe  Fe218     1.0  0.07999  0.88051  0.07382  1.0000
  S   S429      1.0  0.08490  0.89779  0.06125  1.0000
  S   S430      1.0  0.07158  0.85065  0.09546  1.0000
  S   S431      1.0  0.07804  0.87716  0.09418  1.0000
  Fe  Fe219     1.0  0.19088  0.86781  0.08665  1.0000
  S   S432      1.0  0.19405  0.86085  0.06938  1.0000
  S   S433      1.0  0.20715  0.86789  0.09450  1.0000
  Fe  Fe220     1.0  0.16304  0.87054  0.09106  1.0000
  S   S434      1.0  0.16400  0.86407  0.07433  1.0000
  S   S435      1.0  0.14398  0.87682  0.10177  1.0000
  Fe  Fe221     1.0  0.17989  0.84957  0.07970  1.0000
  S   S436      1.0  0.18176  0.83127  0.07507  1.0000
  Fe  Fe222     1.0  0.17786  0.87573  0.06522  1.0000
  S   S437      1.0  0.17632  0.88613  0.04615  1.0000
  S   S438      1.0  0.17796  0.85501  0.09748  1.0000
  S   S439      1.0  0.17564  0.88373  0.08154  1.0000
  N   N96       1.0  0.08188  0.57684  0.17856  1.0000
  S   S440      1.0  0.12146  0.51184  0.07779  1.0000
  C   C1150     1.0  0.19985  0.86843  0.01336  1.0000
  S   S441      1.0  0.01454  0.62172  0.12185  1.0000
  Fe  Fe223     1.0  0.01688  0.63275  0.15007  1.0000
  S   S442      1.0  0.03251  0.62045  0.14025  1.0000
  H   H1158     1.0  0.14486  0.89237  0.03541  1.0000
  Fe  Fe224     1.0  0.02732  0.63272  0.12312  1.0000
  S   S443      1.0  0.04351  0.63728  0.10828  1.0000
  Fe  Fe225     1.0  0.01831  0.61067  0.14008  1.0000
  S   S444      1.0  0.02097  0.59017  0.14397  1.0000
  S   S445      1.0  0.01244  0.64587  0.13279  1.0000
  S   S446      1.0  0.00271  0.62200  0.15133  1.0000
  H   H1159     1.0  0.36490  0.90705  0.99111  1.0000
  S   S447      1.0  0.34116  0.97211  0.11488  1.0000
  Fe  Fe226     1.0  0.11135  0.57290  0.13779  1.0000
  S   S448      1.0  0.11965  0.57888  0.11788  1.0000
  S   S449      1.0  0.12009  0.57226  0.15317  1.0000
  Fe  Fe227     1.0  0.09026  0.56582  0.13237  1.0000
  S   S450      1.0  0.09668  0.57115  0.11200  1.0000
  S   S451      1.0  0.07422  0.55677  0.14103  1.0000
  Fe  Fe228     1.0  0.11549  0.56174  0.11550  1.0000
  S   S452      1.0  0.13004  0.54810  0.10556  1.0000
  Fe  Fe229     1.0  0.10011  0.58768  0.11630  1.0000
  S   S453      1.0  0.09366  0.60685  0.10587  1.0000
  S   S454      1.0  0.10873  0.55516  0.13564  1.0000
  S   S455      1.0  0.09213  0.58300  0.13647  1.0000
  Fe  Fe230     1.0  0.09998  0.66751  0.11760  1.0000
  S   S456      1.0  0.08157  0.67194  0.13010  1.0000
  S   S457      1.0  0.10994  0.64763  0.12145  1.0000
  Fe  Fe231     1.0  0.09928  0.69413  0.10389  1.0000
  S   S458      1.0  0.08070  0.70032  0.11515  1.0000
  S   S459      1.0  0.10640  0.70945  0.08901  1.0000
  Fe  Fe232     1.0  0.08810  0.68808  0.13115  1.0000
  S   S460      1.0  0.08289  0.69669  0.14747  1.0000
  Fe  Fe233     1.0  0.07588  0.68373  0.11299  1.0000
  S   S461      1.0  0.05661  0.68598  0.11100  1.0000
  S   S462      1.0  0.10715  0.68285  0.12018  1.0000
  S   S463      1.0  0.09380  0.67827  0.10021  1.0000
  C   C1151     1.0  0.27045  0.89788  0.05885  1.0000
  C   C1152     1.0  0.09733  0.61841  0.11066  1.0000
  C   C1153     1.0  0.10348  0.61530  0.12027  1.0000
  C   C1154     1.0  0.10683  0.62445  0.12378  1.0000
  C   C1155     1.0  0.10429  0.63674  0.11757  1.0000
  C   C1156     1.0  0.09773  0.63995  0.10823  1.0000
  C   C1157     1.0  0.09426  0.63078  0.10478  1.0000
  H   H1160     1.0  0.10586  0.60580  0.12484  1.0000
  H   H1161     1.0  0.11157  0.62194  0.13121  1.0000
  H   H1162     1.0  0.09567  0.64942  0.10340  1.0000
  H   H1163     1.0  0.08948  0.63324  0.09733  1.0000
  H   H1164     1.0  0.27693  0.88913  0.05909  1.0000
  H   H1165     1.0  0.20169  0.83795  0.02503  1.0000
  C   C1158     1.0  0.08425  0.67392  0.16303  1.0000
  C   C1159     1.0  0.07972  0.68660  0.16166  1.0000
  H   H1166     1.0  0.11976  0.81167  0.12344  1.0000
  C   C1160     1.0  0.01397  0.85123  0.11498  1.0000
  H   H1167     1.0  0.30523  0.86716  0.13612  1.0000
  H   H1168     1.0  0.09002  0.67018  0.15527  1.0000
  H   H1169     1.0  0.13626  0.62319  0.14874  1.0000
  C   C1161     1.0  0.16637  0.88745  0.11164  1.0000
  C   C1162     1.0  0.10820  0.60758  0.15681  1.0000
  C   C1163     1.0  0.10973  0.59661  0.15303  1.0000
  C   C1164     1.0  0.11687  0.58580  0.15854  1.0000
  C   C1165     1.0  0.12195  0.58585  0.16821  1.0000
  C   C1166     1.0  0.09271  0.72419  0.12114  1.0000
  N   N97       1.0  0.18794  0.87632  0.12008  1.0000
  H   H1170     1.0  0.10575  0.59659  0.14561  1.0000
  C   C1167     1.0  0.32775  0.89353  0.99846  1.0000
  C   C1168     1.0  0.27422  0.90844  0.05122  1.0000
  H   H1171     1.0  0.33030  0.94821  0.05931  1.0000
  C   C1169     1.0  0.19914  0.87040  0.12485  1.0000
  C   C1170     1.0  0.06881  0.56515  0.16990  1.0000
  C   C1171     1.0  0.13314  0.62757  0.13999  1.0000
  C   C1172     1.0  0.17532  0.89418  0.10992  1.0000
  C   C1173     1.0  0.04719  0.65089  0.10875  1.0000
  C   C1174     1.0  0.03788  0.66081  0.11179  1.0000
  C   C1175     1.0  0.04087  0.67168  0.11212  1.0000
  C   C1176     1.0  0.05319  0.67249  0.10986  1.0000
  C   C1177     1.0  0.06254  0.66253  0.10695  1.0000
  C   C1178     1.0  0.05953  0.65184  0.10610  1.0000
  H   H1172     1.0  0.02835  0.66025  0.11352  1.0000
  H   H1173     1.0  0.03361  0.67942  0.11422  1.0000
  H   H1174     1.0  0.07207  0.66318  0.10506  1.0000
  H   H1175     1.0  0.06675  0.64426  0.10350  1.0000
  C   C1179     1.0  0.03588  0.58129  0.14401  1.0000
  C   C1180     1.0  0.03753  0.56852  0.14623  1.0000
  C   C1181     1.0  0.04934  0.56111  0.14546  1.0000
  C   C1182     1.0  0.05960  0.56641  0.14235  1.0000
  C   C1183     1.0  0.05803  0.57918  0.14040  1.0000
  C   C1184     1.0  0.04614  0.58662  0.14127  1.0000
  H   H1176     1.0  0.02963  0.56436  0.14837  1.0000
  H   H1177     1.0  0.05052  0.55124  0.14706  1.0000
  H   H1178     1.0  0.06594  0.58332  0.13801  1.0000
  H   H1179     1.0  0.04498  0.59645  0.13944  1.0000
  C   C1185     1.0  0.12227  0.52103  0.08744  1.0000
  C   C1186     1.0  0.13091  0.51711  0.09490  1.0000
  C   C1187     1.0  0.13288  0.52537  0.10082  1.0000
  C   C1188     1.0  0.12591  0.53744  0.09974  1.0000
  C   C1189     1.0  0.11685  0.54117  0.09277  1.0000
  C   C1190     1.0  0.11517  0.53305  0.08651  1.0000
  H   H1180     1.0  0.13644  0.50791  0.09570  1.0000
  H   H1181     1.0  0.13993  0.52243  0.10615  1.0000
  H   H1182     1.0  0.11155  0.55051  0.09173  1.0000
  H   H1183     1.0  0.10852  0.53618  0.08071  1.0000
  C   C1191     1.0  0.03174  0.86547  0.11086  1.0000
  C   C1192     1.0  0.01926  0.87010  0.11542  1.0000
  H   H1184     1.0  0.10312  0.61601  0.15220  1.0000
  C   C1193     1.0  0.01038  0.86307  0.11735  1.0000
  C   C1194     1.0  0.02648  0.84650  0.11069  1.0000
  C   C1195     1.0  0.03532  0.85363  0.10850  1.0000
  H   H1185     1.0  0.01642  0.87922  0.11733  1.0000
  C   C1196     1.0  0.26611  0.91981  0.05114  1.0000
  H   H1186     1.0  0.02933  0.83734  0.10887  1.0000
  H   H1187     1.0  0.04488  0.84994  0.10503  1.0000
  C   C1197     1.0  0.11590  0.85621  0.09982  1.0000
  C   C1198     1.0  0.12847  0.85082  0.09782  1.0000
  C   C1199     1.0  0.13712  0.85719  0.09819  1.0000
  C   C1200     1.0  0.13323  0.86885  0.10098  1.0000
  C   C1201     1.0  0.12063  0.87419  0.10316  1.0000
  C   C1202     1.0  0.11199  0.86797  0.10238  1.0000
  H   H1188     1.0  0.13152  0.84166  0.09606  1.0000
  H   H1189     1.0  0.14678  0.85291  0.09671  1.0000
  H   H1190     1.0  0.11754  0.88313  0.10550  1.0000
  H   H1191     1.0  0.10228  0.87211  0.10419  1.0000
  C   C1203     1.0  0.16979  0.86070  0.02561  1.0000
  C   C1204     1.0  0.16731  0.87341  0.02110  1.0000
  C   C1205     1.0  0.16932  0.88128  0.02741  1.0000
  C   C1206     1.0  0.17337  0.87645  0.03843  1.0000
  C   C1207     1.0  0.17544  0.86377  0.04310  1.0000
  C   C1208     1.0  0.17384  0.85591  0.03661  1.0000
  H   H1192     1.0  0.16433  0.87715  0.01250  1.0000
  H   H1193     1.0  0.16781  0.89108  0.02370  1.0000
  H   H1194     1.0  0.17888  0.85992  0.05141  1.0000
  H   H1195     1.0  0.17608  0.84609  0.03998  1.0000
  C   C1209     1.0  0.10980  0.89539  0.02364  1.0000
  C   C1210     1.0  0.11024  0.88494  0.03317  1.0000
  C   C1211     1.0  0.10251  0.88550  0.04476  1.0000
  C   C1212     1.0  0.09431  0.89648  0.04680  1.0000
  C   C1213     1.0  0.09408  0.90694  0.03732  1.0000
  C   C1214     1.0  0.10177  0.90639  0.02579  1.0000
  H   H1196     1.0  0.11652  0.87647  0.03163  1.0000
  H   H1197     1.0  0.10312  0.87752  0.05211  1.0000
  H   H1198     1.0  0.08790  0.91550  0.03889  1.0000
  H   H1199     1.0  0.10144  0.91451  0.01846  1.0000
  C   C1215     1.0  0.13889  0.80202  0.03617  1.0000
  C   C1216     1.0  0.14551  0.80821  0.02535  1.0000
  C   C1217     1.0  0.13956  0.81893  0.01833  1.0000
  C   C1218     1.0  0.12691  0.82331  0.02191  1.0000
  C   C1219     1.0  0.12023  0.81700  0.03262  1.0000
  C   C1220     1.0  0.12624  0.80646  0.03983  1.0000
  H   H1200     1.0  0.15528  0.80480  0.02247  1.0000
  H   H1201     1.0  0.14477  0.82367  0.01004  1.0000
  H   H1202     1.0  0.11042  0.82025  0.03538  1.0000
  H   H1203     1.0  0.12102  0.80161  0.04805  1.0000
  C   C1221     1.0  0.14990  0.81117  0.09245  1.0000
  C   C1222     1.0  0.15120  0.82031  0.09761  1.0000
  C   C1223     1.0  0.16089  0.82658  0.09230  1.0000
  C   C1224     1.0  0.16953  0.82353  0.08195  1.0000
  C   C1225     1.0  0.16833  0.81427  0.07688  1.0000
  C   C1226     1.0  0.15845  0.80822  0.08200  1.0000
  H   H1204     1.0  0.14471  0.82255  0.10578  1.0000
  H   H1205     1.0  0.16185  0.83358  0.09637  1.0000
  H   H1206     1.0  0.17500  0.81184  0.06888  1.0000
  H   H1207     1.0  0.15755  0.80117  0.07796  1.0000
  C   C1227     1.0  0.08564  0.80555  0.07898  1.0000
  C   C1228     1.0  0.07524  0.80852  0.07392  1.0000
  C   C1229     1.0  0.07033  0.82081  0.06913  1.0000
  C   C1230     1.0  0.07555  0.83013  0.06982  1.0000
  C   C1231     1.0  0.08587  0.82720  0.07502  1.0000
  C   C1232     1.0  0.09105  0.81488  0.07941  1.0000
  H   H1208     1.0  0.07107  0.80131  0.07356  1.0000
  H   H1209     1.0  0.06236  0.82306  0.06509  1.0000
  H   H1210     1.0  0.08990  0.83440  0.07562  1.0000
  H   H1211     1.0  0.09902  0.81264  0.08341  1.0000
  C   C1233     1.0  0.12746  0.73539  0.09455  1.0000
  C   C1234     1.0  0.11999  0.73929  0.08594  1.0000
  C   C1235     1.0  0.11348  0.73129  0.08448  1.0000
  C   C1236     1.0  0.11409  0.71940  0.09182  1.0000
  C   C1237     1.0  0.12131  0.71556  0.10066  1.0000
  C   C1238     1.0  0.12809  0.72348  0.10191  1.0000
  H   H1212     1.0  0.11949  0.74834  0.08013  1.0000
  H   H1213     1.0  0.10797  0.73428  0.07758  1.0000
  H   H1214     1.0  0.12194  0.70637  0.10629  1.0000
  H   H1215     1.0  0.13386  0.72035  0.10859  1.0000
  C   C1239     1.0  0.36348  0.86936  0.01539  1.0000
  C   C1240     1.0  0.35083  0.86975  0.01825  1.0000
  C   C1241     1.0  0.34552  0.86564  0.01084  1.0000
  C   C1242     1.0  0.35269  0.86137  0.00029  1.0000
  C   C1243     1.0  0.36534  0.86102  0.99740  1.0000
  C   C1244     1.0  0.37070  0.86484  0.00499  1.0000
  H   H1216     1.0  0.34515  0.87309  0.02625  1.0000
  H   H1217     1.0  0.17174  0.50146  0.08523  1.0000
  H   H1218     1.0  0.39243  0.85793  0.15130  1.0000
  H   H1219     1.0  0.38051  0.86440  0.00272  1.0000
  C   C1245     1.0  0.34971  0.88761  0.09476  1.0000
  C   C1246     1.0  0.36226  0.88770  0.09146  1.0000
  C   C1247     1.0  0.36837  0.88838  0.10019  1.0000
  C   C1248     1.0  0.36194  0.88932  0.11216  1.0000
  C   C1249     1.0  0.34935  0.88938  0.11542  1.0000
  C   C1250     1.0  0.34330  0.88839  0.10679  1.0000
  H   H1220     1.0  0.36733  0.88679  0.08232  1.0000
  H   H1221     1.0  0.37817  0.88796  0.09775  1.0000
  H   H1222     1.0  0.34431  0.89003  0.12463  1.0000
  H   H1223     1.0  0.33360  0.88829  0.10947  1.0000
  C   C1251     1.0  0.28679  0.88862  0.14379  1.0000
  C   C1252     1.0  0.29730  0.89338  0.13735  1.0000
  C   C1253     1.0  0.30660  0.89271  0.14355  1.0000
  H   H1224     1.0  0.10890  0.90748  0.05420  1.0000
  C   C1254     1.0  0.10101  0.72953  0.12364  1.0000
  C   C1255     1.0  0.30523  0.88738  0.15615  1.0000
  H   H1225     1.0  0.29829  0.89746  0.12767  1.0000
  H   H1226     1.0  0.31467  0.89641  0.13867  1.0000
  H   H1227     1.0  0.21135  0.84371  0.05058  1.0000
  C   C1256     1.0  0.29852  0.89173  0.06588  1.0000
  C   C1257     1.0  0.30549  0.88691  0.05570  1.0000
  C   C1258     1.0  0.31187  0.89433  0.04571  1.0000
  C   C1259     1.0  0.31109  0.90659  0.04584  1.0000
  C   C1260     1.0  0.30390  0.91145  0.05590  1.0000
  C   C1261     1.0  0.29769  0.90399  0.06595  1.0000
  H   H1228     1.0  0.30623  0.87739  0.05566  1.0000
  H   H1229     1.0  0.31778  0.89043  0.03810  1.0000
  H   H1230     1.0  0.30353  0.92084  0.05613  1.0000
  H   H1231     1.0  0.29254  0.90771  0.07385  1.0000
  C   C1262     1.0  0.22730  0.89688  0.09636  1.0000
  C   C1263     1.0  0.21687  0.90057  0.09108  1.0000
  C   C1264     1.0  0.21079  0.89186  0.09007  1.0000
  C   C1265     1.0  0.21498  0.87931  0.09448  1.0000
  C   C1266     1.0  0.22544  0.87563  0.09970  1.0000
  C   C1267     1.0  0.23157  0.88431  0.10062  1.0000
  H   H1232     1.0  0.21345  0.91025  0.08775  1.0000
  H   H1233     1.0  0.20278  0.89488  0.08603  1.0000
  H   H1234     1.0  0.22878  0.86596  0.10319  1.0000
  H   H1235     1.0  0.23950  0.88129  0.10481  1.0000
  C   C1268     1.0  0.30985  0.94756  0.10567  1.0000
  C   C1269     1.0  0.30635  0.93615  0.11043  1.0000
  C   C1270     1.0  0.29788  0.93294  0.10570  1.0000
  C   C1271     1.0  0.29283  0.94110  0.09610  1.0000
  C   C1272     1.0  0.29653  0.95240  0.09117  1.0000
  C   C1273     1.0  0.30501  0.95562  0.09590  1.0000
  H   H1236     1.0  0.31026  0.92972  0.11778  1.0000
  H   H1237     1.0  0.29524  0.92415  0.10946  1.0000
  H   H1238     1.0  0.29265  0.95879  0.08376  1.0000
  H   H1239     1.0  0.30752  0.96448  0.09223  1.0000
  C   C1274     1.0  0.35549  0.93598  0.14925  1.0000
  C   C1275     1.0  0.35225  0.93628  0.13838  1.0000
  C   C1276     1.0  0.35832  0.94238  0.12719  1.0000
  C   C1277     1.0  0.36791  0.94781  0.12682  1.0000
  C   C1278     1.0  0.37130  0.94738  0.13768  1.0000
  C   C1279     1.0  0.36495  0.94159  0.14895  1.0000
  H   H1240     1.0  0.34494  0.93198  0.13857  1.0000
  H   H1241     1.0  0.35559  0.94279  0.11884  1.0000
  H   H1242     1.0  0.37867  0.95165  0.13740  1.0000
  H   H1243     1.0  0.36754  0.94122  0.15737  1.0000
  C   C1280     1.0  0.35975  0.96069  0.05529  1.0000
  C   C1281     1.0  0.35486  0.95046  0.06228  1.0000
  C   C1282     1.0  0.35846  0.93931  0.05819  1.0000
  C   C1283     1.0  0.36727  0.93832  0.04728  1.0000
  C   C1284     1.0  0.37220  0.94853  0.04044  1.0000
  C   C1285     1.0  0.36829  0.95970  0.04429  1.0000
  H   H1244     1.0  0.34826  0.95119  0.07077  1.0000
  H   H1245     1.0  0.35481  0.93139  0.06365  1.0000
  H   H1246     1.0  0.37912  0.94779  0.03210  1.0000
  H   H1247     1.0  0.37211  0.96754  0.03883  1.0000
  H   H1248     1.0  0.11401  0.89496  0.08399  1.0000
  N   N98       1.0  0.38085  0.92030  0.07702  1.0000
  C   C1286     1.0  0.37742  0.91974  0.08940  1.0000
  C   C1287     1.0  0.38405  0.93066  0.06915  1.0000
  C   C1288     1.0  0.37744  0.92964  0.09419  1.0000
  C   C1289     1.0  0.38397  0.94080  0.07360  1.0000
  C   C1290     1.0  0.38077  0.94021  0.08621  1.0000
  C   C1291     1.0  0.38047  0.90996  0.07215  1.0000
  H   H1249     1.0  0.37468  0.91161  0.09567  1.0000
  H   H1250     1.0  0.38658  0.93119  0.05932  1.0000
  H   H1251     1.0  0.37480  0.92918  0.10402  1.0000
  H   H1252     1.0  0.38624  0.94910  0.06728  1.0000
  H   H1253     1.0  0.38073  0.94799  0.08981  1.0000
  H   H1254     1.0  0.38627  0.91016  0.06275  1.0000
  H   H1255     1.0  0.38400  0.90106  0.07796  1.0000
  H   H1256     1.0  0.37088  0.91038  0.07165  1.0000
  N   N99       1.0  0.09241  0.86161  0.03169  1.0000
  C   C1292     1.0  0.09760  0.86662  0.01994  1.0000
  C   C1293     1.0  0.08369  0.86883  0.03885  1.0000
  C   C1294     1.0  0.09412  0.87918  0.01508  1.0000
  C   C1295     1.0  0.07997  0.88142  0.03428  1.0000
  C   C1296     1.0  0.08524  0.88660  0.02231  1.0000
  C   C1297     1.0  0.09641  0.84844  0.03652  1.0000
  H   H1257     1.0  0.10459  0.86091  0.01431  1.0000
  H   H1258     1.0  0.07963  0.86493  0.04820  1.0000
  H   H1259     1.0  0.09856  0.88321  0.00589  1.0000
  H   H1260     1.0  0.07333  0.88719  0.04011  1.0000
  H   H1261     1.0  0.08276  0.89642  0.01876  1.0000
  H   H1262     1.0  0.09158  0.84548  0.04614  1.0000
  H   H1263     1.0  0.09453  0.84302  0.03087  1.0000
  H   H1264     1.0  0.10645  0.84616  0.03620  1.0000
  H   H1265     1.0  0.08563  0.65641  0.17572  1.0000
  H   H1266     1.0  0.05687  0.65182  0.16756  1.0000
  C   C1298     1.0  0.07247  0.69142  0.17176  1.0000
  C   C1299     1.0  0.38689  0.86583  0.15544  1.0000
  C   C1300     1.0  0.05345  0.65825  0.15987  1.0000
  C   C1301     1.0  0.04258  0.66290  0.14353  1.0000
  H   H1267     1.0  0.09794  0.56755  0.16783  1.0000
  H   H1268     1.0  0.03359  0.64557  0.18015  1.0000
  H   H1269     1.0  0.09543  0.79645  0.10623  1.0000
  H   H1270     1.0  0.39633  0.88605  0.14909  1.0000
  H   H1271     1.0  0.08917  0.59252  0.17627  1.0000
  C   C1302     1.0  0.13739  0.60232  0.11773  1.0000
  H   H1272     1.0  0.37845  0.86319  0.16179  1.0000
  H   H1273     1.0  0.03764  0.66006  0.13836  1.0000
  H   H1274     1.0  0.05924  0.67343  0.16241  1.0000
  H   H1275     1.0  0.19753  0.87547  0.00551  1.0000
  N   N100      1.0  0.15010  0.74763  0.06066  1.0000
  C   C1303     1.0  0.14863  0.73605  0.06684  1.0000
  C   C1304     1.0  0.14378  0.75394  0.05163  1.0000
  C   C1305     1.0  0.14064  0.73049  0.06405  1.0000
  C   C1306     1.0  0.13557  0.74872  0.04874  1.0000
  C   C1307     1.0  0.13400  0.73692  0.05501  1.0000
  C   C1308     1.0  0.15883  0.75304  0.06355  1.0000
  H   H1276     1.0  0.15343  0.73117  0.07419  1.0000
  H   H1277     1.0  0.14495  0.76313  0.04671  1.0000
  H   H1278     1.0  0.13925  0.72142  0.06920  1.0000
  H   H1279     1.0  0.13041  0.75384  0.04174  1.0000
  H   H1280     1.0  0.12754  0.73280  0.05301  1.0000
  H   H1281     1.0  0.16840  0.74846  0.05996  1.0000
  H   H1282     1.0  0.15772  0.76305  0.05942  1.0000
  H   H1283     1.0  0.15737  0.75190  0.07365  1.0000
  N   N101      1.0  0.13331  0.83232  0.06592  1.0000
  C   C1309     1.0  0.14308  0.83607  0.06723  1.0000
  C   C1310     1.0  0.13358  0.82917  0.05525  1.0000
  C   C1311     1.0  0.15357  0.83654  0.05780  1.0000
  C   C1312     1.0  0.14391  0.82959  0.04563  1.0000
  C   C1313     1.0  0.15397  0.83322  0.04696  1.0000
  C   C1314     1.0  0.12234  0.83226  0.07585  1.0000
  H   H1284     1.0  0.14289  0.83856  0.07566  1.0000
  H   H1285     1.0  0.12584  0.82623  0.05413  1.0000
  H   H1286     1.0  0.16138  0.83928  0.05902  1.0000
  H   H1287     1.0  0.14415  0.82708  0.03719  1.0000
  H   H1288     1.0  0.16207  0.83341  0.03958  1.0000
  H   H1289     1.0  0.11588  0.82733  0.07457  1.0000
  H   H1290     1.0  0.12496  0.82758  0.08480  1.0000
  H   H1291     1.0  0.11741  0.84184  0.07632  1.0000
  H   H1292     1.0  0.17398  0.90373  0.10514  1.0000
  H   H1293     1.0  0.15800  0.89170  0.10821  1.0000
  N   N102      1.0  0.02483  0.86534  0.08246  1.0000
  C   C1315     1.0  0.03553  0.85755  0.07848  1.0000
  C   C1316     1.0  0.01388  0.86159  0.08587  1.0000
  C   C1317     1.0  0.03551  0.84552  0.07825  1.0000
  C   C1318     1.0  0.01352  0.84963  0.08571  1.0000
  C   C1319     1.0  0.02442  0.84153  0.08197  1.0000
  C   C1320     1.0  0.02504  0.87792  0.08265  1.0000
  H   H1294     1.0  0.04421  0.86051  0.07568  1.0000
  H   H1295     1.0  0.00539  0.86767  0.08918  1.0000
  H   H1296     1.0  0.04407  0.83931  0.07536  1.0000
  H   H1297     1.0  0.37078  0.89062  0.99279  1.0000
  H   H1298     1.0  0.36507  0.89699  0.00607  1.0000
  H   H1299     1.0  0.01757  0.88140  0.09001  1.0000
  H   H1300     1.0  0.03378  0.87829  0.08471  1.0000
  H   H1301     1.0  0.02399  0.88409  0.07366  1.0000
  N   N103      1.0  0.25890  0.89863  0.06616  1.0000
  C   C1321     1.0  0.25083  0.90972  0.06600  1.0000
  C   C1322     1.0  0.25431  0.92048  0.05852  1.0000
  C   C1323     1.0  0.25537  0.88769  0.07483  1.0000
  H   H1302     1.0  0.24174  0.91034  0.07193  1.0000
  H   H1303     1.0  0.24798  0.92928  0.05871  1.0000
  H   H1304     1.0  0.24592  0.88718  0.07471  1.0000
  H   H1305     1.0  0.26171  0.87908  0.07268  1.0000
  H   H1306     1.0  0.25558  0.88812  0.08424  1.0000
  H   H1307     1.0  0.29630  0.87091  0.10150  1.0000
  H   H1308     1.0  0.04284  0.69735  0.14824  1.0000
  S   S464      1.0  0.34527  0.85727  0.99075  1.0000
  Fe  Fe234     1.0  0.99974  0.63385  0.13294  1.0000
  C   C1324     1.0  0.08170  0.66610  0.17460  1.0000
  S   S465      1.0  0.02117  0.63983  0.16465  1.0000
  C   C1325     1.0  0.08633  0.73048  0.11185  1.0000
  C   C1326     1.0  0.13702  0.59813  0.13027  1.0000
  C   C1327     1.0  0.20450  0.86252  0.03351  1.0000
  N   N104      1.0  0.06060  0.60382  0.10258  1.0000
  C   C1328     1.0  0.06827  0.59250  0.10430  1.0000
  C   C1329     1.0  0.04815  0.60500  0.10664  1.0000
  C   C1330     1.0  0.06348  0.58192  0.10977  1.0000
  C   C1331     1.0  0.04304  0.59462  0.11217  1.0000
  C   C1332     1.0  0.05077  0.58301  0.11361  1.0000
  C   C1333     1.0  0.06580  0.61481  0.09702  1.0000
  H   H1309     1.0  0.07816  0.59165  0.10149  1.0000
  H   H1310     1.0  0.04210  0.61400  0.10568  1.0000
  H   H1311     1.0  0.06956  0.57295  0.11132  1.0000
  H   H1312     1.0  0.03318  0.59557  0.11566  1.0000
  H   H1313     1.0  0.04695  0.57491  0.11818  1.0000
  H   H1314     1.0  0.05965  0.62200  0.09158  1.0000
  H   H1315     1.0  0.06708  0.61864  0.10431  1.0000
  H   H1316     1.0  0.07488  0.61270  0.09075  1.0000
  H   H1317     1.0  0.33574  0.86591  0.01321  1.0000
  H   H1318     1.0  0.33550  0.93731  0.08557  1.0000
  H   H1319     1.0  0.16147  0.86977  0.11875  1.0000
  H   H1320     1.0  0.18083  0.85996  0.12608  1.0000
  H   H1321     1.0  0.28349  0.90782  0.04565  1.0000
  C   C1334     1.0  0.16833  0.87510  0.11756  1.0000
  C   C1335     1.0  0.07611  0.62361  0.15652  1.0000
  H   H1322     1.0  0.12457  0.90658  0.03496  1.0000
  H   H1323     1.0  0.19302  0.89374  0.11288  1.0000
  H   H1324     1.0  0.20593  0.87642  0.12190  1.0000
  H   H1325     1.0  0.26904  0.92810  0.04549  1.0000
  H   H1326     1.0  0.05379  0.69477  0.13422  1.0000
  H   H1327     1.0  0.37735  0.89411  0.17769  1.0000
  C   C1336     1.0  0.17927  0.86963  0.12169  1.0000
  H   H1328     1.0  0.31868  0.89208  0.99908  1.0000
  N   N105      1.0  0.32261  0.93676  0.07562  1.0000
  C   C1337     1.0  0.32979  0.93195  0.08416  1.0000
  C   C1338     1.0  0.31537  0.92999  0.07391  1.0000
  C   C1339     1.0  0.32969  0.92013  0.09139  1.0000
  C   C1340     1.0  0.31500  0.91818  0.08102  1.0000
  C   C1341     1.0  0.32218  0.91326  0.08982  1.0000
  C   C1342     1.0  0.32313  0.94900  0.06782  1.0000
  H   H1329     1.0  0.30968  0.93377  0.06714  1.0000
  H   H1330     1.0  0.33532  0.91634  0.09821  1.0000
  H   H1331     1.0  0.30917  0.91290  0.07975  1.0000
  H   H1332     1.0  0.32194  0.90410  0.09535  1.0000
  H   H1333     1.0  0.31411  0.95363  0.06531  1.0000
  H   H1334     1.0  0.32526  0.95503  0.07266  1.0000
  S   S466      1.0  0.00310  0.84233  0.11660  1.0000
  H   H1335     1.0  0.13529  0.53111  0.06282  1.0000
  C   C1343     1.0  0.08629  0.64100  0.15152  1.0000
  C   C1344     1.0  0.32392  0.86748  0.10782  1.0000
  H   H1336     1.0  0.20373  0.86192  0.12125  1.0000
  C   C1345     1.0  0.18609  0.88846  0.11430  1.0000
  H   H1337     1.0  0.07893  0.64523  0.13048  1.0000
  H   H1338     1.0  0.14520  0.51243  0.05517  1.0000
  C   C1346     1.0  0.20220  0.87163  0.02317  1.0000
  C   C1347     1.0  0.03718  0.63599  0.17975  1.0000
  H   H1339     1.0  0.19684  0.86800  0.13502  1.0000
  C   C1348     1.0  0.08802  0.56914  0.17072  1.0000
  H   H1340     1.0  0.32728  0.86588  0.12573  1.0000
  S   S467      1.0  0.31558  0.88699  0.16509  1.0000
  C   C1349     1.0  0.05468  0.67049  0.15696  1.0000
  C   C1350     1.0  0.13795  0.89277  0.04382  1.0000
  C   C1351     1.0  0.14037  0.88529  0.05493  1.0000
  C   C1352     1.0  0.12658  0.90081  0.04358  1.0000
  H   H1341     1.0  0.14927  0.87916  0.05519  1.0000
  H   H1342     1.0  0.12448  0.59683  0.17938  1.0000
  H   H1343     1.0  0.09241  0.63520  0.15776  1.0000
  H   H1344     1.0  0.08344  0.74679  0.09791  1.0000
  H   H1345     1.0  0.09235  0.64546  0.14330  1.0000
  C   C1353     1.0  0.11047  0.89360  0.07654  1.0000
  C   C1354     1.0  0.30281  0.93692  0.14106  1.0000
  S   S468      1.0  0.11309  0.62163  0.16981  1.0000
  C   C1355     1.0  0.11772  0.90121  0.05449  1.0000
  H   H1346     1.0  0.31720  0.94589  0.14055  1.0000
  N   N106      1.0  0.12006  0.89364  0.06529  1.0000
  C   C1356     1.0  0.13123  0.88580  0.06565  1.0000
  H   H1347     1.0  0.13313  0.87989  0.07426  1.0000
  N   N107      1.0  0.39411  0.86935  0.16211  1.0000
  H   H1348     1.0  0.10220  0.90100  0.07523  1.0000
  H   H1349     1.0  0.29985  0.94363  0.13329  1.0000
  C   C1357     1.0  0.30110  0.91867  0.15628  1.0000
  C   C1358     1.0  0.11360  0.60770  0.16624  1.0000
  H   H1350     1.0  0.07980  0.64823  0.15606  1.0000
  C   C1359     1.0  0.29472  0.88275  0.16239  1.0000
  H   H1351     1.0  0.05911  0.69244  0.14795  1.0000
  H   H1352     1.0  0.10613  0.72460  0.13073  1.0000
  N   N108      1.0  0.05016  0.67864  0.14741  1.0000
  H   H1353     1.0  0.10743  0.88471  0.07943  1.0000
  H   H1354     1.0  0.10955  0.74507  0.11855  1.0000
  C   C1360     1.0  0.31260  0.93830  0.14519  1.0000
  H   H1355     1.0  0.28198  0.93431  0.13772  1.0000
  C   C1361     1.0  0.06653  0.61993  0.14209  1.0000
  N   N109      1.0  0.07957  0.63366  0.14822  1.0000
  H   H1356     1.0  0.28972  0.86974  0.12386  1.0000
  C   C1362     1.0  0.07635  0.63718  0.13704  1.0000
  C   C1363     1.0  0.06963  0.61655  0.15355  1.0000
  C   C1364     1.0  0.05151  0.69144  0.14435  1.0000
  N   N110      1.0  0.29722  0.92718  0.14657  1.0000
  C   C1365     1.0  0.28763  0.92537  0.14151  1.0000
  H   H1357     1.0  0.28130  0.92002  0.14862  1.0000
  S   S469      1.0  0.34042  0.89615  0.17413  1.0000
  C   C1366     1.0  0.31658  0.92970  0.15510  1.0000
  H   H1358     1.0  0.08649  0.55700  0.16012  1.0000
  H   H1359     1.0  0.29193  0.92026  0.13403  1.0000
  C   C1367     1.0  0.06987  0.63031  0.13379  1.0000
  C   C1368     1.0  0.31079  0.91982  0.16071  1.0000
  H   H1360     1.0  0.06755  0.63295  0.12484  1.0000
  H   H1361     1.0  0.06152  0.61453  0.13965  1.0000
  H   H1362     1.0  0.29680  0.91085  0.16059  1.0000
  H   H1363     1.0  0.03986  0.68167  0.13371  1.0000
  C   C1369     1.0  0.08836  0.74204  0.10518  1.0000
  C   C1370     1.0  0.10286  0.74110  0.11676  1.0000
  N   N111      1.0  0.31531  0.86885  0.10115  1.0000
  C   C1371     1.0  0.28565  0.88329  0.15626  1.0000
  C   C1372     1.0  0.13594  0.62289  0.11989  1.0000
  H   H1364     1.0  0.13715  0.58849  0.13451  1.0000
  C   C1373     1.0  0.13609  0.60651  0.13740  1.0000
  H   H1365     1.0  0.33354  0.86694  0.10336  1.0000
  C   C1374     1.0  0.32045  0.86683  0.12049  1.0000
  C   C1375     1.0  0.13689  0.61476  0.11247  1.0000
  C   C1376     1.0  0.30809  0.86757  0.12631  1.0000
  C   C1377     1.0  0.09859  0.75932  0.10062  1.0000
  H   H1366     1.0  0.09132  0.71515  0.12632  1.0000
  S   S470      1.0  0.35996  0.98183  0.08904  1.0000
  H   H1367     1.0  0.41286  0.87843  0.18014  1.0000
  C   C1378     1.0  0.08160  0.56313  0.16634  1.0000
  H   H1368     1.0  0.07998  0.72636  0.10969  1.0000
  N   N112      1.0  0.09664  0.74714  0.10760  1.0000
  H   H1369     1.0  0.07296  0.82948  0.11715  1.0000
  H   H1370     1.0  0.13785  0.59596  0.11214  1.0000
  C   C1379     1.0  0.30316  0.86968  0.10678  1.0000
  C   C1380     1.0  0.15125  0.51016  0.06155  1.0000
  H   H1371     1.0  0.31364  0.86545  0.08449  1.0000
  C   C1381     1.0  0.10443  0.80710  0.11245  1.0000
  C   C1382     1.0  0.03242  0.63062  0.17299  1.0000
  H   H1372     1.0  0.20163  0.88119  0.02305  1.0000
  C   C1383     1.0  0.04756  0.65443  0.15293  1.0000
  C   C1384     1.0  0.32972  0.89906  0.00689  1.0000
  C   C1385     1.0  0.08870  0.58349  0.18265  1.0000
  H   H1373     1.0  0.19751  0.85371  0.00662  1.0000
  H   H1374     1.0  0.32889  0.86614  0.08481  1.0000
  H   H1375     1.0  0.07520  0.81089  0.10908  1.0000
  H   H1376     1.0  0.06897  0.70122  0.17074  1.0000
  H   H1377     1.0  0.06373  0.56057  0.16651  1.0000
  H   H1378     1.0  0.14145  0.53551  0.07314  1.0000
  C   C1386     1.0  0.08176  0.82308  0.11587  1.0000
  H   H1379     1.0  0.09292  0.76648  0.10575  1.0000
  C   C1387     1.0  0.16615  0.50389  0.07842  1.0000
  H   H1380     1.0  0.11144  0.82702  0.12474  1.0000
  H   H1381     1.0  0.13496  0.63264  0.11584  1.0000
  H   H1382     1.0  0.00078  0.86679  0.12073  1.0000
  H   H1383     1.0  0.04658  0.64498  0.15493  1.0000
  H   H1384     1.0  0.12310  0.63147  0.14227  1.0000
  H   H1385     1.0  0.02428  0.83214  0.08213  1.0000
  C   C1388     1.0  0.08300  0.81264  0.11142  1.0000
  H   H1386     1.0  0.07843  0.62091  0.16548  1.0000
  C   C1389     1.0  0.04386  0.67508  0.14096  1.0000
  H   H1387     1.0  0.09107  0.83373  0.12150  1.0000
  H   H1388     1.0  0.29354  0.87871  0.17210  1.0000
  N   N113      1.0  0.10317  0.81739  0.11675  1.0000
  C   C1390     1.0  0.09202  0.82538  0.11842  1.0000
  C   C1391     1.0  0.31897  0.87015  0.08780  1.0000
  H   H1389     1.0  0.11971  0.82391  0.11001  1.0000
  C   C1392     1.0  0.14406  0.53115  0.06507  1.0000
  H   H1390     1.0  0.06703  0.60853  0.16010  1.0000
  H   H1391     1.0  0.12745  0.57747  0.17252  1.0000
  N   N114      1.0  0.35123  0.89632  0.99737  1.0000
  H   H1392     1.0  0.31729  0.88004  0.08324  1.0000
  H   H1393     1.0  0.03327  0.61390  0.16769  1.0000
  C   C1393     1.0  0.09437  0.80454  0.10978  1.0000
  C   C1394     1.0  0.19990  0.85620  0.01395  1.0000
  C   C1395     1.0  0.11401  0.82012  0.11891  1.0000
  C   C1396     1.0  0.03698  0.61818  0.17272  1.0000
  C   C1397     1.0  0.15869  0.49837  0.06352  1.0000
  H   H1394     1.0  0.13794  0.63525  0.13524  1.0000
  H   H1395     1.0  0.11329  0.80086  0.11100  1.0000
  H   H1396     1.0  0.38352  0.97369  0.12125  1.0000
  C   C1398     1.0  0.40787  0.87574  0.17490  1.0000
  C   C1399     1.0  0.20225  0.84732  0.02443  1.0000
  C   C1400     1.0  0.15868  0.51564  0.07615  1.0000
  C   C1401     1.0  0.29938  0.86900  0.11943  1.0000
  N   N115      1.0  0.15134  0.51862  0.06781  1.0000
  H   H1397     1.0  0.13554  0.60321  0.14718  1.0000
  H   H1398     1.0  0.31394  0.91292  0.16828  1.0000
  N   N116      1.0  0.13548  0.61872  0.13220  1.0000
  H   H1399     1.0  0.14937  0.53685  0.05722  1.0000
  H   H1400     1.0  0.36095  0.97629  0.12668  1.0000
  H   H1401     1.0  0.32219  0.90213  0.01407  1.0000
  H   H1402     1.0  0.15861  0.52229  0.08125  1.0000
  H   H1403     1.0  0.09613  0.76156  0.09150  1.0000
  H   H1404     1.0  0.20572  0.86521  0.04131  1.0000
  C   C1402     1.0  0.16621  0.49525  0.07198  1.0000
  C   C1403     1.0  0.12026  0.59677  0.17211  1.0000
  H   H1405     1.0  0.19669  0.84054  0.05126  1.0000
  H   H1406     1.0  0.13679  0.61818  0.10281  1.0000
  H   H1407     1.0  0.32423  0.93061  0.15832  1.0000
  N   N117      1.0  0.20454  0.85053  0.03402  1.0000
  H   H1408     1.0  0.40845  0.89196  0.16045  1.0000
  C   C1404     1.0  0.39670  0.86176  0.17282  1.0000
  H   H1409     1.0  0.38386  0.87349  0.14798  1.0000
  H   H1410     1.0  0.21070  0.83211  0.04330  1.0000
  C   C1405     1.0  0.20591  0.84128  0.04532  1.0000
  C   C1406     1.0  0.39840  0.88000  0.15756  1.0000
  C   C1407     1.0  0.36358  0.89789  0.99674  1.0000
  H   H1411     1.0  0.34301  0.90468  0.01281  1.0000
  C   C1408     1.0  0.36506  0.98331  0.12764  1.0000
  C   C1409     1.0  0.34158  0.90045  0.00616  1.0000
  H   H1412     1.0  0.37102  0.85772  0.98936  1.0000
  H   H1413     1.0  0.39301  0.85349  0.17658  1.0000
  C   C1410     1.0  0.40357  0.86485  0.17939  1.0000
  S   S471      1.0  0.33096  0.98273  0.08963  1.0000
  H   H1414     1.0  0.15850  0.49159  0.05868  1.0000
  C   C1411     1.0  0.40531  0.88337  0.16390  1.0000
  H   H1415     1.0  0.13204  0.83976  0.98369  1.0000
  C   C1412     1.0  0.06933  0.57888  0.18210  1.0000
  C   C1413     1.0  0.37787  0.98175  0.12460  1.0000
  C   C1414     1.0  0.34932  0.89114  0.98890  1.0000
  C   C1415     1.0  0.06260  0.57311  0.17780  1.0000
  Fe  Fe235     1.0  0.12855  0.49126  0.08238  1.0000
  C   C1416     1.0  0.04609  0.61118  0.17927  1.0000
  H   H1416     1.0  0.05264  0.57482  0.18054  1.0000
  H   H1417     1.0  0.00488  0.84654  0.08896  1.0000
  H   H1418     1.0  0.04928  0.60152  0.17921  1.0000
  H   H1419     1.0  0.33624  0.88496  0.98295  1.0000
  C   C1417     1.0  0.33757  0.88962  0.98934  1.0000
  Fe  Fe236     1.0  0.14507  0.86595  0.98278  1.0000
  Fe  Fe237     1.0  0.13163  0.54231  0.33551  1.0000
  S   S472      1.0  0.14921  0.52834  0.33341  1.0000
  S   S473      1.0  0.12253  0.55187  0.31974  1.0000
  H   H1420     1.0  0.05025  0.63337  0.19104  1.0000
  Fe  Fe238     1.0  0.15481  0.53789  0.34505  1.0000
  S   S474      1.0  0.17318  0.54391  0.33839  1.0000
  H   H1421     1.0  0.42774  0.83448  0.28988  1.0000
  S   S475      1.0  0.13774  0.55268  0.34572  1.0000
  Fe  Fe239     1.0  0.20446  0.59412  0.34728  1.0000
  S   S476      1.0  0.19605  0.61002  0.33412  1.0000
  S   S477      1.0  0.19172  0.58101  0.35801  1.0000
  Fe  Fe240     1.0  0.22801  0.60471  0.34261  1.0000
  S   S478      1.0  0.22120  0.62102  0.32860  1.0000
  S   S479      1.0  0.24668  0.60148  0.34786  1.0000
  Fe  Fe241     1.0  0.20314  0.62166  0.34201  1.0000
  S   S480      1.0  0.19158  0.63909  0.34713  1.0000
  Fe  Fe242     1.0  0.21480  0.60765  0.32204  1.0000
  S   S481      1.0  0.21526  0.60707  0.30271  1.0000
  S   S482      1.0  0.21008  0.60609  0.35648  1.0000
  S   S483      1.0  0.22311  0.59101  0.33476  1.0000
  Fe  Fe243     1.0  0.15129  0.62646  0.28921  1.0000
  S   S484      1.0  0.13090  0.63246  0.29583  1.0000
  S   S485      1.0  0.16394  0.63759  0.29065  1.0000
  Fe  Fe244     1.0  0.14868  0.60212  0.28608  1.0000
  S   S486      1.0  0.12829  0.60599  0.29290  1.0000
  S   S487      1.0  0.15814  0.58375  0.28173  1.0000
  Fe  Fe245     1.0  0.12910  0.62456  0.28056  1.0000
  S   S488      1.0  0.11728  0.63405  0.26621  1.0000
  Fe  Fe246     1.0  0.13229  0.61326  0.30733  1.0000
  S   S489      1.0  0.12702  0.60535  0.32769  1.0000
  S   S490      1.0  0.14954  0.62024  0.27307  1.0000
  S   S491      1.0  0.15263  0.60781  0.30131  1.0000
  C   C1418     1.0  0.27146  0.68335  0.37248  1.0000
  H   H1422     1.0  0.32540  0.97079  0.37435  1.0000
  C   C1419     1.0  0.13727  0.55591  0.38129  1.0000
  C   C1420     1.0  0.46275  0.85015  0.28142  1.0000
  Fe  Fe247     1.0  0.46488  0.87900  0.30390  1.0000
  S   S492      1.0  0.45036  0.87209  0.31937  1.0000
  S   S493      1.0  0.46116  0.88748  0.28481  1.0000
  Fe  Fe248     1.0  0.48425  0.87201  0.32011  1.0000
  S   S494      1.0  0.47101  0.86447  0.33677  1.0000
  Fe  Fe249     1.0  0.46544  0.85622  0.32422  1.0000
  S   S495      1.0  0.46282  0.83683  0.33003  1.0000
  Fe  Fe250     1.0  0.45714  0.88109  0.33042  1.0000
  S   S496      1.0  0.44275  0.89023  0.34433  1.0000
  S   S497      1.0  0.47970  0.86228  0.30789  1.0000
  S   S498      1.0  0.47065  0.88946  0.31459  1.0000
  Fe  Fe251     1.0  0.39872  0.88937  0.23025  1.0000
  S   S499      1.0  0.38248  0.89850  0.24291  1.0000
  S   S500      1.0  0.39781  0.89321  0.21003  1.0000
  Fe  Fe252     1.0  0.41410  0.87953  0.25042  1.0000
  S   S501      1.0  0.39898  0.88808  0.26404  1.0000
  S   S502      1.0  0.43054  0.86825  0.25855  1.0000
  Fe  Fe253     1.0  0.38661  0.88111  0.25688  1.0000
  S   S503      1.0  0.37273  0.87190  0.27148  1.0000
  Fe  Fe254     1.0  0.39656  0.90445  0.24883  1.0000
  S   S504      1.0  0.39491  0.92233  0.25384  1.0000
  S   S505      1.0  0.40184  0.87139  0.24391  1.0000
  S   S506      1.0  0.41269  0.89657  0.23542  1.0000
  Fe  Fe255     1.0  0.36118  0.94384  0.33545  1.0000
  S   S507      1.0  0.37195  0.94284  0.31636  1.0000
  S   S508      1.0  0.34893  0.96215  0.33819  1.0000
  Fe  Fe256     1.0  0.37024  0.91663  0.34523  1.0000
  S   S509      1.0  0.38200  0.91344  0.32713  1.0000
  S   S510      1.0  0.36991  0.90055  0.36124  1.0000
  Fe  Fe257     1.0  0.38704  0.93122  0.32574  1.0000
  S   S511      1.0  0.40631  0.93380  0.31790  1.0000
  Fe  Fe258     1.0  0.36583  0.92521  0.31949  1.0000
  S   S512      1.0  0.35956  0.91872  0.30603  1.0000
  S   S513      1.0  0.37681  0.93349  0.34467  1.0000
  S   S514      1.0  0.35353  0.92718  0.33780  1.0000
  Fe  Fe259     1.0  0.37252  0.84003  0.34715  1.0000
  S   S515      1.0  0.39122  0.84418  0.33896  1.0000
  S   S516      1.0  0.35687  0.85649  0.34793  1.0000
  Fe  Fe260     1.0  0.38180  0.81238  0.34999  1.0000
  S   S517      1.0  0.40133  0.81451  0.34176  1.0000
  S   S518      1.0  0.38028  0.79235  0.35683  1.0000
  Fe  Fe261     1.0  0.39742  0.82829  0.35334  1.0000
  S   S519      1.0  0.41123  0.82883  0.36351  1.0000
  Fe  Fe262     1.0  0.39339  0.83020  0.32803  1.0000
  S   S520      1.0  0.40356  0.83407  0.30844  1.0000
  S   S521      1.0  0.37844  0.82517  0.36276  1.0000
  S   S522      1.0  0.37416  0.82701  0.33510  1.0000
  Fe  Fe263     1.0  0.33921  0.74506  0.37163  1.0000
  S   S523      1.0  0.33562  0.73244  0.36176  1.0000
  S   S524      1.0  0.33620  0.76581  0.36501  1.0000
  H   H1423     1.0  0.33433  0.93955  0.35792  1.0000
  H   H1424     1.0  0.49137  0.64319  0.29683  1.0000
  Fe  Fe264     1.0  0.35376  0.72095  0.36526  1.0000
  S   S525      1.0  0.36742  0.71328  0.35013  1.0000
  N   N118      1.0  0.38136  0.97465  0.33442  1.0000
  H   H1425     1.0  0.12829  0.60671  0.36926  1.0000
  C   C1421     1.0  0.38749  0.97519  0.34281  1.0000
  C   C1422     1.0  0.35809  0.96543  0.35661  1.0000
  H   H1426     1.0  0.17694  0.59466  0.33622  1.0000
  H   H1427     1.0  0.48270  0.60839  0.36052  1.0000
  Fe  Fe265     1.0  0.30626  0.65920  0.36032  1.0000
  S   S526      1.0  0.30790  0.64849  0.34623  1.0000
  S   S527      1.0  0.30824  0.67887  0.35263  1.0000
  Fe  Fe266     1.0  0.29310  0.63934  0.35962  1.0000
  S   S528      1.0  0.27584  0.63972  0.35288  1.0000
  Fe  Fe267     1.0  0.32144  0.63440  0.35621  1.0000
  S   S529      1.0  0.34005  0.62555  0.34647  1.0000
  H   H1428     1.0  0.06408  0.68740  0.19099  1.0000
  S   S530      1.0  0.32078  0.64572  0.36927  1.0000
  Fe  Fe268     1.0  0.39869  0.64428  0.34932  1.0000
  N   N119      1.0  0.11937  0.50153  0.31434  1.0000
  S   S531      1.0  0.38648  0.64929  0.33572  1.0000
  Fe  Fe269     1.0  0.42506  0.63520  0.35367  1.0000
  H   H1429     1.0  0.11079  0.52037  0.31406  1.0000
  S   S532      1.0  0.44511  0.62913  0.34479  1.0000
  H   H1430     1.0  0.40577  0.88757  0.33247  1.0000
  Fe  Fe270     1.0  0.40660  0.65342  0.36739  1.0000
  C   C1423     1.0  0.34721  0.76321  0.33506  1.0000
  S   S533      1.0  0.41053  0.62554  0.35359  1.0000
  S   S534      1.0  0.41396  0.65387  0.34731  1.0000
  S   S535      1.0  0.48319  0.66080  0.34243  1.0000
  H   H1431     1.0  0.47906  0.66812  0.31397  1.0000
  S   S536      1.0  0.09369  0.60736  0.20118  1.0000
  C   C1424     1.0  0.34011  0.66473  0.33803  1.0000
  Fe  Fe271     1.0  0.07938  0.64159  0.19981  1.0000
  S   S537      1.0  0.07172  0.62684  0.21461  1.0000
  Fe  Fe272     1.0  0.09169  0.61854  0.21521  1.0000
  S   S538      1.0  0.09799  0.60985  0.23338  1.0000
  Fe  Fe273     1.0  0.07447  0.61726  0.19918  1.0000
  H   H1432     1.0  0.36441  0.96834  0.37136  1.0000
  S   S539      1.0  0.09907  0.63398  0.20123  1.0000
  H   H1433     1.0  0.14323  0.54987  0.37542  1.0000
  S   S540      1.0  0.06275  0.60760  0.19364  1.0000
  C   C1425     1.0  0.32997  0.96130  0.37419  1.0000
  H   H1434     1.0  0.10610  0.50455  0.30359  1.0000
  C   C1426     1.0  0.36736  0.91165  0.21109  1.0000
  C   C1427     1.0  0.40027  0.86345  0.35601  1.0000
  C   C1428     1.0  0.45572  0.63752  0.34496  1.0000
  C   C1429     1.0  0.45195  0.64794  0.35007  1.0000
  C   C1430     1.0  0.46051  0.65490  0.34939  1.0000
  C   C1431     1.0  0.47286  0.65153  0.34355  1.0000
  C   C1432     1.0  0.47668  0.64097  0.33866  1.0000
  C   C1433     1.0  0.46814  0.63397  0.33941  1.0000
  H   H1435     1.0  0.44239  0.65075  0.35438  1.0000
  H   H1436     1.0  0.45749  0.66304  0.35323  1.0000
  H   H1437     1.0  0.48618  0.63821  0.33426  1.0000
  H   H1438     1.0  0.47110  0.62588  0.33549  1.0000
  C   C1434     1.0  0.35279  0.63230  0.34398  1.0000
  C   C1435     1.0  0.36170  0.63171  0.33314  1.0000
  C   C1436     1.0  0.37206  0.63678  0.33081  1.0000
  C   C1437     1.0  0.37397  0.64197  0.33956  1.0000
  C   C1438     1.0  0.36526  0.64229  0.35063  1.0000
  C   C1439     1.0  0.35454  0.63771  0.35272  1.0000
  H   H1439     1.0  0.36047  0.62750  0.32637  1.0000
  H   H1440     1.0  0.37866  0.63661  0.32220  1.0000
  H   H1441     1.0  0.36658  0.64647  0.35736  1.0000
  H   H1442     1.0  0.34776  0.63818  0.36116  1.0000
  C   C1440     1.0  0.37835  0.70179  0.35686  1.0000
  C   C1441     1.0  0.38542  0.69256  0.35071  1.0000
  C   C1442     1.0  0.39321  0.68260  0.35661  1.0000
  C   C1443     1.0  0.39436  0.68213  0.36845  1.0000
  H   H1443     1.0  0.23533  0.62158  0.29478  1.0000
  H   H1444     1.0  0.19984  0.58096  0.38003  1.0000
  H   H1445     1.0  0.38461  0.69292  0.34152  1.0000
  H   H1446     1.0  0.39834  0.67534  0.35193  1.0000
  H   H1447     1.0  0.43491  0.85199  0.36035  1.0000
  H   H1448     1.0  0.06445  0.58496  0.18833  1.0000
  C   C1444     1.0  0.36053  0.91999  0.19201  1.0000
  C   C1445     1.0  0.31700  0.70473  0.36451  1.0000
  C   C1446     1.0  0.31576  0.69747  0.35711  1.0000
  C   C1447     1.0  0.30983  0.68756  0.36230  1.0000
  H   H1449     1.0  0.12860  0.52548  0.31818  1.0000
  H   H1450     1.0  0.39316  0.74900  0.34200  1.0000
  H   H1451     1.0  0.32150  0.71241  0.36039  1.0000
  H   H1452     1.0  0.31940  0.69956  0.34733  1.0000
  H   H1453     1.0  0.11971  0.49491  0.37432  1.0000
  Fe  Fe274     1.0  0.13991  0.51728  0.35082  1.0000
  C   C1448     1.0  0.36786  0.78550  0.35845  1.0000
  H   H1454     1.0  0.34797  0.88910  0.19954  1.0000
  C   C1449     1.0  0.13360  0.49756  0.38202  1.0000
  C   C1450     1.0  0.34849  0.77331  0.36234  1.0000
  C   C1451     1.0  0.34685  0.78607  0.35768  1.0000
  C   C1452     1.0  0.35652  0.79217  0.35573  1.0000
  H   H1455     1.0  0.46452  0.85651  0.28615  1.0000
  C   C1453     1.0  0.25358  0.62275  0.31296  1.0000
  H   H1456     1.0  0.33807  0.79126  0.35564  1.0000
  H   H1457     1.0  0.35519  0.80200  0.35221  1.0000
  C   C1454     1.0  0.36594  0.88835  0.35783  1.0000
  C   C1455     1.0  0.35993  0.89049  0.34823  1.0000
  C   C1456     1.0  0.35687  0.88071  0.34549  1.0000
  C   C1457     1.0  0.36034  0.86865  0.35191  1.0000
  C   C1458     1.0  0.36654  0.86646  0.36139  1.0000
  C   C1459     1.0  0.36907  0.87633  0.36454  1.0000
  H   H1458     1.0  0.35744  0.89971  0.34301  1.0000
  H   H1459     1.0  0.35188  0.88253  0.33831  1.0000
  H   H1460     1.0  0.36911  0.85717  0.36648  1.0000
  H   H1461     1.0  0.37367  0.87464  0.37202  1.0000
  C   C1460     1.0  0.38097  0.86059  0.28156  1.0000
  C   C1461     1.0  0.39380  0.85778  0.27839  1.0000
  C   C1462     1.0  0.40059  0.84953  0.28664  1.0000
  C   C1463     1.0  0.39462  0.84404  0.29821  1.0000
  C   C1464     1.0  0.38175  0.84676  0.30143  1.0000
  C   C1465     1.0  0.37491  0.85497  0.29306  1.0000
  H   H1462     1.0  0.39860  0.86195  0.26957  1.0000
  H   H1463     1.0  0.41049  0.84758  0.28402  1.0000
  H   H1464     1.0  0.37706  0.84256  0.31034  1.0000
  H   H1465     1.0  0.36497  0.85712  0.29558  1.0000
  C   C1466     1.0  0.38425  0.92270  0.26778  1.0000
  C   C1467     1.0  0.38568  0.92864  0.27622  1.0000
  C   C1468     1.0  0.37811  0.92752  0.28802  1.0000
  C   C1469     1.0  0.36878  0.92087  0.29119  1.0000
  C   C1470     1.0  0.36700  0.91549  0.28251  1.0000
  C   C1471     1.0  0.37490  0.91612  0.27095  1.0000
  H   H1466     1.0  0.39294  0.93371  0.27380  1.0000
  H   H1467     1.0  0.37950  0.93176  0.29464  1.0000
  H   H1468     1.0  0.35959  0.91070  0.28476  1.0000
  H   H1469     1.0  0.37369  0.91160  0.26444  1.0000
  C   C1472     1.0  0.45182  0.88256  0.27801  1.0000
  C   C1473     1.0  0.45386  0.88513  0.26518  1.0000
  C   C1474     1.0  0.44686  0.88132  0.25925  1.0000
  C   C1475     1.0  0.43747  0.87517  0.26606  1.0000
  C   C1476     1.0  0.43512  0.87289  0.27894  1.0000
  C   C1477     1.0  0.44229  0.87655  0.28492  1.0000
  H   H1470     1.0  0.46117  0.88980  0.25977  1.0000
  H   H1471     1.0  0.44895  0.88286  0.24934  1.0000
  H   H1472     1.0  0.42799  0.86797  0.28429  1.0000
  H   H1473     1.0  0.44053  0.87466  0.29482  1.0000
  C   C1478     1.0  0.44833  0.83535  0.33941  1.0000
  C   C1479     1.0  0.43749  0.84158  0.33531  1.0000
  C   C1480     1.0  0.42606  0.83924  0.34243  1.0000
  C   C1481     1.0  0.42543  0.83119  0.35394  1.0000
  C   C1482     1.0  0.43623  0.82539  0.35820  1.0000
  C   C1483     1.0  0.44766  0.82722  0.35083  1.0000
  H   H1474     1.0  0.43794  0.84786  0.32648  1.0000
  H   H1475     1.0  0.41773  0.84384  0.33913  1.0000
  H   H1476     1.0  0.43578  0.81920  0.36709  1.0000
  H   H1477     1.0  0.45601  0.82234  0.35400  1.0000
  C   C1484     1.0  0.43279  0.90266  0.33715  1.0000
  C   C1485     1.0  0.42038  0.90550  0.34292  1.0000
  C   C1486     1.0  0.41219  0.91502  0.33699  1.0000
  C   C1487     1.0  0.41650  0.92202  0.32549  1.0000
  C   C1488     1.0  0.42894  0.91931  0.31981  1.0000
  C   C1489     1.0  0.43704  0.90947  0.32552  1.0000
  H   H1478     1.0  0.41706  0.90022  0.35190  1.0000
  H   H1479     1.0  0.40258  0.91703  0.34141  1.0000
  H   H1480     1.0  0.43229  0.92474  0.31093  1.0000
  H   H1481     1.0  0.44662  0.90733  0.32105  1.0000
  C   C1490     1.0  0.36945  0.77281  0.36306  1.0000
  H   H1482     1.0  0.39473  0.96757  0.34559  1.0000
  C   C1491     1.0  0.33771  0.95487  0.38225  1.0000
  C   C1492     1.0  0.38468  0.96387  0.32890  1.0000
  C   C1493     1.0  0.35014  0.97035  0.34845  1.0000
  C   C1494     1.0  0.37934  0.88914  0.18651  1.0000
  C   C1495     1.0  0.35418  0.91050  0.19478  1.0000
  C   C1496     1.0  0.10452  0.57627  0.36203  1.0000
  C   C1497     1.0  0.13599  0.60728  0.23749  1.0000
  H   H1483     1.0  0.30069  0.67720  0.37905  1.0000
  C   C1498     1.0  0.37802  0.87187  0.20370  1.0000
  C   C1499     1.0  0.38465  0.87647  0.20944  1.0000
  C   C1500     1.0  0.38895  0.88726  0.20357  1.0000
  C   C1501     1.0  0.38631  0.89351  0.19206  1.0000
  H   H1484     1.0  0.17168  0.61092  0.38119  1.0000
  C   C1502     1.0  0.48680  0.61515  0.36201  1.0000
  H   H1485     1.0  0.38668  0.87152  0.21828  1.0000
  H   H1486     1.0  0.14046  0.48993  0.37889  1.0000
  H   H1487     1.0  0.38960  0.90186  0.18744  1.0000
  H   H1488     1.0  0.33376  0.67245  0.33334  1.0000
  C   C1503     1.0  0.11321  0.62670  0.25666  1.0000
  C   C1504     1.0  0.11113  0.61474  0.26071  1.0000
  C   C1505     1.0  0.10653  0.60974  0.25344  1.0000
  C   C1506     1.0  0.10419  0.61650  0.24193  1.0000
  C   C1507     1.0  0.10667  0.62831  0.23769  1.0000
  C   C1508     1.0  0.11107  0.63339  0.24506  1.0000
  H   H1489     1.0  0.11266  0.60949  0.26963  1.0000
  H   H1490     1.0  0.10467  0.60059  0.25681  1.0000
  H   H1491     1.0  0.10499  0.63361  0.22884  1.0000
  H   H1492     1.0  0.11263  0.64266  0.24185  1.0000
  C   C1509     1.0  0.12705  0.61305  0.33894  1.0000
  C   C1510     1.0  0.12824  0.60618  0.35073  1.0000
  C   C1511     1.0  0.12740  0.61207  0.36019  1.0000
  C   C1512     1.0  0.12517  0.62490  0.35797  1.0000
  C   C1513     1.0  0.12415  0.63174  0.34613  1.0000
  C   C1514     1.0  0.12519  0.62584  0.33662  1.0000
  H   H1493     1.0  0.12974  0.59627  0.35259  1.0000
  H   H1494     1.0  0.38910  0.98585  0.35486  1.0000
  H   H1495     1.0  0.12249  0.64167  0.34432  1.0000
  H   H1496     1.0  0.12422  0.63123  0.32758  1.0000
  H   H1497     1.0  0.36129  0.75709  0.36869  1.0000
  C   C1515     1.0  0.41059  0.90703  0.28130  1.0000
  C   C1516     1.0  0.24156  0.61846  0.30108  1.0000
  C   C1517     1.0  0.20127  0.61574  0.29884  1.0000
  C   C1518     1.0  0.19552  0.61162  0.29193  1.0000
  C   C1519     1.0  0.18390  0.61810  0.28961  1.0000
  C   C1520     1.0  0.17833  0.62907  0.29365  1.0000
  C   C1521     1.0  0.18433  0.63339  0.30015  1.0000
  C   C1522     1.0  0.19559  0.62659  0.30302  1.0000
  H   H1498     1.0  0.19995  0.60331  0.28856  1.0000
  H   H1499     1.0  0.17940  0.61479  0.28446  1.0000
  H   H1500     1.0  0.18025  0.64199  0.30304  1.0000
  H   H1501     1.0  0.20001  0.62988  0.30828  1.0000
  C   C1523     1.0  0.25450  0.61228  0.34944  1.0000
  C   C1524     1.0  0.25015  0.62500  0.34639  1.0000
  C   C1525     1.0  0.25680  0.63317  0.34750  1.0000
  C   C1526     1.0  0.26789  0.62881  0.35173  1.0000
  C   C1527     1.0  0.27225  0.61609  0.35474  1.0000
  C   C1528     1.0  0.26563  0.60792  0.35356  1.0000
  H   H1502     1.0  0.24163  0.62856  0.34321  1.0000
  H   H1503     1.0  0.25328  0.64296  0.34513  1.0000
  H   H1504     1.0  0.28074  0.61253  0.35798  1.0000
  H   H1505     1.0  0.26915  0.59812  0.35593  1.0000
  C   C1529     1.0  0.17784  0.55464  0.34375  1.0000
  C   C1530     1.0  0.18878  0.55864  0.33739  1.0000
  C   C1531     1.0  0.19304  0.56686  0.34150  1.0000
  C   C1532     1.0  0.18644  0.57111  0.35212  1.0000
  C   C1533     1.0  0.17543  0.56721  0.35844  1.0000
  C   C1534     1.0  0.17109  0.55911  0.35423  1.0000
  H   H1506     1.0  0.19407  0.55524  0.32929  1.0000
  H   H1507     1.0  0.20155  0.56972  0.33657  1.0000
  C   C1535     1.0  0.37229  0.98430  0.33087  1.0000
  H   H1508     1.0  0.16266  0.55613  0.35923  1.0000
  C   C1536     1.0  0.13272  0.55976  0.30820  1.0000
  C   C1537     1.0  0.12826  0.56929  0.29911  1.0000
  C   C1538     1.0  0.13622  0.57631  0.29052  1.0000
  C   C1539     1.0  0.14869  0.57365  0.29088  1.0000
  C   C1540     1.0  0.15329  0.56368  0.29952  1.0000
  C   C1541     1.0  0.14527  0.55690  0.30831  1.0000
  H   H1509     1.0  0.11857  0.57152  0.29897  1.0000
  H   H1510     1.0  0.13264  0.58391  0.28376  1.0000
  H   H1511     1.0  0.16293  0.56153  0.29979  1.0000
  H   H1512     1.0  0.14883  0.54959  0.31526  1.0000
  H   H1513     1.0  0.45958  0.85586  0.27300  1.0000
  C   C1542     1.0  0.14639  0.62059  0.24264  1.0000
  C   C1543     1.0  0.37685  0.74317  0.34216  1.0000
  C   C1544     1.0  0.18238  0.58622  0.30903  1.0000
  C   C1545     1.0  0.16512  0.58621  0.33090  1.0000
  H   H1514     1.0  0.25682  0.62922  0.31596  1.0000
  H   H1515     1.0  0.11582  0.50713  0.34771  1.0000
  H   H1516     1.0  0.42212  0.90023  0.25983  1.0000
  N   N120      1.0  0.10356  0.58871  0.35877  1.0000
  H   H1517     1.0  0.32310  0.96078  0.35881  1.0000
  H   H1518     1.0  0.36133  0.89528  0.22192  1.0000
  C   C1546     1.0  0.07437  0.67095  0.18470  1.0000
  H   H1519     1.0  0.15860  0.58593  0.33963  1.0000
  C   C1547     1.0  0.17544  0.59120  0.32902  1.0000
  H   H1520     1.0  0.39013  0.95577  0.33423  1.0000
  N   N121      1.0  0.45359  0.84326  0.28957  1.0000
  N   N122      1.0  0.15565  0.63638  0.34704  1.0000
  C   C1548     1.0  0.15774  0.64373  0.33559  1.0000
  C   C1549     1.0  0.15469  0.62451  0.34844  1.0000
  C   C1550     1.0  0.15881  0.63927  0.32516  1.0000
  C   C1551     1.0  0.15579  0.61974  0.33821  1.0000
  C   C1552     1.0  0.15786  0.62719  0.32650  1.0000
  C   C1553     1.0  0.15356  0.64159  0.35783  1.0000
  H   H1521     1.0  0.15846  0.65314  0.33448  1.0000
  H   H1522     1.0  0.15268  0.61879  0.35754  1.0000
  H   H1523     1.0  0.16021  0.64517  0.31609  1.0000
  H   H1524     1.0  0.15461  0.61048  0.33940  1.0000
  H   H1525     1.0  0.15854  0.62372  0.31845  1.0000
  H   H1526     1.0  0.16045  0.64719  0.35658  1.0000
  H   H1527     1.0  0.14413  0.64738  0.35938  1.0000
  H   H1528     1.0  0.15434  0.63432  0.36626  1.0000
  C   C1554     1.0  0.13642  0.58631  0.24858  1.0000
  N   N123      1.0  0.36524  0.88205  0.30236  1.0000
  C   C1555     1.0  0.36490  0.87524  0.31403  1.0000
  C   C1556     1.0  0.37623  0.88375  0.29467  1.0000
  C   C1557     1.0  0.37578  0.86955  0.31813  1.0000
  C   C1558     1.0  0.38731  0.87800  0.29842  1.0000
  C   C1559     1.0  0.38706  0.87076  0.31022  1.0000
  C   C1560     1.0  0.35369  0.88781  0.29824  1.0000
  H   H1529     1.0  0.35621  0.87396  0.32020  1.0000
  H   H1530     1.0  0.37648  0.88912  0.28540  1.0000
  H   H1531     1.0  0.37537  0.86403  0.32732  1.0000
  H   H1532     1.0  0.39601  0.87879  0.29207  1.0000
  H   H1533     1.0  0.39557  0.86587  0.31313  1.0000
  H   H1534     1.0  0.35521  0.88961  0.28807  1.0000
  H   H1535     1.0  0.34703  0.88165  0.30195  1.0000
  H   H1536     1.0  0.34966  0.89661  0.30137  1.0000
  C   C1561     1.0  0.18037  0.62339  0.36611  1.0000
  C   C1562     1.0  0.14372  0.58783  0.25568  1.0000
  H   H1537     1.0  0.34723  0.76349  0.32540  1.0000
  H   H1538     1.0  0.15574  0.61940  0.24428  1.0000
  C   C1563     1.0  0.10857  0.49866  0.31224  1.0000
  H   H1539     1.0  0.34628  0.92077  0.36640  1.0000
  S   S541      1.0  0.07085  0.66146  0.19927  1.0000
  N   N124      1.0  0.14322  0.60867  0.24445  1.0000
  C   C1564     1.0  0.34647  0.67755  0.36157  1.0000
  H   H1540     1.0  0.18909  0.58611  0.30046  1.0000
  H   H1541     1.0  0.13366  0.57763  0.25029  1.0000
  H   H1542     1.0  0.14679  0.58033  0.26288  1.0000
  C   C1565     1.0  0.12963  0.49251  0.31584  1.0000
  H   H1543     1.0  0.14630  0.62602  0.23315  1.0000
  H   H1544     1.0  0.13967  0.62597  0.24914  1.0000
  H   H1545     1.0  0.13263  0.61492  0.23057  1.0000
  H   H1546     1.0  0.47150  0.84371  0.27863  1.0000
  H   H1547     1.0  0.43515  0.90686  0.25758  1.0000
  H   H1548     1.0  0.12657  0.59513  0.23403  1.0000
  C   C1566     1.0  0.13982  0.49514  0.31819  1.0000
  H   H1549     1.0  0.47179  0.63714  0.30606  1.0000
  C   C1567     1.0  0.36668  0.76792  0.33516  1.0000
  H   H1550     1.0  0.41344  0.85214  0.36656  1.0000
  C   C1568     1.0  0.43102  0.90832  0.28034  1.0000
  H   H1551     1.0  0.44070  0.86245  0.34695  1.0000
  N   N125      1.0  0.42228  0.90755  0.27476  1.0000
  H   H1552     1.0  0.28002  0.66465  0.34091  1.0000
  N   N126      1.0  0.07710  0.64566  0.24094  1.0000
  C   C1569     1.0  0.08153  0.65144  0.24719  1.0000
  C   C1570     1.0  0.07507  0.63403  0.24593  1.0000
  C   C1571     1.0  0.08381  0.64565  0.25888  1.0000
  C   C1572     1.0  0.07720  0.62800  0.25761  1.0000
  C   C1573     1.0  0.08162  0.63386  0.26409  1.0000
  C   C1574     1.0  0.07536  0.65155  0.22846  1.0000
  H   H1553     1.0  0.08360  0.66045  0.24305  1.0000
  H   H1554     1.0  0.07214  0.62920  0.24074  1.0000
  H   H1555     1.0  0.08775  0.65004  0.26366  1.0000
  H   H1556     1.0  0.07595  0.61864  0.26134  1.0000
  H   H1557     1.0  0.08382  0.62910  0.27294  1.0000
  H   H1558     1.0  0.07371  0.66173  0.22680  1.0000
  H   H1559     1.0  0.08363  0.64833  0.22167  1.0000
  H   H1560     1.0  0.06725  0.64938  0.22670  1.0000
  H   H1561     1.0  0.08415  0.58515  0.19201  1.0000
  H   H1562     1.0  0.10109  0.49795  0.34273  1.0000
  H   H1563     1.0  0.35945  0.74022  0.34163  1.0000
  C   C1575     1.0  0.38384  0.75189  0.34048  1.0000
  H   H1564     1.0  0.49073  0.85342  0.35504  1.0000
  Fe  Fe275     1.0  0.30541  0.63668  0.38087  1.0000
  C   C1576     1.0  0.11837  0.49766  0.34680  1.0000
  C   C1577     1.0  0.46017  0.66651  0.31915  1.0000
  N   N127      1.0  0.35980  0.75932  0.33708  1.0000
  H   H1565     1.0  0.34280  0.77242  0.33719  1.0000
  H   H1566     1.0  0.10645  0.59292  0.32816  1.0000
  H   H1567     1.0  0.26202  0.66236  0.35733  1.0000
  N   N128      1.0  0.34660  0.66945  0.34445  1.0000
  H   H1568     1.0  0.36273  0.77764  0.33261  1.0000
  C   C1578     1.0  0.04664  0.62911  0.18591  1.0000
  H   H1569     1.0  0.44786  0.82609  0.31836  1.0000
  C   C1579     1.0  0.10698  0.57543  0.34090  1.0000
  C   C1580     1.0  0.26473  0.66827  0.36153  1.0000
  H   H1570     1.0  0.26286  0.60697  0.32422  1.0000
  H   H1571     1.0  0.44231  0.66184  0.32423  1.0000
  H   H1572     1.0  0.46269  0.83836  0.30453  1.0000
  H   H1573     1.0  0.24947  0.58358  0.31886  1.0000
  H   H1574     1.0  0.44034  0.90866  0.27521  1.0000
  C   C1581     1.0  0.42514  0.90785  0.26158  1.0000
  Fe  Fe276     1.0  0.13003  0.53980  0.36244  1.0000
  H   H1575     1.0  0.15255  0.60028  0.25920  1.0000
  H   H1576     1.0  0.42027  0.91670  0.25670  1.0000
  C   C1582     1.0  0.10567  0.58816  0.33770  1.0000
  H   H1577     1.0  0.14812  0.58006  0.31595  1.0000
  H   H1578     1.0  0.25617  0.58713  0.32935  1.0000
  S   S542      1.0  0.14744  0.52526  0.36253  1.0000
  Fe  Fe277     1.0  0.40327  0.62737  0.37314  1.0000
  C   C1583     1.0  0.36091  0.90228  0.21357  1.0000
  H   H1579     1.0  0.37241  0.92765  0.19809  1.0000
  C   C1584     1.0  0.38442  0.98551  0.34804  1.0000
  H   H1580     1.0  0.11016  0.48888  0.31163  1.0000
  C   C1585     1.0  0.11897  0.51325  0.31509  1.0000
  C   C1586     1.0  0.41904  0.87550  0.34277  1.0000
  C   C1587     1.0  0.41185  0.85984  0.35897  1.0000
  H   H1581     1.0  0.10313  0.60459  0.34417  1.0000
  C   C1588     1.0  0.10224  0.59550  0.36825  1.0000
  H   H1582     1.0  0.49422  0.65659  0.29948  1.0000
  C   C1589     1.0  0.12194  0.50039  0.37939  1.0000
  H   H1583     1.0  0.34845  0.91863  0.38159  1.0000
  N   N129      1.0  0.42115  0.86567  0.35219  1.0000
  Fe  Fe278     1.0  0.32827  0.72176  0.38041  1.0000
  C   C1590     1.0  0.37877  0.76434  0.33688  1.0000
  H   H1584     1.0  0.36287  0.68358  0.36077  1.0000
  C   C1591     1.0  0.12997  0.49066  0.34842  1.0000
  H   H1585     1.0  0.10406  0.57156  0.37152  1.0000
  S   S543      1.0  0.40369  0.66940  0.37605  1.0000
  C   C1592     1.0  0.13946  0.50704  0.31904  1.0000
  C   C1593     1.0  0.41614  0.90837  0.29948  1.0000
  H   H1586     1.0  0.40371  0.90642  0.27684  1.0000
  C   C1594     1.0  0.43669  0.82965  0.30507  1.0000
  C   C1595     1.0  0.25691  0.61014  0.31767  1.0000
  H   H1587     1.0  0.24142  0.59946  0.30342  1.0000
  C   C1596     1.0  0.13254  0.59607  0.23940  1.0000
  C   C1597     1.0  0.40729  0.90756  0.29372  1.0000
  S   S544      1.0  0.14094  0.49693  0.35181  1.0000
  H   H1588     1.0  0.44283  0.84656  0.27613  1.0000
  C   C1598     1.0  0.43328  0.86174  0.35535  1.0000
  Fe  Fe279     1.0  0.09932  0.62358  0.18730  1.0000
  C   C1599     1.0  0.44665  0.83062  0.30913  1.0000
  C   C1600     1.0  0.14699  0.59916  0.25353  1.0000
  N   N130      1.0  0.47661  0.65260  0.30891  1.0000
  C   C1601     1.0  0.46856  0.64556  0.30946  1.0000
  C   C1602     1.0  0.47259  0.66289  0.31380  1.0000
  C   C1603     1.0  0.45608  0.64889  0.31480  1.0000
  S   S545      1.0  0.30699  0.62413  0.36840  1.0000
  C   C1604     1.0  0.45188  0.65944  0.31965  1.0000
  C   C1605     1.0  0.47931  0.62568  0.36582  1.0000
  C   C1606     1.0  0.37725  0.61277  0.36623  1.0000
  C   C1607     1.0  0.10386  0.59472  0.34682  1.0000
  C   C1608     1.0  0.36428  0.67638  0.34497  1.0000
  C   C1609     1.0  0.37532  0.87819  0.19223  1.0000
  H   H1589     1.0  0.37703  0.61259  0.35673  1.0000
  H   H1590     1.0  0.10864  0.57023  0.33387  1.0000
  C   C1610     1.0  0.34354  0.61363  0.37833  1.0000
  C   C1611     1.0  0.35834  0.97218  0.36498  1.0000
  C   C1612     1.0  0.24498  0.60593  0.30607  1.0000
  C   C1613     1.0  0.25939  0.66872  0.37380  1.0000
  C   C1614     1.0  0.35832  0.67956  0.35622  1.0000
  S   S546      1.0  0.12196  0.53091  0.35227  1.0000
  H   H1591     1.0  0.19229  0.59480  0.31653  1.0000
  C   C1615     1.0  0.25607  0.58876  0.31945  1.0000
  C   C1616     1.0  0.44399  0.84212  0.28541  1.0000
  C   C1617     1.0  0.35545  0.61160  0.37113  1.0000
  H   H1592     1.0  0.42995  0.82452  0.31117  1.0000
  N   N131      1.0  0.25242  0.60193  0.31439  1.0000
  H   H1593     1.0  0.34662  0.65960  0.33120  1.0000
  C   C1618     1.0  0.48472  0.63452  0.36732  1.0000
  H   H1594     1.0  0.26538  0.58504  0.31443  1.0000
  C   C1619     1.0  0.18413  0.59116  0.31802  1.0000
  C   C1620     1.0  0.27930  0.67401  0.34230  1.0000
  S   S547      1.0  0.12374  0.63268  0.36966  1.0000
  C   C1621     1.0  0.27656  0.68270  0.36021  1.0000
  H   H1595     1.0  0.36293  0.66905  0.33035  1.0000
  C   C1622     1.0  0.36722  0.92050  0.20021  1.0000
  H   H1596     1.0  0.34167  0.68006  0.37027  1.0000
  H   H1597     1.0  0.37498  0.86336  0.20819  1.0000
  H   H1598     1.0  0.42633  0.88026  0.33754  1.0000
  H   H1599     1.0  0.38405  0.77124  0.33573  1.0000
  H   H1600     1.0  0.25277  0.66310  0.37902  1.0000
  S   S548      1.0  0.29055  0.65126  0.37316  1.0000
  H   H1601     1.0  0.10731  0.55953  0.35578  1.0000
  C   C1623     1.0  0.36480  0.74707  0.34034  1.0000
  H   H1602     1.0  0.33603  0.61160  0.37577  1.0000
  H   H1603     1.0  0.35700  0.60796  0.36299  1.0000
  C   C1624     1.0  0.35985  0.76678  0.36498  1.0000
  H   H1604     1.0  0.34134  0.75684  0.34129  1.0000
  H   H1605     1.0  0.18173  0.61774  0.35959  1.0000
  C   C1625     1.0  0.40746  0.87961  0.33978  1.0000
  C   C1626     1.0  0.34259  0.98205  0.34862  1.0000
  S   S549      1.0  0.39043  0.64543  0.36887  1.0000
  S   S550      1.0  0.36739  0.87188  0.18507  1.0000
  H   H1606     1.0  0.14718  0.50908  0.32121  1.0000
  H   H1607     1.0  0.38068  0.73344  0.34491  1.0000
  C   C1627     1.0  0.48977  0.64861  0.30392  1.0000
  H   H1608     1.0  0.37626  0.96116  0.32853  1.0000
  H   H1609     1.0  0.18542  0.65052  0.36782  1.0000
  C   C1628     1.0  0.34948  0.92483  0.37237  1.0000
  C   C1629     1.0  0.33511  0.94365  0.36500  1.0000
  C   C1630     1.0  0.35079  0.98393  0.36509  1.0000
  C   C1631     1.0  0.10628  0.56944  0.35316  1.0000
  N   N132      1.0  0.16340  0.58156  0.32195  1.0000
  C   C1632     1.0  0.17192  0.58140  0.31117  1.0000
  C   C1633     1.0  0.43539  0.83534  0.29311  1.0000
  C   C1634     1.0  0.15258  0.57635  0.32396  1.0000
  H   H1610     1.0  0.17057  0.57765  0.30410  1.0000
  C   C1635     1.0  0.45503  0.83756  0.30124  1.0000
  H   H1611     1.0  0.15542  0.56618  0.32530  1.0000
  H   H1612     1.0  0.14553  0.57871  0.33210  1.0000
  H   H1613     1.0  0.41368  0.90896  0.30905  1.0000
  C   C1636     1.0  0.18418  0.63458  0.36233  1.0000
  C   C1637     1.0  0.34787  0.89182  0.20808  1.0000
  H   H1614     1.0  0.43515  0.90905  0.29721  1.0000
  C   C1638     1.0  0.24585  0.62692  0.30460  1.0000
  S   S551      1.0  0.08035  0.63278  0.18457  1.0000
  H   H1615     1.0  0.10994  0.59154  0.37317  1.0000
  C   C1639     1.0  0.42813  0.90858  0.29281  1.0000
  C   C1640     1.0  0.30520  0.68488  0.37496  1.0000
  H   H1616     1.0  0.39788  0.90758  0.29875  1.0000
  H   H1617     1.0  0.09339  0.59497  0.37496  1.0000
  H   H1618     1.0  0.28886  0.67554  0.33991  1.0000
  S   S552      1.0  0.41875  0.63537  0.37375  1.0000
  H   H1619     1.0  0.37279  0.91177  0.21738  1.0000
  H   H1620     1.0  0.24300  0.63669  0.30104  1.0000
  H   H1621     1.0  0.39024  0.96593  0.31943  1.0000
  H   H1622     1.0  0.36389  0.95638  0.35660  1.0000
  N   N133      1.0  0.35460  0.90169  0.20535  1.0000
  C   C1641     1.0  0.35818  0.67150  0.33909  1.0000
  H   H1623     1.0  0.33460  0.65821  0.34457  1.0000
  C   C1642     1.0  0.39806  0.87344  0.34637  1.0000
  S   S553      1.0  0.35795  0.73415  0.37369  1.0000
  H   H1624     1.0  0.43407  0.86770  0.36108  1.0000
  H   H1625     1.0  0.35223  0.88341  0.21401  1.0000
  C   C1643     1.0  0.18239  0.64190  0.37076  1.0000
  H   H1626     1.0  0.17023  0.57045  0.36665  1.0000
  H   H1627     1.0  0.27428  0.68922  0.37664  1.0000
  C   C1644     1.0  0.05106  0.61663  0.18578  1.0000
  N   N134      1.0  0.34256  0.93735  0.37306  1.0000
  C   C1645     1.0  0.37953  0.70143  0.36867  1.0000
  N   N135      1.0  0.36485  0.61469  0.37397  1.0000
  H   H1628     1.0  0.33165  0.67064  0.35986  1.0000
  C   C1646     1.0  0.34077  0.67234  0.35558  1.0000
  H   H1629     1.0  0.28317  0.68830  0.35494  1.0000
  H   H1630     1.0  0.44978  0.64305  0.31567  1.0000
  C   C1647     1.0  0.12900  0.51620  0.31743  1.0000
  H   H1631     1.0  0.38906  0.87644  0.34407  1.0000
  H   H1632     1.0  0.33820  0.89488  0.21274  1.0000
  H   H1633     1.0  0.34910  0.91014  0.18830  1.0000
  H   H1634     1.0  0.38182  0.62038  0.36544  1.0000
  H   H1635     1.0  0.27386  0.68087  0.33597  1.0000
  H   H1636     1.0  0.37418  0.70863  0.37342  1.0000
  H   H1637     1.0  0.10249  0.60536  0.36431  1.0000
  C   C1648     1.0  0.34400  0.94283  0.38154  1.0000
  H   H1638     1.0  0.37817  0.76760  0.36524  1.0000
  S   S554      1.0  0.11800  0.54778  0.37847  1.0000
  N   N136      1.0  0.27348  0.67492  0.35502  1.0000
  H   H1639     1.0  0.49448  0.88173  0.34090  1.0000
  H   H1640     1.0  0.39309  0.85849  0.36117  1.0000
  H   H1641     1.0  0.35940  0.92481  0.36861  1.0000
  C   C1649     1.0  0.38771  0.69170  0.37438  1.0000
  H   H1642     1.0  0.45709  0.67444  0.32335  1.0000
  H   H1643     1.0  0.36073  0.79630  0.38053  1.0000
  H   H1644     1.0  0.37361  0.67761  0.34083  1.0000
  H   H1645     1.0  0.49446  0.64282  0.31137  1.0000
  C   C1650     1.0  0.32863  0.95567  0.36551  1.0000
  C   C1651     1.0  0.17463  0.61957  0.37833  1.0000
  H   H1646     1.0  0.46938  0.62720  0.36719  1.0000
  H   H1647     1.0  0.18716  0.56596  0.38233  1.0000
  H   H1648     1.0  0.36730  0.98378  0.32436  1.0000
  C   C1652     1.0  0.31194  0.70239  0.37709  1.0000
  H   H1649     1.0  0.10065  0.50008  0.32005  1.0000
  H   H1650     1.0  0.33636  0.98587  0.34238  1.0000
  C   C1653     1.0  0.26288  0.67623  0.37933  1.0000
  H   H1651     1.0  0.38296  0.60402  0.37031  1.0000
  H   H1652     1.0  0.47884  0.64290  0.36985  1.0000
  C   C1654     1.0  0.11003  0.49242  0.34394  1.0000
  H   H1653     1.0  0.40516  0.85906  0.18814  1.0000
  C   C1655     1.0  0.30605  0.69242  0.38230  1.0000
  H   H1654     1.0  0.10431  0.51291  0.38076  1.0000
  C   C1656     1.0  0.06972  0.68360  0.18322  1.0000
  H   H1655     1.0  0.36036  0.92679  0.18348  1.0000
  H   H1656     1.0  0.09823  0.57822  0.18300  1.0000
  H   H1657     1.0  0.34192  0.78870  0.38648  1.0000
  H   H1658     1.0  0.07301  0.69269  0.56850  1.0000
  C   C1657     1.0  0.30047  0.62900  0.57965  1.0000
  Fe  Fe280     1.0  0.13574  0.59665  0.40295  1.0000
  S   S555      1.0  0.11743  0.60983  0.40329  1.0000
  S   S556      1.0  0.14144  0.57641  0.40270  1.0000
  Fe  Fe281     1.0  0.14893  0.61669  0.40141  1.0000
  S   S557      1.0  0.13204  0.63154  0.40086  1.0000
  S   S558      1.0  0.16603  0.62179  0.40209  1.0000
  Fe  Fe282     1.0  0.12309  0.61811  0.41618  1.0000
  S   S559      1.0  0.11262  0.62266  0.43475  1.0000
  H   H1659     1.0  0.19093  0.60517  0.39848  1.0000
  S   S560      1.0  0.14036  0.60360  0.41716  1.0000
  H   H1660     1.0  0.20437  0.59325  0.39540  1.0000
  H   H1661     1.0  0.12337  0.52911  0.40177  1.0000
  C   C1658     1.0  0.19546  0.59816  0.39282  1.0000
  C   C1659     1.0  0.14237  0.56236  0.38669  1.0000
  Fe  Fe283     1.0  0.35180  0.61522  0.54707  1.0000
  S   S561      1.0  0.35845  0.59558  0.54534  1.0000
  S   S562      1.0  0.35524  0.62957  0.52956  1.0000
  Fe  Fe284     1.0  0.34064  0.59291  0.55818  1.0000
  H   H1662     1.0  0.37036  0.62145  0.38660  1.0000
  Fe  Fe285     1.0  0.36542  0.59270  0.56242  1.0000
  S   S563      1.0  0.38419  0.58128  0.56416  1.0000
  S   S564      1.0  0.33330  0.61276  0.55888  1.0000
  S   S565      1.0  0.36043  0.61263  0.56320  1.0000
  S   S566      1.0  0.35529  0.72299  0.40815  1.0000
  Fe  Fe286     1.0  0.33932  0.64158  0.46585  1.0000
  S   S567      1.0  0.33912  0.63284  0.45073  1.0000
  S   S568      1.0  0.32988  0.63525  0.48556  1.0000
  Fe  Fe287     1.0  0.35456  0.65943  0.44856  1.0000
  S   S569      1.0  0.35627  0.65214  0.43206  1.0000
  S   S570      1.0  0.36316  0.67446  0.44890  1.0000
  Fe  Fe288     1.0  0.33620  0.65206  0.43932  1.0000
  S   S571      1.0  0.32417  0.66135  0.42567  1.0000
  Fe  Fe289     1.0  0.35910  0.63367  0.44466  1.0000
  S   S572      1.0  0.37365  0.61705  0.44125  1.0000
  S   S573      1.0  0.33429  0.66082  0.45506  1.0000
  S   S574      1.0  0.35951  0.64097  0.46054  1.0000
  S   S575      1.0  0.30620  0.62881  0.40067  1.0000
  C   C1660     1.0  0.14601  0.62525  0.45546  1.0000
  Fe  Fe290     1.0  0.12390  0.65660  0.48138  1.0000
  S   S576      1.0  0.12933  0.63861  0.49407  1.0000
  S   S577      1.0  0.12648  0.65804  0.46076  1.0000
  Fe  Fe291     1.0  0.11674  0.67106  0.50222  1.0000
  S   S578      1.0  0.12148  0.65406  0.51620  1.0000
  S   S579      1.0  0.10749  0.68858  0.50932  1.0000
  Fe  Fe292     1.0  0.13808  0.64913  0.50180  1.0000
  S   S580      1.0  0.15575  0.64030  0.50810  1.0000
  Fe  Fe293     1.0  0.11227  0.64526  0.50726  1.0000
  S   S581      1.0  0.09992  0.63291  0.51953  1.0000
  S   S582      1.0  0.13414  0.66683  0.48815  1.0000
  S   S583      1.0  0.10604  0.66258  0.49417  1.0000
  Fe  Fe294     1.0  0.11197  0.74264  0.56863  1.0000
  Fe  Fe295     1.0  0.12181  0.72172  0.55404  1.0000
  H   H1663     1.0  0.10436  0.78860  0.56921  1.0000
  S   S584      1.0  0.13157  0.71396  0.53698  1.0000
  H   H1664     1.0  0.12365  0.67449  0.54449  1.0000
  C   C1661     1.0  0.16965  0.58119  0.40449  1.0000
  S   S585      1.0  0.10327  0.73410  0.55844  1.0000
  S   S586      1.0  0.13086  0.73156  0.56249  1.0000
  H   H1665     1.0  0.16754  0.56631  0.39786  1.0000
  S   S587      1.0  0.06362  0.66141  0.55883  1.0000
  Fe  Fe296     1.0  0.34839  0.72402  0.39146  1.0000
  H   H1666     1.0  0.13621  0.51700  0.40521  1.0000
  N   N137      1.0  0.11241  0.62242  0.55054  1.0000
  S   S588      1.0  0.34633  0.70939  0.38327  1.0000
  Fe  Fe297     1.0  0.15960  0.64592  0.57056  1.0000
  S   S589      1.0  0.15439  0.66019  0.55425  1.0000
  C   C1662     1.0  0.38993  0.64408  0.43188  1.0000
  C   C1663     1.0  0.11400  0.67629  0.54892  1.0000
  C   C1664     1.0  0.11691  0.56475  0.39156  1.0000
  C   C1665     1.0  0.34852  0.75776  0.39644  1.0000
  N   N138      1.0  0.38990  0.65818  0.41240  1.0000
  H   H1667     1.0  0.38235  0.67010  0.39753  1.0000
  H   H1668     1.0  0.11609  0.57732  0.40277  1.0000
  H   H1669     1.0  0.37918  0.67665  0.41073  1.0000
  S   S590      1.0  0.31232  0.71213  0.38633  1.0000
  S   S591      1.0  0.32972  0.73570  0.39005  1.0000
  C   C1666     1.0  0.11425  0.69493  0.51760  1.0000
  C   C1667     1.0  0.12693  0.69203  0.51698  1.0000
  C   C1668     1.0  0.13208  0.69792  0.52295  1.0000
  C   C1669     1.0  0.12461  0.70653  0.52989  1.0000
  C   C1670     1.0  0.11189  0.70923  0.53074  1.0000
  C   C1671     1.0  0.10676  0.70353  0.52453  1.0000
  H   H1670     1.0  0.13282  0.68554  0.51156  1.0000
  H   H1671     1.0  0.14194  0.69585  0.52207  1.0000
  H   H1672     1.0  0.10603  0.71592  0.53593  1.0000
  H   H1673     1.0  0.09695  0.70589  0.52504  1.0000
  C   C1672     1.0  0.15616  0.64613  0.52045  1.0000
  C   C1673     1.0  0.14938  0.65784  0.52186  1.0000
  C   C1674     1.0  0.14928  0.66225  0.53205  1.0000
  C   C1675     1.0  0.15562  0.65482  0.54107  1.0000
  C   C1676     1.0  0.16253  0.64317  0.53959  1.0000
  C   C1677     1.0  0.16289  0.63887  0.52923  1.0000
  H   H1674     1.0  0.14432  0.66355  0.51501  1.0000
  H   H1675     1.0  0.14417  0.67137  0.53298  1.0000
  H   H1676     1.0  0.16763  0.63747  0.54637  1.0000
  H   H1677     1.0  0.16817  0.62983  0.52813  1.0000
  C   C1678     1.0  0.08887  0.64114  0.52971  1.0000
  C   C1679     1.0  0.08797  0.65375  0.52824  1.0000
  C   C1680     1.0  0.07967  0.66012  0.53686  1.0000
  C   C1681     1.0  0.07263  0.65379  0.54722  1.0000
  C   C1682     1.0  0.07340  0.64123  0.54859  1.0000
  C   C1683     1.0  0.08128  0.63498  0.53967  1.0000
  H   H1678     1.0  0.09368  0.65862  0.52050  1.0000
  H   H1679     1.0  0.07903  0.66986  0.53571  1.0000
  H   H1680     1.0  0.06781  0.63636  0.55646  1.0000
  H   H1681     1.0  0.08167  0.62533  0.54065  1.0000
  H   H1682     1.0  0.38691  0.64218  0.44178  1.0000
  C   C1684     1.0  0.37931  0.61570  0.42590  1.0000
  C   C1685     1.0  0.38668  0.60452  0.42349  1.0000
  C   C1686     1.0  0.39189  0.60324  0.41141  1.0000
  C   C1687     1.0  0.39014  0.61326  0.40166  1.0000
  C   C1688     1.0  0.38279  0.62451  0.40400  1.0000
  C   C1689     1.0  0.37717  0.62566  0.41613  1.0000
  H   H1683     1.0  0.38835  0.59679  0.43099  1.0000
  H   H1684     1.0  0.39749  0.59451  0.40962  1.0000
  H   H1685     1.0  0.38134  0.63227  0.39647  1.0000
  H   H1686     1.0  0.37149  0.63433  0.41792  1.0000
  C   C1690     1.0  0.31984  0.65203  0.41848  1.0000
  C   C1691     1.0  0.31531  0.65738  0.40774  1.0000
  C   C1692     1.0  0.31135  0.65025  0.40208  1.0000
  C   C1693     1.0  0.31164  0.63779  0.40730  1.0000
  C   C1694     1.0  0.31624  0.63243  0.41799  1.0000
  C   C1695     1.0  0.32045  0.63950  0.42351  1.0000
  H   H1687     1.0  0.31482  0.66706  0.40380  1.0000
  H   H1688     1.0  0.30776  0.65446  0.39386  1.0000
  H   H1689     1.0  0.31646  0.62280  0.42205  1.0000
  H   H1690     1.0  0.32385  0.63533  0.43182  1.0000
  C   C1696     1.0  0.35819  0.70894  0.41861  1.0000
  C   C1697     1.0  0.36277  0.70879  0.42867  1.0000
  C   C1698     1.0  0.36445  0.69809  0.43774  1.0000
  C   C1699     1.0  0.36141  0.68746  0.43694  1.0000
  C   C1700     1.0  0.35693  0.68748  0.42681  1.0000
  C   C1701     1.0  0.35544  0.69821  0.41755  1.0000
  H   H1691     1.0  0.36493  0.71704  0.42952  1.0000
  H   H1692     1.0  0.36797  0.69813  0.44550  1.0000
  H   H1693     1.0  0.35450  0.67932  0.42614  1.0000
  H   H1694     1.0  0.35185  0.69828  0.40981  1.0000
  C   C1702     1.0  0.34877  0.62955  0.51741  1.0000
  C   C1703     1.0  0.33706  0.62708  0.51961  1.0000
  C   C1704     1.0  0.33141  0.62877  0.50975  1.0000
  C   C1705     1.0  0.33751  0.63272  0.49764  1.0000
  C   C1706     1.0  0.34942  0.63470  0.49543  1.0000
  C   C1707     1.0  0.35499  0.63319  0.50528  1.0000
  H   H1695     1.0  0.33216  0.62435  0.52894  1.0000
  H   H1696     1.0  0.32218  0.62725  0.51157  1.0000
  H   H1697     1.0  0.35423  0.63772  0.48619  1.0000
  H   H1698     1.0  0.36406  0.63510  0.50354  1.0000
  C   C1708     1.0  0.30443  0.59078  0.55628  1.0000
  H   H1699     1.0  0.31930  0.58977  0.57833  1.0000
  C   C1709     1.0  0.15725  0.63914  0.43985  1.0000
  H   H1700     1.0  0.35440  0.60705  0.46063  1.0000
  H   H1701     1.0  0.30615  0.58835  0.54749  1.0000
  H   H1702     1.0  0.37084  0.60663  0.48995  1.0000
  S   S592      1.0  0.39693  0.61121  0.38668  1.0000
  Fe  Fe298     1.0  0.12593  0.71787  0.57983  1.0000
  C   C1710     1.0  0.07601  0.68380  0.56551  1.0000
  C   C1711     1.0  0.30749  0.55219  0.57535  1.0000
  C   C1712     1.0  0.36061  0.75632  0.39744  1.0000
  H   H1703     1.0  0.15635  0.71851  0.56413  1.0000
  N   N139      1.0  0.15922  0.69385  0.55228  1.0000
  H   H1704     1.0  0.33471  0.60536  0.47553  1.0000
  H   H1705     1.0  0.09260  0.69716  0.56336  1.0000
  C   C1713     1.0  0.11619  0.63287  0.44177  1.0000
  C   C1714     1.0  0.11210  0.63200  0.45451  1.0000
  C   C1715     1.0  0.11513  0.63961  0.46048  1.0000
  C   C1716     1.0  0.12204  0.64844  0.45371  1.0000
  C   C1717     1.0  0.12587  0.64951  0.44093  1.0000
  C   C1718     1.0  0.12310  0.64169  0.43501  1.0000
  H   H1706     1.0  0.10666  0.62529  0.45982  1.0000
  H   H1707     1.0  0.11206  0.63869  0.47031  1.0000
  H   H1708     1.0  0.13117  0.65632  0.43557  1.0000
  H   H1709     1.0  0.12622  0.64258  0.42520  1.0000
  H   H1710     1.0  0.35017  0.93795  0.38769  1.0000
  S   S593      1.0  0.17039  0.64973  0.58209  1.0000
  H   H1711     1.0  0.10707  0.56542  0.39380  1.0000
  H   H1712     1.0  0.30540  0.55058  0.56718  1.0000
  C   C1719     1.0  0.38043  0.56155  0.54861  1.0000
  H   H1713     1.0  0.15202  0.63989  0.45901  1.0000
  C   C1720     1.0  0.35106  0.62134  0.39169  1.0000
  H   H1714     1.0  0.14572  0.50285  0.38988  1.0000
  C   C1721     1.0  0.16387  0.68474  0.56118  1.0000
  S   S594      1.0  0.27566  0.60766  0.57882  1.0000
  C   C1722     1.0  0.13476  0.57015  0.39442  1.0000
  H   H1715     1.0  0.10531  0.62755  0.56780  1.0000
  C   C1723     1.0  0.15868  0.70901  0.56322  1.0000
  C   C1724     1.0  0.12199  0.57154  0.39661  1.0000
  C   C1725     1.0  0.35187  0.60489  0.49501  1.0000
  C   C1726     1.0  0.13150  0.52263  0.39773  1.0000
  N   N140      1.0  0.31680  0.69764  0.42156  1.0000
  C   C1727     1.0  0.32036  0.69099  0.43219  1.0000
  C   C1728     1.0  0.31926  0.70910  0.41653  1.0000
  C   C1729     1.0  0.32635  0.69589  0.43819  1.0000
  C   C1730     1.0  0.32521  0.71429  0.42228  1.0000
  C   C1731     1.0  0.32872  0.70765  0.43321  1.0000
  C   C1732     1.0  0.31093  0.69225  0.41513  1.0000
  H   H1716     1.0  0.31867  0.68181  0.43605  1.0000
  H   H1717     1.0  0.31668  0.71428  0.40797  1.0000
  H   H1718     1.0  0.32942  0.69049  0.44645  1.0000
  H   H1719     1.0  0.32740  0.72327  0.41812  1.0000
  H   H1720     1.0  0.33367  0.71144  0.43755  1.0000
  H   H1721     1.0  0.31791  0.68849  0.40761  1.0000
  H   H1722     1.0  0.30663  0.68467  0.42136  1.0000
  H   H1723     1.0  0.30359  0.69926  0.41111  1.0000
  H   H1724     1.0  0.37253  0.60783  0.46776  1.0000
  H   H1725     1.0  0.33059  0.60313  0.50914  1.0000
  H   H1726     1.0  0.09231  0.89092  0.57792  1.0000
  C   C1733     1.0  0.39705  0.63469  0.42596  1.0000
  C   C1734     1.0  0.15647  0.70586  0.55328  1.0000
  H   H1727     1.0  0.32753  0.59481  0.49957  1.0000
  H   H1728     1.0  0.16104  0.58144  0.41121  1.0000
  C   C1735     1.0  0.40069  0.63719  0.41320  1.0000
  C   C1736     1.0  0.29270  0.59697  0.56129  1.0000
  N   N141      1.0  0.34188  0.60455  0.49096  1.0000
  H   H1729     1.0  0.39946  0.62541  0.43121  1.0000
  C   C1737     1.0  0.39695  0.64904  0.40653  1.0000
  H   H1730     1.0  0.37523  0.76551  0.39520  1.0000
  H   H1731     1.0  0.11479  0.69259  0.55409  1.0000
  S   S595      1.0  0.17032  0.62662  0.57086  1.0000
  C   C1738     1.0  0.11320  0.77035  0.57710  1.0000
  C   C1739     1.0  0.38653  0.65589  0.42493  1.0000
  H   H1732     1.0  0.07654  0.89827  0.57695  1.0000
  C   C1740     1.0  0.15649  0.69063  0.54203  1.0000
  S   S596      1.0  0.32894  0.58160  0.55565  1.0000
  C   C1741     1.0  0.13071  0.63514  0.54746  1.0000
  H   H1733     1.0  0.30213  0.69054  0.39202  1.0000
  H   H1734     1.0  0.10649  0.60565  0.55844  1.0000
  H   H1735     1.0  0.34249  0.55765  0.57364  1.0000
  C   C1742     1.0  0.33015  0.60337  0.49961  1.0000
  C   C1743     1.0  0.39549  0.55871  0.57532  1.0000
  C   C1744     1.0  0.36396  0.60684  0.47432  1.0000
  H   H1736     1.0  0.39443  0.67478  0.40114  1.0000
  H   H1737     1.0  0.37665  0.57160  0.54659  1.0000
  H   H1738     1.0  0.36595  0.74719  0.40034  1.0000
  H   H1739     1.0  0.10203  0.61367  0.54401  1.0000
  H   H1740     1.0  0.25899  0.67649  0.38891  1.0000
  C   C1745     1.0  0.35376  0.60642  0.47030  1.0000
  N   N142      1.0  0.35242  0.66630  0.48818  1.0000
  C   C1746     1.0  0.34328  0.66680  0.48250  1.0000
  C   C1747     1.0  0.35059  0.66334  0.50071  1.0000
  C   C1748     1.0  0.33192  0.66427  0.48940  1.0000
  C   C1749     1.0  0.33932  0.66082  0.50789  1.0000
  C   C1750     1.0  0.32996  0.66127  0.50217  1.0000
  C   C1751     1.0  0.36434  0.66857  0.48063  1.0000
  H   H1741     1.0  0.34484  0.66895  0.47257  1.0000
  H   H1742     1.0  0.35792  0.66255  0.50527  1.0000
  H   H1743     1.0  0.32484  0.66420  0.48487  1.0000
  H   H1744     1.0  0.33807  0.65801  0.51780  1.0000
  H   H1745     1.0  0.32135  0.65886  0.50760  1.0000
  H   H1746     1.0  0.36307  0.67759  0.47407  1.0000
  H   H1747     1.0  0.37074  0.66868  0.48624  1.0000
  H   H1748     1.0  0.36873  0.66130  0.47524  1.0000
  N   N143      1.0  0.37245  0.55525  0.55915  1.0000
  C   C1752     1.0  0.31403  0.58820  0.56241  1.0000
  C   C1753     1.0  0.36004  0.55992  0.56166  1.0000
  C   C1754     1.0  0.13651  0.50491  0.38820  1.0000
  C   C1755     1.0  0.34717  0.77965  0.38975  1.0000
  H   H1749     1.0  0.17407  0.59615  0.40889  1.0000
  C   C1756     1.0  0.19144  0.58097  0.38706  1.0000
  C   C1757     1.0  0.17310  0.62671  0.38684  1.0000
  H   H1750     1.0  0.35604  0.56842  0.55605  1.0000
  H   H1751     1.0  0.18884  0.59869  0.55974  1.0000
  H   H1752     1.0  0.07395  0.67636  0.57364  1.0000
  C   C1758     1.0  0.10901  0.68648  0.55429  1.0000
  H   H1753     1.0  0.08579  0.90607  0.58107  1.0000
  C   C1759     1.0  0.08383  0.89689  0.58209  1.0000
  H   H1754     1.0  0.15668  0.69832  0.53385  1.0000
  C   C1760     1.0  0.31186  0.59160  0.57364  1.0000
  H   H1755     1.0  0.37395  0.52959  0.58171  1.0000
  C   C1761     1.0  0.34135  0.61854  0.38866  1.0000
  H   H1756     1.0  0.02042  0.60928  0.58203  1.0000
  C   C1762     1.0  0.16612  0.68756  0.57127  1.0000
  H   H1757     1.0  0.31895  0.63073  0.57778  1.0000
  C   C1763     1.0  0.29047  0.60018  0.57264  1.0000
  H   H1758     1.0  0.09430  0.61910  0.55782  1.0000
  H   H1759     1.0  0.20526  0.60207  0.56796  1.0000
  C   C1764     1.0  0.15195  0.63512  0.45214  1.0000
  C   C1765     1.0  0.10339  0.61482  0.55275  1.0000
  H   H1760     1.0  0.17085  0.59114  0.57426  1.0000
  C   C1766     1.0  0.38626  0.67054  0.40516  1.0000
  N   N144      1.0  0.09544  0.69410  0.48168  1.0000
  C   C1767     1.0  0.10617  0.69801  0.47958  1.0000
  C   C1768     1.0  0.09415  0.68712  0.47442  1.0000
  C   C1769     1.0  0.11596  0.69493  0.47003  1.0000
  C   C1770     1.0  0.10376  0.68391  0.46476  1.0000
  C   C1771     1.0  0.11472  0.68783  0.46258  1.0000
  C   C1772     1.0  0.08554  0.69662  0.49224  1.0000
  H   H1761     1.0  0.10733  0.70330  0.48549  1.0000
  H   H1762     1.0  0.08582  0.68367  0.47633  1.0000
  H   H1763     1.0  0.12456  0.69777  0.46861  1.0000
  H   H1764     1.0  0.10292  0.67801  0.45926  1.0000
  H   H1765     1.0  0.12235  0.68508  0.45534  1.0000
  H   H1766     1.0  0.08572  0.68826  0.49975  1.0000
  H   H1767     1.0  0.08667  0.70412  0.49593  1.0000
  H   H1768     1.0  0.07643  0.69939  0.48970  1.0000
  N   N145      1.0  0.14530  0.61963  0.44675  1.0000
  C   C1773     1.0  0.15068  0.62337  0.43470  1.0000
  C   C1774     1.0  0.15668  0.63321  0.43106  1.0000
  C   C1775     1.0  0.13916  0.60921  0.45042  1.0000
  H   H1769     1.0  0.15013  0.61896  0.42777  1.0000
  H   H1770     1.0  0.16067  0.63629  0.42144  1.0000
  H   H1771     1.0  0.13505  0.60871  0.44296  1.0000
  H   H1772     1.0  0.14582  0.60050  0.45272  1.0000
  H   H1773     1.0  0.13140  0.61024  0.45844  1.0000
  H   H1774     1.0  0.34944  0.62510  0.39976  1.0000
  H   H1775     1.0  0.13789  0.64003  0.54631  1.0000
  S   S597      1.0  0.10771  0.76326  0.56831  1.0000
  C   C1776     1.0  0.09402  0.67111  0.55486  1.0000
  C   C1777     1.0  0.17704  0.58952  0.40307  1.0000
  H   H1776     1.0  0.39963  0.65082  0.39661  1.0000
  C   C1778     1.0  0.13060  0.62945  0.53830  1.0000
  N   N146      1.0  0.35910  0.77815  0.39059  1.0000
  C   C1779     1.0  0.36303  0.60612  0.48674  1.0000
  H   H1777     1.0  0.12122  0.61876  0.53279  1.0000
  C   C1780     1.0  0.12155  0.63447  0.55814  1.0000
  C   C1781     1.0  0.11239  0.62809  0.55949  1.0000
  C   C1782     1.0  0.35231  0.55385  0.57156  1.0000
  H   H1778     1.0  0.14162  0.62242  0.46499  1.0000
  H   H1779     1.0  0.16161  0.64697  0.43713  1.0000
  C   C1783     1.0  0.34269  0.60536  0.47878  1.0000
  H   H1780     1.0  0.38102  0.66315  0.42961  1.0000
  H   H1781     1.0  0.35117  0.60453  0.50463  1.0000
  H   H1782     1.0  0.13766  0.62998  0.52992  1.0000
  H   H1783     1.0  0.12164  0.63869  0.56543  1.0000
  C   C1784     1.0  0.10646  0.66857  0.54913  1.0000
  C   C1785     1.0  0.38469  0.56780  0.57567  1.0000
  H   H1784     1.0  0.28533  0.59918  0.55643  1.0000
  S   S598      1.0  0.11863  0.70714  0.57102  1.0000
  H   H1785     1.0  0.32282  0.61139  0.49695  1.0000
  Fe  Fe299     1.0  0.10061  0.71987  0.57593  1.0000
  C   C1786     1.0  0.12131  0.62310  0.53998  1.0000
  N   N147      1.0  0.12799  0.51478  0.39174  1.0000
  C   C1787     1.0  0.09645  0.68899  0.55956  1.0000
  H   H1786     1.0  0.40600  0.62989  0.40847  1.0000
  C   C1788     1.0  0.10979  0.78320  0.57586  1.0000
  H   H1787     1.0  0.16484  0.70213  0.58023  1.0000
  N   N148      1.0  0.08914  0.68129  0.55984  1.0000
  H   H1788     1.0  0.14719  0.68846  0.54478  1.0000
  H   H1789     1.0  0.16573  0.67520  0.56057  1.0000
  C   C1789     1.0  0.17331  0.57265  0.39701  1.0000
  Fe  Fe300     1.0  0.12826  0.62205  0.38800  1.0000
  Fe  Fe301     1.0  0.34256  0.60820  0.57486  1.0000
  C   C1790     1.0  0.18829  0.59665  0.56956  1.0000
  H   H1790     1.0  0.29164  0.57359  0.57392  1.0000
  H   H1791     1.0  0.02194  0.63820  0.57334  1.0000
  H   H1792     1.0  0.31263  0.55976  0.57242  1.0000
  C   C1791     1.0  0.35733  0.54285  0.57876  1.0000
  S   S599      1.0  0.14618  0.60850  0.38718  1.0000
  H   H1793     1.0  0.19726  0.60321  0.38311  1.0000
  H   H1794     1.0  0.38866  0.69151  0.38346  1.0000
  Fe  Fe302     1.0  0.06539  0.64884  0.57699  1.0000
  H   H1795     1.0  0.11017  0.66075  0.54479  1.0000
  H   H1796     1.0  0.15225  0.56115  0.38504  1.0000
  H   H1797     1.0  0.33912  0.95935  0.38875  1.0000
  H   H1798     1.0  0.16946  0.68028  0.57847  1.0000
  H   H1799     1.0  0.16329  0.68250  0.53927  1.0000
  H   H1800     1.0  0.36300  0.79258  0.39608  1.0000
  H   H1801     1.0  0.15912  0.98176  0.58180  1.0000
  H   H1802     1.0  0.08824  0.66497  0.55523  1.0000
  H   H1803     1.0  0.17317  0.97030  0.57909  1.0000
  C   C1792     1.0  0.18432  0.57245  0.38832  1.0000
  C   C1793     1.0  0.36461  0.78892  0.38773  1.0000
  H   H1804     1.0  0.33242  0.77064  0.39143  1.0000
  H   H1805     1.0  0.15241  0.71308  0.54644  1.0000
  H   H1806     1.0  0.17577  0.64342  0.38968  1.0000
  S   S600      1.0  0.08407  0.64335  0.58131  1.0000
  H   H1807     1.0  0.30272  0.62464  0.57188  1.0000
  N   N149      1.0  0.18774  0.58939  0.39435  1.0000
  C   C1794     1.0  0.37740  0.54437  0.56608  1.0000
  S   S601      1.0  0.34810  0.58811  0.57506  1.0000
  C   C1795     1.0  0.36578  0.76669  0.39451  1.0000
  H   H1808     1.0  0.07046  0.68417  0.55887  1.0000
  H   H1809     1.0  0.33215  0.62018  0.39430  1.0000
  H   H1810     1.0  0.07482  0.81061  0.58083  1.0000
  H   H1811     1.0  0.34450  0.74976  0.39848  1.0000
  H   H1812     1.0  0.12517  0.98088  0.58255  1.0000
  C   C1796     1.0  0.36992  0.53802  0.57599  1.0000
  H   H1813     1.0  0.38963  0.56046  0.55057  1.0000
  H   H1814     1.0  0.38723  0.54069  0.56419  1.0000
  H   H1815     1.0  0.40363  0.56029  0.56836  1.0000
  H   H1816     1.0  0.38151  0.55783  0.54041  1.0000
  C   C1797     1.0  0.34172  0.76948  0.39261  1.0000
  C   C1798     1.0  0.16353  0.69979  0.57225  1.0000
  C   C1799     1.0  0.30005  0.59746  0.57882  1.0000
  C   C1800     1.0  0.19750  0.59851  0.57415  1.0000
  C   C1801     1.0  0.36283  0.61929  0.38422  1.0000
  H   H1817     1.0  0.37468  0.78660  0.38393  1.0000
  H   H1818     1.0  0.31373  0.54384  0.57939  1.0000
  H   H1819     1.0  0.11046  0.79897  0.58223  1.0000
  H   H1820     1.0  0.13773  0.52825  0.39087  1.0000
  C   C1802     1.0  0.12454  0.55686  0.38396  1.0000
  C   C1803     1.0  0.28890  0.56690  0.58209  1.0000
  C   C1804     1.0  0.17823  0.59240  0.57768  1.0000
  S   S602      1.0  0.20061  0.62472  0.58120  1.0000
  H   H1821     1.0  0.10983  0.52561  0.39174  1.0000
  C   C1805     1.0  0.11652  0.51764  0.38918  1.0000
  H   H1822     1.0  0.22616  0.61862  0.58175  1.0000
  C   C1806     1.0  0.17703  0.63784  0.38310  1.0000
  C   C1807     1.0  0.11332  0.51049  0.38297  1.0000
  C   C1808     1.0  0.01984  0.63245  0.58270  1.0000
  H   H1823     1.0  0.11596  0.58989  0.58259  1.0000
  H   H1824     1.0  0.07524  0.78924  0.58272  1.0000
  Fe  Fe303     1.0  0.34053  0.52807  0.61072  1.0000
  S   S603      1.0  0.34945  0.54028  0.61588  1.0000
  S   S604      1.0  0.32721  0.53929  0.59881  1.0000
  Fe  Fe304     1.0  0.35428  0.50489  0.62518  1.0000
  S   S605      1.0  0.36400  0.51556  0.63184  1.0000
  C   C1809     1.0  0.09158  0.77175  0.60395  1.0000
  Fe  Fe305     1.0  0.34577  0.52870  0.63470  1.0000
  S   S606      1.0  0.33611  0.53968  0.64921  1.0000
  Fe  Fe306     1.0  0.36676  0.52625  0.61240  1.0000
  H   H1825     1.0  0.12972  0.95086  0.61333  1.0000
  S   S607      1.0  0.33568  0.51715  0.62986  1.0000
  S   S608      1.0  0.35826  0.51483  0.60547  1.0000
  Fe  Fe307     1.0  0.27207  0.58620  0.62288  1.0000
  S   S609      1.0  0.28484  0.59835  0.61133  1.0000
  S   S610      1.0  0.27975  0.56655  0.63077  1.0000
  Fe  Fe308     1.0  0.24919  0.60641  0.62050  1.0000
  S   S611      1.0  0.26026  0.62031  0.60886  1.0000
  S   S612      1.0  0.22833  0.61098  0.62500  1.0000
  Fe  Fe309     1.0  0.27114  0.60509  0.59931  1.0000
  N   N150      1.0  0.37176  0.58625  0.62344  1.0000
  Fe  Fe310     1.0  0.27301  0.61223  0.62209  1.0000
  S   S613      1.0  0.28379  0.62326  0.62698  1.0000
  S   S614      1.0  0.25922  0.59172  0.60999  1.0000
  S   S615      1.0  0.26099  0.59960  0.63469  1.0000
  Fe  Fe311     1.0  0.35733  0.58723  0.66600  1.0000
  S   S616      1.0  0.36614  0.60330  0.66271  1.0000
  S   S617      1.0  0.36737  0.56792  0.66474  1.0000
  Fe  Fe312     1.0  0.33146  0.60272  0.66772  1.0000
  S   S618      1.0  0.33789  0.62029  0.66461  1.0000
  S   S619      1.0  0.31275  0.59863  0.67003  1.0000
  Fe  Fe313     1.0  0.35305  0.61270  0.65000  1.0000
  S   S620      1.0  0.35964  0.62133  0.63008  1.0000
  Fe  Fe314     1.0  0.35048  0.60954  0.67776  1.0000
  S   S621      1.0  0.35079  0.61731  0.69407  1.0000
  S   S622      1.0  0.34564  0.59615  0.65228  1.0000
  S   S623      1.0  0.34270  0.59253  0.68189  1.0000
  H   H1826     1.0  0.40399  0.54032  0.58329  1.0000
  S   S624      1.0  0.15260  0.89349  0.77034  1.0000
  S   S625      1.0  0.12904  0.89416  0.75169  1.0000
  C   C1810     1.0  0.10834  0.98738  0.61916  1.0000
  H   H1827     1.0  0.38257  0.59527  0.60724  1.0000
  H   H1828     1.0  0.18443  0.98338  0.61365  1.0000
  H   H1829     1.0  0.27271  0.57966  0.58889  1.0000
  Fe  Fe315     1.0  0.10708  0.86740  0.68473  1.0000
  S   S626      1.0  0.09167  0.86195  0.70021  1.0000
  S   S627      1.0  0.12147  0.85361  0.67506  1.0000
  Fe  Fe316     1.0  0.09984  0.89391  0.68726  1.0000
  S   S628      1.0  0.08358  0.89056  0.70232  1.0000
  S   S629      1.0  0.10331  0.91284  0.68359  1.0000
  Fe  Fe317     1.0  0.09663  0.87393  0.71005  1.0000
  S   S630      1.0  0.09772  0.86983  0.73028  1.0000
  Fe  Fe318     1.0  0.08036  0.87927  0.69081  1.0000
  S   S631      1.0  0.06117  0.88234  0.68733  1.0000
  S   S632      1.0  0.11301  0.87775  0.69533  1.0000
  S   S633      1.0  0.09566  0.88413  0.67499  1.0000
  Fe  Fe319     1.0  0.02220  0.90011  0.61950  1.0000
  S   S634      1.0  0.02252  0.91973  0.61852  1.0000
  Fe  Fe320     1.0  0.03378  0.87896  0.60671  1.0000
  S   S635      1.0  0.02706  0.86517  0.62317  1.0000
  H   H1830     1.0  0.07073  0.87952  0.59085  1.0000
  Fe  Fe321     1.0  0.03288  0.87525  0.63410  1.0000
  S   S636      1.0  0.04785  0.86580  0.64504  1.0000
  S   S637      1.0  0.01578  0.89245  0.60695  1.0000
  S   S638      1.0  0.04077  0.88794  0.61744  1.0000
  Fe  Fe322     1.0  0.10854  0.81908  0.63037  1.0000
  S   S639      1.0  0.12368  0.81988  0.61347  1.0000
  S   S640      1.0  0.11231  0.81580  0.64929  1.0000
  Fe  Fe323     1.0  0.08955  0.82135  0.61574  1.0000
  S   S641      1.0  0.10298  0.82298  0.59771  1.0000
  S   S642      1.0  0.07004  0.82094  0.61685  1.0000
  Fe  Fe324     1.0  0.11524  0.80727  0.60770  1.0000
  S   S643      1.0  0.12475  0.78918  0.60158  1.0000
  Fe  Fe325     1.0  0.10973  0.83546  0.60533  1.0000
  S   S644      1.0  0.11373  0.85401  0.59463  1.0000
  S   S645      1.0  0.10135  0.80515  0.62548  1.0000
  S   S646      1.0  0.09505  0.83508  0.62252  1.0000
  Fe  Fe326     1.0  0.10612  0.91523  0.61470  1.0000
  S   S647      1.0  0.08559  0.92065  0.61967  1.0000
  S   S648      1.0  0.11291  0.89492  0.62204  1.0000
  Fe  Fe327     1.0  0.10888  0.94176  0.60145  1.0000
  S   S649      1.0  0.08836  0.94869  0.60483  1.0000
  C   C1811     1.0  0.13767  0.84686  0.61348  1.0000
  Fe  Fe328     1.0  0.08872  0.93728  0.62369  1.0000
  S   S650      1.0  0.07872  0.94540  0.64000  1.0000
  Fe  Fe329     1.0  0.08732  0.93135  0.60036  1.0000
  H   H1831     1.0  0.20356  0.59783  0.59031  1.0000
  S   S651      1.0  0.10921  0.93105  0.62069  1.0000
  S   S652      1.0  0.11971  0.95680  0.59120  1.0000
  C   C1812     1.0  0.32677  0.54966  0.68536  1.0000
  H   H1832     1.0  0.00280  0.60019  0.58372  1.0000
  H   H1833     1.0  0.03328  0.59384  0.60430  1.0000
  H   H1834     1.0  0.33486  0.53228  0.67988  1.0000
  C   C1813     1.0  0.11326  0.92018  0.73365  1.0000
  Fe  Fe330     1.0  0.07443  0.64755  0.59966  1.0000
  S   S653      1.0  0.07109  0.62855  0.60838  1.0000
  H   H1835     1.0  0.30287  0.59077  0.63427  1.0000
  H   H1836     1.0  0.17422  0.65227  0.62044  1.0000
  H   H1837     1.0  0.38827  0.58826  0.62702  1.0000
  Fe  Fe331     1.0  0.05338  0.63531  0.60161  1.0000
  S   S654      1.0  0.03438  0.63305  0.61280  1.0000
  H   H1838     1.0  0.09782  0.77890  0.61606  1.0000
  N   N151      1.0  0.18628  0.59251  0.59473  1.0000
  S   S655      1.0  0.38515  0.53051  0.60199  1.0000
  H   H1839     1.0  0.29295  0.64325  0.60801  1.0000
  Fe  Fe332     1.0  0.15612  0.64280  0.59789  1.0000
  S   S656      1.0  0.14942  0.65267  0.61332  1.0000
  S   S657      1.0  0.16637  0.62316  0.60064  1.0000
  H   H1840     1.0  0.10353  0.65827  0.61927  1.0000
  H   H1841     1.0  0.10374  0.67015  0.59462  1.0000
  Fe  Fe333     1.0  0.38781  0.62405  0.74162  1.0000
  S   S658      1.0  0.36960  0.63134  0.75293  1.0000
  S   S659      1.0  0.39008  0.61992  0.72271  1.0000
  Fe  Fe334     1.0  0.40111  0.62014  0.76317  1.0000
  S   S660      1.0  0.38361  0.62672  0.77591  1.0000
  S   S661      1.0  0.41860  0.61180  0.77054  1.0000
  Fe  Fe335     1.0  0.37530  0.61596  0.76804  1.0000
  C   C1814     1.0  0.10671  0.95681  0.64043  1.0000
  Fe  Fe336     1.0  0.37992  0.64146  0.75952  1.0000
  S   S662      1.0  0.37175  0.66119  0.76053  1.0000
  S   S663      1.0  0.39301  0.60805  0.75656  1.0000
  S   S664      1.0  0.39792  0.63559  0.74687  1.0000
  H   H1842     1.0  0.17529  0.59347  0.61257  1.0000
  H   H1843     1.0  0.19044  0.59601  0.61023  1.0000
  H   H1844     1.0  0.09921  0.95860  0.64846  1.0000
  H   H1845     1.0  0.99862  0.61598  0.61807  1.0000
  S   S665      1.0  0.10784  0.92523  0.59499  1.0000
  H   H1846     1.0  0.06428  0.67738  0.60200  1.0000
  C   C1815     1.0  0.17953  0.64959  0.61167  1.0000
  H   H1847     1.0  0.39469  0.67551  0.77890  1.0000
  Fe  Fe337     1.0  0.14484  0.90812  0.78139  1.0000
  C   C1816     1.0  0.07357  0.88194  0.59793  1.0000
  H   H1848     1.0  0.02226  0.58366  0.63657  1.0000
  S   S666      1.0  0.10756  0.72934  0.58644  1.0000
  C   C1817     1.0  0.18506  0.59052  0.60801  1.0000
  C   C1818     1.0  0.37819  0.58114  0.76138  1.0000
  H   H1849     1.0  0.38784  0.59927  0.78156  1.0000
  H   H1850     1.0  0.32738  0.58715  0.59980  1.0000
  H   H1851     1.0  0.12636  0.62412  0.59332  1.0000
  H   H1852     1.0  0.35996  0.68481  0.76452  1.0000
  C   C1819     1.0  0.12831  0.97692  0.59105  1.0000
  H   H1853     1.0  0.17308  0.97143  0.60755  1.0000
  C   C1820     1.0  0.09389  0.70179  0.61252  1.0000
  C   C1821     1.0  0.07255  0.69310  0.59319  1.0000
  H   H1854     1.0  0.09355  0.97593  0.60443  1.0000
  C   C1822     1.0  0.02728  0.62193  0.61139  1.0000
  C   C1823     1.0  0.03405  0.61124  0.60734  1.0000
  C   C1824     1.0  0.02798  0.60220  0.60724  1.0000
  C   C1825     1.0  0.01515  0.60382  0.61113  1.0000
  C   C1826     1.0  0.00843  0.61464  0.61491  1.0000
  C   C1827     1.0  0.01446  0.62363  0.61504  1.0000
  C   C1828     1.0  0.08709  0.79322  0.60454  1.0000
  H   H1855     1.0  0.00916  0.63190  0.61814  1.0000
  C   C1829     1.0  0.13835  0.97857  0.60636  1.0000
  C   C1830     1.0  0.42278  0.61801  0.78091  1.0000
  H   H1856     1.0  0.41461  0.66079  0.77438  1.0000
  H   H1857     1.0  0.10325  0.69220  0.58580  1.0000
  C   C1831     1.0  0.10965  0.97737  0.62904  1.0000
  C   C1832     1.0  0.07072  0.87548  0.61005  1.0000
  H   H1858     1.0  0.27934  0.54341  0.61160  1.0000
  H   H1859     1.0  0.40846  0.56793  0.75984  1.0000
  H   H1860     1.0  0.31232  0.60028  0.61326  1.0000
  H   H1861     1.0  0.13164  0.84430  0.64422  1.0000
  C   C1833     1.0  0.14129  0.69401  0.59845  1.0000
  C   C1834     1.0  0.14479  0.68914  0.60973  1.0000
  C   C1835     1.0  0.14711  0.67644  0.61433  1.0000
  C   C1836     1.0  0.14633  0.66852  0.60746  1.0000
  H   H1862     1.0  0.14554  0.69524  0.61502  1.0000
  H   H1863     1.0  0.14962  0.67275  0.62316  1.0000
  H   H1864     1.0  0.05980  0.91432  0.58646  1.0000
  H   H1865     1.0  0.06578  0.86810  0.61227  1.0000
  H   H1866     1.0  0.35152  0.53808  0.58653  1.0000
  C   C1837     1.0  0.08404  0.67233  0.59889  1.0000
  N   N152      1.0  0.29605  0.55536  0.58424  1.0000
  H   H1867     1.0  0.99746  0.91885  0.62311  1.0000
  H   H1868     1.0  0.22805  0.64051  0.60751  1.0000
  H   H1869     1.0  0.99990  0.58416  0.64276  1.0000
  H   H1870     1.0  0.37077  0.59289  0.59337  1.0000
  H   H1871     1.0  0.13501  0.86238  0.64873  1.0000
  H   H1872     1.0  0.21921  0.64631  0.58886  1.0000
  C   C1838     1.0  0.11817  0.59738  0.58494  1.0000
  H   H1873     1.0  0.08323  0.89713  0.74847  1.0000
  H   H1874     1.0  0.12218  0.87192  0.64225  1.0000
  S   S667      1.0  0.01424  0.88799  0.63690  1.0000
  C   C1839     1.0  0.11162  0.86588  0.60243  1.0000
  C   C1840     1.0  0.10862  0.86382  0.61525  1.0000
  C   C1841     1.0  0.10845  0.87302  0.62120  1.0000
  C   C1842     1.0  0.11116  0.88437  0.61439  1.0000
  C   C1843     1.0  0.11359  0.88664  0.60159  1.0000
  C   C1844     1.0  0.11385  0.87741  0.59564  1.0000
  H   H1875     1.0  0.10700  0.85497  0.62060  1.0000
  H   H1876     1.0  0.10654  0.87118  0.63111  1.0000
  H   H1877     1.0  0.37412  0.59674  0.63473  1.0000
  H   H1878     1.0  0.31406  0.65051  0.59756  1.0000
  C   C1845     1.0  0.03687  0.92282  0.60996  1.0000
  C   C1846     1.0  0.04330  0.91683  0.60040  1.0000
  N   N153      1.0  0.30686  0.63751  0.59314  1.0000
  C   C1847     1.0  0.06058  0.92638  0.59740  1.0000
  C   C1848     1.0  0.05417  0.93239  0.60698  1.0000
  C   C1849     1.0  0.04219  0.93085  0.61304  1.0000
  H   H1879     1.0  0.11576  0.95529  0.64286  1.0000
  C   C1850     1.0  0.17621  0.97921  0.60096  1.0000
  H   H1880     1.0  0.05834  0.93845  0.60949  1.0000
  H   H1881     1.0  0.03712  0.93570  0.62025  1.0000
  C   C1851     1.0  0.05354  0.85792  0.59527  1.0000
  C   C1852     1.0  0.04596  0.84981  0.60233  1.0000
  C   C1853     1.0  0.05106  0.83817  0.60859  1.0000
  C   C1854     1.0  0.06374  0.83477  0.60790  1.0000
  C   C1855     1.0  0.07135  0.84269  0.60041  1.0000
  C   C1856     1.0  0.06629  0.85413  0.59386  1.0000
  H   H1882     1.0  0.03610  0.85260  0.60315  1.0000
  H   H1883     1.0  0.04513  0.83204  0.61429  1.0000
  H   H1884     1.0  0.08112  0.84021  0.59985  1.0000
  C   C1857     1.0  0.09477  0.68903  0.58905  1.0000
  C   C1858     1.0  0.05784  0.87799  0.67521  1.0000
  C   C1859     1.0  0.04621  0.88286  0.67223  1.0000
  C   C1860     1.0  0.04315  0.87957  0.66273  1.0000
  C   C1861     1.0  0.05162  0.87117  0.65626  1.0000
  C   C1862     1.0  0.06332  0.86642  0.65911  1.0000
  C   C1863     1.0  0.06646  0.86986  0.66848  1.0000
  H   H1885     1.0  0.03950  0.88917  0.67738  1.0000
  H   H1886     1.0  0.03409  0.88324  0.66069  1.0000
  H   H1887     1.0  0.07001  0.86002  0.65406  1.0000
  H   H1888     1.0  0.07546  0.86609  0.67063  1.0000
  C   C1864     1.0  0.09654  0.92192  0.67147  1.0000
  C   C1865     1.0  0.09755  0.91717  0.66127  1.0000
  C   C1866     1.0  0.09209  0.92443  0.65157  1.0000
  C   C1867     1.0  0.08532  0.93632  0.65223  1.0000
  C   C1868     1.0  0.08409  0.94100  0.66254  1.0000
  C   C1869     1.0  0.08990  0.93387  0.67208  1.0000
  H   H1889     1.0  0.10278  0.90798  0.66073  1.0000
  H   H1890     1.0  0.09295  0.92071  0.64369  1.0000
  H   H1891     1.0  0.07882  0.95018  0.66307  1.0000
  H   H1892     1.0  0.08905  0.93750  0.68002  1.0000
  C   C1870     1.0  0.11753  0.84347  0.66846  1.0000
  C   C1871     1.0  0.12450  0.83146  0.66961  1.0000
  C   C1872     1.0  0.12266  0.82323  0.66370  1.0000
  C   C1873     1.0  0.11417  0.82697  0.65610  1.0000
  C   C1874     1.0  0.10717  0.83906  0.65476  1.0000
  C   C1875     1.0  0.10873  0.84728  0.66109  1.0000
  H   H1893     1.0  0.13141  0.82847  0.67512  1.0000
  H   H1894     1.0  0.12802  0.81391  0.66487  1.0000
  H   H1895     1.0  0.10050  0.84201  0.64898  1.0000
  H   H1896     1.0  0.10344  0.85662  0.65997  1.0000
  C   C1876     1.0  0.12123  0.88607  0.74612  1.0000
  C   C1877     1.0  0.11303  0.87885  0.75387  1.0000
  C   C1878     1.0  0.10610  0.87373  0.74889  1.0000
  C   C1879     1.0  0.10719  0.87584  0.73613  1.0000
  C   C1880     1.0  0.11563  0.88277  0.72838  1.0000
  C   C1881     1.0  0.12262  0.88778  0.73334  1.0000
  H   H1897     1.0  0.11182  0.87743  0.76371  1.0000
  H   H1898     1.0  0.09966  0.86834  0.75501  1.0000
  H   H1899     1.0  0.11665  0.88446  0.71855  1.0000
  H   H1900     1.0  0.12898  0.89325  0.72722  1.0000
  H   H1901     1.0  0.13790  0.87546  0.61575  1.0000
  C   C1882     1.0  0.12393  0.76943  0.59292  1.0000
  H   H1902     1.0  0.06621  0.81143  0.59629  1.0000
  Fe  Fe338     1.0  0.13293  0.89357  0.77044  1.0000
  C   C1883     1.0  0.34004  0.55877  0.69098  1.0000
  S   S668      1.0  0.09404  0.60822  0.58564  1.0000
  C   C1884     1.0  0.13332  0.60637  0.58856  1.0000
  C   C1885     1.0  0.07280  0.68058  0.59822  1.0000
  H   H1903     1.0  0.36644  0.55303  0.60022  1.0000
  C   C1886     1.0  0.12661  0.96507  0.59746  1.0000
  H   H1904     1.0  0.03918  0.91080  0.59779  1.0000
  C   C1887     1.0  0.38512  0.54522  0.59259  1.0000
  C   C1888     1.0  0.36188  0.61626  0.70270  1.0000
  C   C1889     1.0  0.37453  0.61242  0.69843  1.0000
  C   C1890     1.0  0.38300  0.61321  0.70489  1.0000
  C   C1891     1.0  0.37897  0.61775  0.71576  1.0000
  C   C1892     1.0  0.36631  0.62116  0.72027  1.0000
  C   C1893     1.0  0.35786  0.62045  0.71377  1.0000
  H   H1905     1.0  0.37781  0.60923  0.68992  1.0000
  H   H1906     1.0  0.39276  0.61055  0.70127  1.0000
  H   H1907     1.0  0.36301  0.62475  0.72855  1.0000
  H   H1908     1.0  0.34810  0.62347  0.71717  1.0000
  C   C1894     1.0  0.35216  0.61873  0.61985  1.0000
  C   C1895     1.0  0.34068  0.61550  0.62406  1.0000
  C   C1896     1.0  0.33484  0.61332  0.61592  1.0000
  C   C1897     1.0  0.36360  0.67983  0.77258  1.0000
  C   C1898     1.0  0.13505  0.84151  0.62596  1.0000
  C   C1899     1.0  0.35771  0.61988  0.60734  1.0000
  H   H1909     1.0  0.33612  0.61501  0.63357  1.0000
  H   H1910     1.0  0.32588  0.61100  0.61933  1.0000
  C   C1900     1.0  0.28570  0.63639  0.59657  1.0000
  H   H1911     1.0  0.36654  0.62252  0.60398  1.0000
  S   S669      1.0  0.14435  0.64083  0.58632  1.0000
  H   H1912     1.0  0.17632  0.65708  0.60419  1.0000
  H   H1913     1.0  0.36753  0.59686  0.73675  1.0000
  C   C1901     1.0  0.29198  0.61605  0.63879  1.0000
  C   C1902     1.0  0.28819  0.60648  0.64820  1.0000
  C   C1903     1.0  0.29466  0.60115  0.65770  1.0000
  C   C1904     1.0  0.30503  0.60527  0.65780  1.0000
  C   C1905     1.0  0.30893  0.61470  0.64828  1.0000
  C   C1906     1.0  0.30237  0.62013  0.63886  1.0000
  H   H1914     1.0  0.28010  0.60337  0.64832  1.0000
  H   H1915     1.0  0.29152  0.59395  0.66509  1.0000
  H   H1916     1.0  0.31680  0.61804  0.64837  1.0000
  H   H1917     1.0  0.30534  0.62757  0.63166  1.0000
  C   C1907     1.0  0.22079  0.61335  0.61291  1.0000
  C   C1908     1.0  0.22734  0.61439  0.60075  1.0000
  C   C1909     1.0  0.22103  0.61758  0.59115  1.0000
  C   C1910     1.0  0.20814  0.61980  0.59361  1.0000
  C   C1911     1.0  0.20158  0.61835  0.60578  1.0000
  C   C1912     1.0  0.20791  0.61513  0.61540  1.0000
  H   H1918     1.0  0.23726  0.61305  0.59872  1.0000
  C   C1913     1.0  0.29252  0.54683  0.59449  1.0000
  H   H1919     1.0  0.19166  0.61996  0.60778  1.0000
  H   H1920     1.0  0.20280  0.61431  0.62479  1.0000
  C   C1914     1.0  0.31453  0.54729  0.60787  1.0000
  C   C1915     1.0  0.30951  0.54138  0.61965  1.0000
  C   C1916     1.0  0.29898  0.54750  0.62668  1.0000
  C   C1917     1.0  0.29342  0.55956  0.62199  1.0000
  C   C1918     1.0  0.29860  0.56559  0.61028  1.0000
  C   C1919     1.0  0.30915  0.55946  0.60322  1.0000
  H   H1921     1.0  0.31346  0.53194  0.62323  1.0000
  H   H1922     1.0  0.29500  0.54277  0.63571  1.0000
  H   H1923     1.0  0.29428  0.57482  0.60647  1.0000
  C   C1920     1.0  0.28181  0.54997  0.60317  1.0000
  N   N154      1.0  0.01237  0.61162  0.64392  1.0000
  H   H1924     1.0  0.08117  0.81522  0.59093  1.0000
  C   C1921     1.0  0.34518  0.54810  0.65216  1.0000
  C   C1922     1.0  0.33941  0.55874  0.65671  1.0000
  C   C1923     1.0  0.34624  0.56490  0.66043  1.0000
  C   C1924     1.0  0.35889  0.56049  0.65959  1.0000
  C   C1925     1.0  0.36473  0.55002  0.65472  1.0000
  C   C1926     1.0  0.35789  0.54387  0.65092  1.0000
  H   H1925     1.0  0.32958  0.56204  0.65771  1.0000
  H   H1926     1.0  0.34157  0.57277  0.66445  1.0000
  H   H1927     1.0  0.37453  0.54660  0.65398  1.0000
  H   H1928     1.0  0.36240  0.53564  0.64741  1.0000
  S   S670      1.0  0.00779  0.59212  0.61142  1.0000
  H   H1929     1.0  0.03015  0.60130  0.63730  1.0000
  C   C1927     1.0  0.09929  0.96676  0.62145  1.0000
  C   C1928     1.0  0.27813  0.57035  0.59053  1.0000
  H   H1930     1.0  0.07625  0.69665  0.61859  1.0000
  C   C1929     1.0  0.31873  0.56988  0.69062  1.0000
  C   C1930     1.0  0.34977  0.54878  0.68904  1.0000
  H   H1931     1.0  0.35551  0.53164  0.68302  1.0000
  H   H1932     1.0  0.26655  0.56450  0.60808  1.0000
  C   C1931     1.0  0.10659  0.69753  0.61095  1.0000
  H   H1933     1.0  0.39050  0.59392  0.73252  1.0000
  C   C1932     1.0  0.05502  0.91878  0.59401  1.0000
  H   H1934     1.0  0.00330  0.93409  0.60488  1.0000
  H   H1935     1.0  0.13711  0.87570  0.63671  1.0000
  C   C1933     1.0  0.11191  0.61727  0.59037  1.0000
  H   H1936     1.0  0.10868  0.66051  0.63183  1.0000
  H   H1937     1.0  0.11275  0.70391  0.60698  1.0000
  H   H1938     1.0  0.10627  0.94812  0.63833  1.0000
  N   N155      1.0  0.10399  0.91452  0.73208  1.0000
  C   C1934     1.0  0.31495  0.59044  0.61667  1.0000
  C   C1935     1.0  0.13395  0.98373  0.59556  1.0000
  N   N156      1.0  0.32879  0.55922  0.68889  1.0000
  H   H1939     1.0  0.11192  0.93002  0.72894  1.0000
  C   C1936     1.0  0.00298  0.92803  0.59900  1.0000
  C   C1937     1.0  0.14034  0.68611  0.59162  1.0000
  C   C1938     1.0  0.08711  0.90306  0.72880  1.0000
  H   H1940     1.0  0.11854  0.66122  0.61673  1.0000
  C   C1939     1.0  0.35190  0.61760  0.59916  1.0000
  Fe  Fe339     1.0  0.07954  0.62487  0.58953  1.0000
  H   H1941     1.0  0.31753  0.63494  0.60626  1.0000
  H   H1942     1.0  0.36946  0.58148  0.76794  1.0000
  C   C1940     1.0  0.14308  0.67333  0.59603  1.0000
  N   N157      1.0  0.13487  0.86049  0.63089  1.0000
  C   C1941     1.0  0.13904  0.85904  0.60980  1.0000
  C   C1942     1.0  0.20187  0.88643  0.78106  1.0000
  H   H1943     1.0  0.11446  0.97771  0.63576  1.0000
  H   H1944     1.0  0.37414  0.66202  0.71676  1.0000
  H   H1945     1.0  0.37868  0.58034  0.63989  1.0000
  C   C1943     1.0  0.21815  0.64290  0.60831  1.0000
  H   H1946     1.0  0.31305  0.56411  0.59413  1.0000
  H   H1947     1.0  0.16270  0.96898  0.59384  1.0000
  C   C1944     1.0  0.36823  0.58940  0.60318  1.0000
  C   C1945     1.0  0.10272  0.91517  0.72049  1.0000
  H   H1948     1.0  0.35233  0.65500  0.71445  1.0000
  H   H1949     1.0  0.38436  0.64713  0.71904  1.0000
  S   S671      1.0  0.08438  0.65718  0.60712  1.0000
  C   C1946     1.0  0.11135  0.68493  0.61430  1.0000
  H   H1950     1.0  0.32220  0.57813  0.69016  1.0000
  N   N158      1.0  0.10370  0.67678  0.61884  1.0000
  H   H1951     1.0  0.08802  0.80040  0.60840  1.0000
  C   C1947     1.0  0.29509  0.63951  0.59985  1.0000
  N   N159      1.0  0.11871  0.84425  0.71878  1.0000
  C   C1948     1.0  0.12315  0.84913  0.72583  1.0000
  C   C1949     1.0  0.12395  0.84502  0.70659  1.0000
  C   C1950     1.0  0.13311  0.85494  0.72070  1.0000
  C   C1951     1.0  0.13403  0.85063  0.70119  1.0000
  C   C1952     1.0  0.13858  0.85567  0.70830  1.0000
  C   C1953     1.0  0.10781  0.83886  0.72422  1.0000
  H   H1952     1.0  0.11870  0.84893  0.73539  1.0000
  H   H1953     1.0  0.12024  0.84149  0.70088  1.0000
  H   H1954     1.0  0.13634  0.85910  0.72628  1.0000
  H   H1955     1.0  0.13801  0.85137  0.69146  1.0000
  H   H1956     1.0  0.14618  0.86033  0.70416  1.0000
  H   H1957     1.0  0.09940  0.84630  0.72467  1.0000
  H   H1958     1.0  0.10704  0.83262  0.71878  1.0000
  H   H1959     1.0  0.10817  0.83346  0.73368  1.0000
  C   C1954     1.0  0.21319  0.64614  0.59786  1.0000
  C   C1955     1.0  0.09122  0.68091  0.62083  1.0000
  S   S672      1.0  0.04709  0.87338  0.59018  1.0000
  H   H1960     1.0  0.13826  0.84172  0.60667  1.0000
  H   H1961     1.0  0.36865  0.64873  0.72684  1.0000
  Fe  Fe340     1.0  0.15577  0.62175  0.58753  1.0000
  N   N160      1.0  0.08109  0.79609  0.59512  1.0000
  C   C1956     1.0  0.01598  0.59146  0.63991  1.0000
  H   H1962     1.0  0.40952  0.58082  0.73869  1.0000
  C   C1957     1.0  0.11320  0.78910  0.58328  1.0000
  N   N161      1.0  0.07986  0.89118  0.59501  1.0000
  H   H1963     1.0  0.19049  0.88423  0.76126  1.0000
  N   N162      1.0  0.31290  0.57264  0.63294  1.0000
  C   C1958     1.0  0.32124  0.56532  0.62562  1.0000
  C   C1959     1.0  0.30968  0.58502  0.62858  1.0000
  C   C1960     1.0  0.32666  0.57043  0.61362  1.0000
  C   C1961     1.0  0.32344  0.58307  0.60914  1.0000
  C   C1962     1.0  0.30682  0.56717  0.64528  1.0000
  H   H1964     1.0  0.32356  0.55544  0.62896  1.0000
  H   H1965     1.0  0.33301  0.56456  0.60775  1.0000
  H   H1966     1.0  0.30586  0.57302  0.65183  1.0000
  H   H1967     1.0  0.29752  0.56627  0.64509  1.0000
  H   H1968     1.0  0.31213  0.55790  0.64875  1.0000
  H   H1969     1.0  0.35928  0.59428  0.75244  1.0000
  N   N163      1.0  0.00934  0.62696  0.58403  1.0000
  N   N164      1.0  0.10531  0.96717  0.62997  1.0000
  H   H1970     1.0  0.11620  0.87906  0.58573  1.0000
  H   H1971     1.0  0.12119  0.68169  0.61306  1.0000
  H   H1972     1.0  0.11286  0.91962  0.74349  1.0000
  H   H1973     1.0  0.36278  0.64184  0.68107  1.0000
  S   S673      1.0  0.33255  0.61179  0.59357  1.0000
  H   H1974     1.0  0.35623  0.61855  0.58954  1.0000
  H   H1975     1.0  0.09007  0.71148  0.60950  1.0000
  H   H1976     1.0  0.08515  0.67443  0.62432  1.0000
  C   C1963     1.0  0.37856  0.58798  0.63165  1.0000
  H   H1977     1.0  0.35928  0.57746  0.63807  1.0000
  H   H1978     1.0  0.07200  0.87368  0.62866  1.0000
  H   H1979     1.0  0.34693  0.57534  0.62469  1.0000
  H   H1980     1.0  0.12262  0.91527  0.72986  1.0000
  C   C1964     1.0  0.36785  0.59680  0.74628  1.0000
  H   H1981     1.0  0.36797  0.60621  0.74685  1.0000
  H   H1982     1.0  0.01667  0.62225  0.65395  1.0000
  H   H1983     1.0  0.17455  0.90306  0.77531  1.0000
  C   C1965     1.0  0.00338  0.59179  0.64331  1.0000
  H   H1984     1.0  0.09621  0.76233  0.60696  1.0000
  C   C1966     1.0  0.08035  0.88830  0.61622  1.0000
  C   C1967     1.0  0.07415  0.87868  0.61924  1.0000
  H   H1985     1.0  0.35885  0.54880  0.69004  1.0000
  H   H1986     1.0  0.08326  0.89078  0.62322  1.0000
  Fe  Fe341     1.0  0.00915  0.87912  0.62410  1.0000
  H   H1987     1.0  0.07224  0.86020  0.58818  1.0000
  H   H1988     1.0  0.11579  0.89532  0.59624  1.0000
  H   H1989     1.0  0.34654  0.65020  0.69740  1.0000
  C   C1968     1.0  0.09424  0.90949  0.71868  1.0000
  H   H1990     1.0  0.08082  0.89824  0.72750  1.0000
  C   C1969     1.0  0.13081  0.96002  0.60838  1.0000
  C   C1970     1.0  0.08612  0.69346  0.61764  1.0000
  C   C1971     1.0  0.38993  0.58806  0.74163  1.0000
  C   C1972     1.0  0.09699  0.90825  0.74206  1.0000
  S   S674      1.0  0.12545  0.90960  0.78001  1.0000
  C   C1973     1.0  0.99769  0.63404  0.58565  1.0000
  C   C1974     1.0  0.35483  0.57958  0.62072  1.0000
  H   H1991     1.0  0.35256  0.58330  0.60212  1.0000
  H   H1992     1.0  0.13377  0.83210  0.62897  1.0000
  C   C1975     1.0  0.07553  0.80894  0.59054  1.0000
  H   H1993     1.0  0.17715  0.64102  0.61128  1.0000
  C   C1976     1.0  0.36185  0.58080  0.62828  1.0000
  S   S675      1.0  0.14655  0.98619  0.61192  1.0000
  N   N165      1.0  0.06224  0.83042  0.65024  1.0000
  C   C1977     1.0  0.06150  0.83630  0.65929  1.0000
  C   C1978     1.0  0.07191  0.82093  0.64786  1.0000
  C   C1979     1.0  0.07074  0.83291  0.66602  1.0000
  C   C1980     1.0  0.08121  0.81718  0.65452  1.0000
  C   C1981     1.0  0.08070  0.82332  0.66355  1.0000
  C   C1982     1.0  0.05310  0.83480  0.64251  1.0000
  H   H1994     1.0  0.05381  0.84376  0.66128  1.0000
  H   H1995     1.0  0.07254  0.81623  0.64072  1.0000
  H   H1996     1.0  0.07025  0.83781  0.67299  1.0000
  H   H1997     1.0  0.08892  0.80971  0.65253  1.0000
  H   H1998     1.0  0.08808  0.82070  0.66851  1.0000
  H   H1999     1.0  0.04418  0.83964  0.64733  1.0000
  H   H2000     1.0  0.05652  0.84135  0.63408  1.0000
  H   H2001     1.0  0.05132  0.82708  0.63970  1.0000
  H   H2002     1.0  0.19164  0.64331  0.62987  1.0000
  H   H2003     1.0  0.09340  0.90988  0.70947  1.0000
  H   H2004     1.0  0.19275  0.87160  0.77424  1.0000
  H   H2005     1.0  0.12949  0.76403  0.59947  1.0000
  C   C1983     1.0  0.35803  0.58397  0.60809  1.0000
  H   H2006     1.0  0.09832  0.90731  0.75123  1.0000
  C   C1984     1.0  0.37451  0.55451  0.59327  1.0000
  H   H2007     1.0  0.99619  0.64352  0.58635  1.0000
  C   C1985     1.0  0.13374  0.84849  0.63457  1.0000
  C   C1986     1.0  0.40014  0.57348  0.75693  1.0000
  H   H2008     1.0  0.34169  0.56632  0.69377  1.0000
  N   N166      1.0  0.05699  0.90888  0.64220  1.0000
  C   C1987     1.0  0.06420  0.90060  0.64964  1.0000
  C   C1988     1.0  0.05424  0.92109  0.64246  1.0000
  C   C1989     1.0  0.06825  0.90435  0.65811  1.0000
  C   C1990     1.0  0.05826  0.92518  0.65073  1.0000
  C   C1991     1.0  0.06514  0.91670  0.65874  1.0000
  C   C1992     1.0  0.05240  0.90477  0.63366  1.0000
  H   H2009     1.0  0.06668  0.89099  0.64922  1.0000
  H   H2010     1.0  0.04888  0.92773  0.63629  1.0000
  H   H2011     1.0  0.07365  0.89770  0.66427  1.0000
  H   H2012     1.0  0.05615  0.93488  0.65089  1.0000
  H   H2013     1.0  0.06820  0.91970  0.66532  1.0000
  H   H2014     1.0  0.05306  0.89467  0.63605  1.0000
  H   H2015     1.0  0.04250  0.90906  0.63399  1.0000
  H   H2016     1.0  0.05766  0.90739  0.62415  1.0000
  H   H2017     1.0  0.04397  0.60983  0.60455  1.0000
  C   C1993     1.0  0.13752  0.86579  0.61868  1.0000
  H   H2018     1.0  0.10841  0.91991  0.71253  1.0000
  C   C1994     1.0  0.13221  0.86796  0.64009  1.0000
  H   H2019     1.0  0.38478  0.63855  0.68181  1.0000
  H   H2020     1.0  0.14029  0.96252  0.62098  1.0000
  C   C1995     1.0  0.31648  0.64068  0.59706  1.0000
  H   H2021     1.0  0.09575  0.95874  0.62224  1.0000
  N   N167      1.0  0.37886  0.58825  0.74978  1.0000
  Fe  Fe342     1.0  0.17986  0.62990  0.58389  1.0000
  C   C1996     1.0  0.33631  0.53953  0.68332  1.0000
  C   C1997     1.0  0.13681  0.96666  0.61268  1.0000
  H   H2022     1.0  0.28126  0.62833  0.58397  1.0000
  H   H2023     1.0  0.31239  0.56780  0.69963  1.0000
  C   C1998     1.0  0.21034  0.64199  0.61987  1.0000
  C   C1999     1.0  0.09250  0.78103  0.60905  1.0000
  H   H2024     1.0  0.14062  0.86340  0.60013  1.0000
  H   H2025     1.0  0.31788  0.55003  0.68366  1.0000
  C   C2000     1.0  0.20043  0.64843  0.59915  1.0000
  S   S676      1.0  0.05602  0.65483  0.59463  1.0000
  C   C2001     1.0  0.34045  0.61429  0.60347  1.0000
  C   C2002     1.0  0.08352  0.69738  0.58873  1.0000
  C   C2003     1.0  0.34790  0.53917  0.68508  1.0000
  C   C2004     1.0  0.40073  0.58068  0.74508  1.0000
  C   C2005     1.0  0.10245  0.98692  0.61028  1.0000
  H   H2026     1.0  0.01787  0.63824  0.58955  1.0000
  H   H2027     1.0  0.21418  0.63888  0.62804  1.0000
  C   C2006     1.0  0.08844  0.90246  0.74058  1.0000
  C   C2007     1.0  0.18796  0.88128  0.77138  1.0000
  C   C2008     1.0  0.19762  0.64440  0.62083  1.0000
  H   H2028     1.0  0.31350  0.57252  0.68319  1.0000
  C   C2009     1.0  0.10887  0.66356  0.62185  1.0000
  C   C2010     1.0  0.08317  0.89446  0.60397  1.0000
  C   C2011     1.0  0.12413  0.61671  0.59086  1.0000
  C   C2012     1.0  0.27464  0.56184  0.60120  1.0000
  C   C2013     1.0  0.37492  0.59064  0.61107  1.0000
  C   C2014     1.0  0.09503  0.67652  0.59409  1.0000
  N   N168      1.0  0.19282  0.64770  0.61052  1.0000
  C   C2015     1.0  0.37010  0.66770  0.77322  1.0000
  C   C2016     1.0  0.38880  0.57363  0.76512  1.0000
  N   N169      1.0  0.37161  0.64941  0.70773  1.0000
  C   C2017     1.0  0.38065  0.64508  0.69859  1.0000
  C   C2018     1.0  0.35949  0.65159  0.70720  1.0000
  C   C2019     1.0  0.37763  0.64247  0.68877  1.0000
  C   C2020     1.0  0.35615  0.64902  0.69754  1.0000
  C   C2021     1.0  0.36529  0.64437  0.68832  1.0000
  C   C2022     1.0  0.37485  0.65200  0.71806  1.0000
  H   H2029     1.0  0.39025  0.64314  0.69911  1.0000
  H   H2030     1.0  0.20809  0.87766  0.78025  1.0000
  H   H2031     1.0  0.36615  0.57283  0.58548  1.0000
  H   H2032     1.0  0.18834  0.58064  0.61185  1.0000
  C   C2023     1.0  0.07993  0.78701  0.59024  1.0000
  C   C2024     1.0  0.99999  0.61196  0.64740  1.0000
  C   C2025     1.0  0.18311  0.90052  0.77846  1.0000
  H   H2033     1.0  0.32558  0.63895  0.59070  1.0000
  S   S677      1.0  0.15429  0.92308  0.78081  1.0000
  H   H2034     1.0  0.27645  0.63783  0.60212  1.0000
  H   H2035     1.0  0.01241  0.92247  0.59655  1.0000
  H   H2036     1.0  0.16941  0.58722  0.59655  1.0000
  C   C2026     1.0  0.41275  0.66563  0.78174  1.0000
  S   S678      1.0  0.36280  0.60344  0.77928  1.0000
  H   H2037     1.0  0.29827  0.53771  0.59631  1.0000
  C   C2027     1.0  0.09787  0.97656  0.61143  1.0000
  C   C2028     1.0  0.10895  0.60761  0.58731  1.0000
  H   H2038     1.0  0.29851  0.60021  0.58738  1.0000
  H   H2039     1.0  0.17796  0.88129  0.77416  1.0000
  H   H2040     1.0  0.19668  0.65036  0.59102  1.0000
  H   H2041     1.0  0.08483  0.76761  0.59021  1.0000
  C   C2029     1.0  0.12026  0.78224  0.59191  1.0000
  S   S679      1.0  0.14867  0.60486  0.58950  1.0000
  C   C2030     1.0  0.00130  0.60980  0.58400  1.0000
  C   C2031     1.0  0.02036  0.60150  0.64030  1.0000
  H   H2042     1.0  0.10481  0.62516  0.59236  1.0000
  S   S680      1.0  0.13849  0.70996  0.59308  1.0000
  H   H2043     1.0  0.00024  0.93407  0.59052  1.0000
  C   C2032     1.0  0.19641  0.59622  0.58684  1.0000
  H   H2044     1.0  0.14245  0.66723  0.59069  1.0000
  N   N170      1.0  0.19099  0.88953  0.77725  1.0000
  C   C2033     1.0  0.16684  0.97556  0.58587  1.0000
  C   C2034     1.0  0.37431  0.56576  0.58483  1.0000
  C   C2035     1.0  0.28843  0.63102  0.58646  1.0000
  N   N171      1.0  0.17347  0.98269  0.58957  1.0000
  C   C2036     1.0  0.12035  0.76350  0.58566  1.0000
  C   C2037     1.0  0.01705  0.62210  0.64431  1.0000
  H   H2045     1.0  0.06382  0.69952  0.59296  1.0000
  C   C2038     1.0  0.99530  0.60208  0.64711  1.0000
  H   H2046     1.0  0.38824  0.56822  0.77443  1.0000
  H   H2047     1.0  0.08821  0.90178  0.60164  1.0000
  C   C2039     1.0  0.17741  0.59029  0.59031  1.0000
  H   H2048     1.0  0.13726  0.58866  0.58397  1.0000
  H   H2049     1.0  0.43972  0.60453  0.78151  1.0000
  H   H2050     1.0  0.12310  0.75363  0.58671  1.0000
  C   C2040     1.0  0.08518  0.77471  0.59455  1.0000
  S   S681      1.0  0.07545  0.92830  0.58938  1.0000
  H   H2051     1.0  0.02823  0.62533  0.58427  1.0000
  C   C2041     1.0  0.18261  0.98594  0.60449  1.0000
  H   H2052     1.0  0.01154  0.63087  0.63999  1.0000
  C   C2042     1.0  0.13025  0.59670  0.58569  1.0000
  H   H2053     1.0  0.02671  0.62175  0.63906  1.0000
  S   S682      1.0  0.08283  0.71322  0.58320  1.0000
  S   S683      1.0  0.06154  0.62986  0.58345  1.0000
  C   C2043     1.0  0.30961  0.63242  0.58307  1.0000
  C   C2044     1.0  0.39570  0.54744  0.58377  1.0000
  C   C2045     1.0  0.01123  0.61500  0.58312  1.0000
  H   H2054     1.0  0.35370  0.64933  0.78078  1.0000
  H   H2055     1.0  0.35654  0.69505  0.78156  1.0000
  C   C2046     1.0  0.36165  0.68564  0.78227  1.0000
  H   H2056     1.0  0.40667  0.63254  0.78248  1.0000
  H   H2057     1.0  0.13779  0.68980  0.58283  1.0000
  Fe  Fe343     1.0  0.36977  0.75810  0.88563  1.0000
  S   S684      1.0  0.36217  0.77405  0.87184  1.0000
  S   S685      1.0  0.37636  0.73831  0.88275  1.0000
  Fe  Fe344     1.0  0.36558  0.77472  0.90424  1.0000
  S   S686      1.0  0.35731  0.79158  0.89191  1.0000
  S   S687      1.0  0.36697  0.77440  0.92349  1.0000
  Fe  Fe345     1.0  0.34766  0.77913  0.88794  1.0000
  S   S688      1.0  0.32792  0.78393  0.88670  1.0000
  Fe  Fe346     1.0  0.37273  0.78481  0.87721  1.0000
  S   S689      1.0  0.38276  0.79856  0.86343  1.0000
  S   S690      1.0  0.35449  0.76264  0.90154  1.0000
  S   S691      1.0  0.38175  0.76851  0.88973  1.0000
  Fe  Fe347     1.0  0.35772  0.83192  0.95677  1.0000
  S   S692      1.0  0.36569  0.84384  0.93943  1.0000
  S   S693      1.0  0.35516  0.81284  0.95766  1.0000
  Fe  Fe348     1.0  0.35355  0.85147  0.97225  1.0000
  S   S694      1.0  0.36075  0.86501  0.95570  1.0000
  H   H2058     1.0  0.40921  0.63915  0.86942  1.0000
  Fe  Fe349     1.0  0.35024  0.85882  0.94552  1.0000
  S   S695      1.0  0.33992  0.87170  0.93146  1.0000
  Fe  Fe350     1.0  0.37546  0.84881  0.95108  1.0000
  S   S696      1.0  0.39528  0.84940  0.94299  1.0000
  S   S697      1.0  0.34154  0.84667  0.96238  1.0000
  S   S698      1.0  0.36902  0.83544  0.96817  1.0000
  Fe  Fe351     1.0  0.31859  0.84894  0.85745  1.0000
  S   S699      1.0  0.31137  0.86841  0.84905  1.0000
  S   S700      1.0  0.32022  0.83390  0.84808  1.0000
  Fe  Fe352     1.0  0.31958  0.85490  0.88095  1.0000
  S   S701      1.0  0.31180  0.87506  0.87489  1.0000
  S   S702      1.0  0.32646  0.84419  0.89800  1.0000
  Fe  Fe353     1.0  0.29880  0.86893  0.86739  1.0000
  S   S703      1.0  0.27834  0.87673  0.86913  1.0000
  Fe  Fe354     1.0  0.32494  0.87275  0.85705  1.0000
  S   S704      1.0  0.33543  0.88689  0.84505  1.0000
  S   S705      1.0  0.30523  0.84901  0.87538  1.0000
  S   S706      1.0  0.33358  0.85311  0.86350  1.0000
  Fe  Fe355     1.0  0.40736  0.84690  0.87679  1.0000
  S   S707      1.0  0.41648  0.85049  0.85683  1.0000
  S   S708      1.0  0.40223  0.82942  0.88896  1.0000
  Fe  Fe356     1.0  0.40455  0.87307  0.87862  1.0000
  S   S709      1.0  0.41305  0.87920  0.85884  1.0000
  S   S710      1.0  0.39644  0.88570  0.89169  1.0000
  Fe  Fe357     1.0  0.40185  0.86773  0.85548  1.0000
  S   S711      1.0  0.39330  0.87444  0.83898  1.0000
  Fe  Fe358     1.0  0.42700  0.86164  0.86179  1.0000
  S   S712      1.0  0.44725  0.86035  0.85308  1.0000
  S   S713      1.0  0.39194  0.86335  0.87500  1.0000
  S   S714      1.0  0.41934  0.85626  0.88198  1.0000
  Fe  Fe359     1.0  0.12870  0.96867  0.82562  1.0000
  S   S715      1.0  0.14425  0.97876  0.81919  1.0000
  S   S716      1.0  0.12141  0.95779  0.81673  1.0000
  Fe  Fe360     1.0  0.12095  0.97565  0.85054  1.0000
  C   C2047     1.0  0.38698  0.57112  0.79988  1.0000
  S   S717      1.0  0.10649  0.97531  0.86790  1.0000
  Fe  Fe361     1.0  0.14779  0.97031  0.83819  1.0000
  S   S718      1.0  0.16562  0.96055  0.84389  1.0000
  C   C2048     1.0  0.37554  0.51971  0.83140  1.0000
  S   S719      1.0  0.13326  0.95920  0.84388  1.0000
  Fe  Fe362     1.0  0.23303  0.88798  0.82654  1.0000
  S   S720      1.0  0.22513  0.87115  0.83517  1.0000
  S   S721      1.0  0.25358  0.88617  0.82370  1.0000
  Fe  Fe363     1.0  0.20812  0.90391  0.82245  1.0000
  S   S722      1.0  0.19823  0.88848  0.83122  1.0000
  S   S723      1.0  0.19648  0.92075  0.81301  1.0000
  Fe  Fe364     1.0  0.20998  0.88384  0.84504  1.0000
  S   S724      1.0  0.20199  0.87723  0.86478  1.0000
  Fe  Fe365     1.0  0.21417  0.87741  0.82045  1.0000
  C   C2049     1.0  0.16229  0.88460  0.85393  1.0000
  S   S725      1.0  0.21844  0.90045  0.83744  1.0000
  S   S726      1.0  0.22355  0.89303  0.81067  1.0000
  Fe  Fe366     1.0  0.12487  0.89524  0.79755  1.0000
  S   S727      1.0  0.14371  0.89486  0.79941  1.0000
  S   S728      1.0  0.11074  0.89842  0.81464  1.0000
  H   H2059     1.0  0.35764  0.58071  0.79536  1.0000
  H   H2060     1.0  0.38620  0.70592  0.84264  1.0000
  Fe  Fe367     1.0  0.12632  0.88638  0.87778  1.0000
  S   S729      1.0  0.12531  0.90648  0.87106  1.0000
  S   S730      1.0  0.12919  0.87467  0.86409  1.0000
  Fe  Fe368     1.0  0.12349  0.88776  0.90450  1.0000
  S   S731      1.0  0.12223  0.90820  0.89973  1.0000
  S   S732      1.0  0.11973  0.87732  0.92425  1.0000
  Fe  Fe369     1.0  0.11009  0.90855  0.88743  1.0000
  S   S733      1.0  0.09297  0.92294  0.88549  1.0000
  Fe  Fe370     1.0  0.13756  0.90422  0.88380  1.0000
  S   S734      1.0  0.15226  0.91501  0.87514  1.0000
  S   S735      1.0  0.10997  0.88848  0.89332  1.0000
  S   S736      1.0  0.13998  0.88369  0.88940  1.0000
  S   S737      1.0  0.15271  0.86937  0.96230  1.0000
  H   H2061     1.0  0.41474  0.57963  0.80650  1.0000
  S   S738      1.0  0.33585  0.51333  0.83630  1.0000
  H   H2062     1.0  0.34753  0.81165  0.85071  1.0000
  Fe  Fe371     1.0  0.44761  0.62594  0.81975  1.0000
  S   S739      1.0  0.43753  0.61706  0.83801  1.0000
  Fe  Fe372     1.0  0.47144  0.62179  0.82964  1.0000
  S   S740      1.0  0.46293  0.61213  0.84825  1.0000
  Fe  Fe373     1.0  0.45498  0.60294  0.83827  1.0000
  S   S741      1.0  0.45470  0.58286  0.84487  1.0000
  Fe  Fe374     1.0  0.44639  0.62712  0.84602  1.0000
  S   S742      1.0  0.43645  0.63763  0.86060  1.0000
  S   S743      1.0  0.46493  0.61113  0.81955  1.0000
  S   S744      1.0  0.45506  0.63743  0.82788  1.0000
  Fe  Fe375     1.0  0.37145  0.58762  0.83792  1.0000
  S   S745      1.0  0.39179  0.58087  0.83245  1.0000
  S   S746      1.0  0.36530  0.60809  0.83069  1.0000
  Fe  Fe376     1.0  0.36685  0.56132  0.84980  1.0000
  S   S747      1.0  0.38706  0.55297  0.84567  1.0000
  S   S748      1.0  0.35409  0.54786  0.85975  1.0000
  Fe  Fe377     1.0  0.38991  0.56903  0.85128  1.0000
  S   S749      1.0  0.40321  0.56686  0.86323  1.0000
  Fe  Fe378     1.0  0.38692  0.56567  0.82741  1.0000
  C   C2050     1.0  0.15517  0.84586  0.94416  1.0000
  S   S750      1.0  0.36965  0.57644  0.85726  1.0000
  S   S751      1.0  0.36665  0.57335  0.83105  1.0000
  Fe  Fe379     1.0  0.39089  0.68267  0.83294  1.0000
  S   S752      1.0  0.38032  0.67909  0.85231  1.0000
  S   S753      1.0  0.40958  0.68622  0.83036  1.0000
  Fe  Fe380     1.0  0.36955  0.68342  0.82215  1.0000
  S   S754      1.0  0.35685  0.68082  0.84073  1.0000
  S   S755      1.0  0.36313  0.68783  0.80440  1.0000
  Fe  Fe381     1.0  0.36552  0.69412  0.84518  1.0000
  S   S756      1.0  0.35611  0.71119  0.85332  1.0000
  Fe  Fe382     1.0  0.37295  0.66612  0.84603  1.0000
  S   S757      1.0  0.37162  0.64692  0.85725  1.0000
  S   S758      1.0  0.37654  0.69808  0.82596  1.0000
  S   S759      1.0  0.38520  0.66828  0.82723  1.0000
  H   H2063     1.0  0.39035  0.68585  0.79630  1.0000
  S   S760      1.0  0.47382  0.90377  0.84744  1.0000
  C   C2051     1.0  0.36740  0.61866  0.83811  1.0000
  C   C2052     1.0  0.36742  0.61560  0.85062  1.0000
  C   C2053     1.0  0.36835  0.62444  0.85644  1.0000
  C   C2054     1.0  0.36977  0.63625  0.84975  1.0000
  C   C2055     1.0  0.36983  0.63928  0.83720  1.0000
  C   C2056     1.0  0.36853  0.63056  0.83144  1.0000
  H   H2064     1.0  0.36628  0.60655  0.85589  1.0000
  H   H2065     1.0  0.36768  0.62215  0.86623  1.0000
  H   H2066     1.0  0.37077  0.64838  0.83196  1.0000
  H   H2067     1.0  0.36854  0.63303  0.82176  1.0000
  C   C2057     1.0  0.42887  0.65126  0.85252  1.0000
  C   C2058     1.0  0.43017  0.66264  0.85346  1.0000
  C   C2059     1.0  0.42462  0.67347  0.84628  1.0000
  C   C2060     1.0  0.41737  0.67285  0.83863  1.0000
  C   C2061     1.0  0.41584  0.66148  0.83796  1.0000
  C   C2062     1.0  0.42193  0.65067  0.84457  1.0000
  H   H2068     1.0  0.43575  0.66304  0.85944  1.0000
  H   H2069     1.0  0.42582  0.68226  0.84679  1.0000
  H   H2070     1.0  0.41021  0.66097  0.83210  1.0000
  H   H2071     1.0  0.42111  0.64187  0.84366  1.0000
  C   C2063     1.0  0.44027  0.57864  0.84923  1.0000
  C   C2064     1.0  0.43883  0.56807  0.85832  1.0000
  C   C2065     1.0  0.42749  0.56450  0.86230  1.0000
  C   C2066     1.0  0.41754  0.57117  0.85692  1.0000
  C   C2067     1.0  0.41897  0.58166  0.84758  1.0000
  C   C2068     1.0  0.43030  0.58549  0.84387  1.0000
  H   H2072     1.0  0.44647  0.56272  0.86250  1.0000
  H   H2073     1.0  0.42642  0.55649  0.86959  1.0000
  H   H2074     1.0  0.41125  0.58699  0.84355  1.0000
  H   H2075     1.0  0.43138  0.59366  0.83685  1.0000
  C   C2069     1.0  0.40939  0.70950  0.86100  1.0000
  H   H2076     1.0  0.37634  0.66240  0.80174  1.0000
  C   C2070     1.0  0.37468  0.57091  0.80086  1.0000
  C   C2071     1.0  0.14361  0.94794  0.80273  1.0000
  C   C2072     1.0  0.18688  0.85424  0.79895  1.0000
  H   H2077     1.0  0.35434  0.49635  0.85261  1.0000
  C   C2073     1.0  0.37747  0.52276  0.85053  1.0000
  H   H2078     1.0  0.42906  0.58468  0.80274  1.0000
  H   H2079     1.0  0.39954  0.64223  0.85847  1.0000
  C   C2074     1.0  0.34022  0.52321  0.84312  1.0000
  C   C2075     1.0  0.33898  0.52130  0.85581  1.0000
  C   C2076     1.0  0.34300  0.52910  0.86074  1.0000
  C   C2077     1.0  0.34849  0.53879  0.85307  1.0000
  C   C2078     1.0  0.34958  0.54079  0.84040  1.0000
  C   C2079     1.0  0.34535  0.53313  0.83549  1.0000
  H   H2080     1.0  0.33484  0.51387  0.86184  1.0000
  H   H2081     1.0  0.34196  0.52756  0.87056  1.0000
  H   H2082     1.0  0.35367  0.54825  0.83438  1.0000
  H   H2083     1.0  0.34625  0.53479  0.82567  1.0000
  C   C2080     1.0  0.12835  0.87766  0.93457  1.0000
  C   C2081     1.0  0.12317  0.87543  0.94718  1.0000
  C   C2082     1.0  0.13037  0.87366  0.95580  1.0000
  C   C2083     1.0  0.14284  0.87400  0.95185  1.0000
  C   C2084     1.0  0.14789  0.87684  0.93922  1.0000
  C   C2085     1.0  0.14065  0.87870  0.93059  1.0000
  H   H2084     1.0  0.11363  0.87468  0.95030  1.0000
  H   H2085     1.0  0.12638  0.87153  0.96548  1.0000
  H   H2086     1.0  0.15753  0.87717  0.93610  1.0000
  H   H2087     1.0  0.14473  0.88041  0.92088  1.0000
  C   C2086     1.0  0.11737  0.89237  0.82756  1.0000
  C   C2087     1.0  0.12377  0.88016  0.82977  1.0000
  C   C2088     1.0  0.12758  0.87489  0.84091  1.0000
  C   C2089     1.0  0.12518  0.88185  0.84983  1.0000
  C   C2090     1.0  0.11934  0.89426  0.84732  1.0000
  C   C2091     1.0  0.11545  0.89951  0.83622  1.0000
  H   H2088     1.0  0.12533  0.87462  0.82308  1.0000
  H   H2089     1.0  0.13215  0.86531  0.84274  1.0000
  H   H2090     1.0  0.11725  0.89965  0.85415  1.0000
  H   H2091     1.0  0.11056  0.90897  0.83449  1.0000
  C   C2092     1.0  0.18893  0.88837  0.86872  1.0000
  C   C2093     1.0  0.18690  0.89983  0.86075  1.0000
  C   C2094     1.0  0.17584  0.90829  0.86314  1.0000
  C   C2095     1.0  0.16665  0.90514  0.87331  1.0000
  C   C2096     1.0  0.16877  0.89382  0.88147  1.0000
  C   C2097     1.0  0.17997  0.88545  0.87923  1.0000
  H   H2092     1.0  0.19378  0.90216  0.85263  1.0000
  H   H2093     1.0  0.17428  0.91710  0.85690  1.0000
  H   H2094     1.0  0.16179  0.89150  0.88952  1.0000
  H   H2095     1.0  0.18153  0.87659  0.88541  1.0000
  C   C2098     1.0  0.15488  0.88618  0.84566  1.0000
  H   H2096     1.0  0.15155  0.84163  0.96850  1.0000
  H   H2097     1.0  0.44629  0.61313  0.79565  1.0000
  H   H2098     1.0  0.43003  0.65690  0.78700  1.0000
  H   H2099     1.0  0.16977  0.88217  0.80345  1.0000
  C   C2099     1.0  0.17394  0.94923  0.83553  1.0000
  C   C2100     1.0  0.17120  0.94926  0.82448  1.0000
  C   C2101     1.0  0.17825  0.94052  0.81760  1.0000
  C   C2102     1.0  0.18783  0.93150  0.82191  1.0000
  C   C2103     1.0  0.19030  0.93117  0.83318  1.0000
  C   C2104     1.0  0.18345  0.94013  0.83991  1.0000
  H   H2100     1.0  0.16386  0.95621  0.82106  1.0000
  H   H2101     1.0  0.17626  0.94077  0.80891  1.0000
  H   H2102     1.0  0.19766  0.92421  0.83656  1.0000
  H   H2103     1.0  0.18559  0.94005  0.84848  1.0000
  C   C2105     1.0  0.10271  0.96077  0.87285  1.0000
  C   C2106     1.0  0.09050  0.95969  0.87796  1.0000
  C   C2107     1.0  0.08748  0.94806  0.88172  1.0000
  C   C2108     1.0  0.09671  0.93749  0.88074  1.0000
  C   C2109     1.0  0.10895  0.93857  0.87595  1.0000
  C   C2110     1.0  0.11191  0.95019  0.87182  1.0000
  H   H2104     1.0  0.08335  0.96785  0.87881  1.0000
  H   H2105     1.0  0.07801  0.94726  0.88551  1.0000
  H   H2106     1.0  0.11618  0.93049  0.87538  1.0000
  H   H2107     1.0  0.12138  0.95088  0.86817  1.0000
  C   C2111     1.0  0.13096  0.94836  0.80673  1.0000
  C   C2112     1.0  0.43418  0.90299  0.82874  1.0000
  H   H2108     1.0  0.38765  0.73598  0.84396  1.0000
  H   H2109     1.0  0.15266  0.87989  0.83061  1.0000
  S   S761      1.0  0.13078  0.87925  0.78810  1.0000
  H   H2110     1.0  0.21343  0.89165  0.78982  1.0000
  C   C2113     1.0  0.40376  0.70745  0.85265  1.0000
  H   H2111     1.0  0.16096  0.85010  0.94743  1.0000
  C   C2114     1.0  0.45433  0.87264  0.85146  1.0000
  C   C2115     1.0  0.44793  0.88316  0.85600  1.0000
  C   C2116     1.0  0.45395  0.89274  0.85454  1.0000
  C   C2117     1.0  0.46638  0.89184  0.84860  1.0000
  C   C2118     1.0  0.47270  0.88137  0.84396  1.0000
  C   C2119     1.0  0.46669  0.87182  0.84538  1.0000
  H   H2112     1.0  0.43838  0.88390  0.86068  1.0000
  H   H2113     1.0  0.44898  0.90083  0.85814  1.0000
  H   H2114     1.0  0.48219  0.88064  0.83919  1.0000
  H   H2115     1.0  0.47168  0.86375  0.84176  1.0000
  C   C2120     1.0  0.27155  0.87979  0.85633  1.0000
  C   C2121     1.0  0.25876  0.88390  0.85773  1.0000
  C   C2122     1.0  0.25309  0.88605  0.84778  1.0000
  C   C2123     1.0  0.26023  0.88424  0.83631  1.0000
  C   C2124     1.0  0.27304  0.88049  0.83483  1.0000
  C   C2125     1.0  0.27865  0.87819  0.84480  1.0000
  H   H2116     1.0  0.25317  0.88526  0.86659  1.0000
  H   H2117     1.0  0.24320  0.88901  0.84900  1.0000
  H   H2118     1.0  0.27861  0.87913  0.82596  1.0000
  H   H2119     1.0  0.28847  0.87519  0.84349  1.0000
  C   C2126     1.0  0.35143  0.88311  0.84396  1.0000
  C   C2127     1.0  0.35682  0.87513  0.85348  1.0000
  C   C2128     1.0  0.36970  0.87252  0.85222  1.0000
  C   C2129     1.0  0.37715  0.87768  0.84135  1.0000
  C   C2130     1.0  0.37170  0.88545  0.83184  1.0000
  C   C2131     1.0  0.35891  0.88829  0.83321  1.0000
  H   H2120     1.0  0.35107  0.87115  0.86184  1.0000
  H   H2121     1.0  0.37386  0.86643  0.85957  1.0000
  H   H2122     1.0  0.37739  0.88943  0.82342  1.0000
  H   H2123     1.0  0.35482  0.89445  0.82584  1.0000
  C   C2132     1.0  0.39621  0.86068  0.92939  1.0000
  C   C2133     1.0  0.40709  0.86010  0.92041  1.0000
  C   C2134     1.0  0.40735  0.86813  0.90891  1.0000
  C   C2135     1.0  0.39685  0.87696  0.90652  1.0000
  C   C2136     1.0  0.38627  0.87811  0.91579  1.0000
  C   C2137     1.0  0.38586  0.86979  0.92710  1.0000
  H   H2124     1.0  0.41521  0.85324  0.92221  1.0000
  H   H2125     1.0  0.41571  0.86756  0.90193  1.0000
  H   H2126     1.0  0.37828  0.88518  0.91410  1.0000
  H   H2127     1.0  0.37749  0.87045  0.93401  1.0000
  C   C2138     1.0  0.33615  0.86413  0.92211  1.0000
  C   C2139     1.0  0.33956  0.85134  0.92374  1.0000
  C   C2140     1.0  0.33677  0.84540  0.91608  1.0000
  C   C2141     1.0  0.33030  0.85214  0.90693  1.0000
  C   C2142     1.0  0.32693  0.86494  0.90521  1.0000
  C   C2143     1.0  0.32989  0.87093  0.91279  1.0000
  H   H2128     1.0  0.34426  0.84601  0.93096  1.0000
  H   H2129     1.0  0.33972  0.83554  0.91722  1.0000
  H   H2130     1.0  0.32192  0.87022  0.89818  1.0000
  H   H2131     1.0  0.32721  0.88083  0.91152  1.0000
  C   C2144     1.0  0.36409  0.78600  0.93190  1.0000
  C   C2145     1.0  0.36219  0.78215  0.94465  1.0000
  C   C2146     1.0  0.35951  0.79059  0.95215  1.0000
  C   C2147     1.0  0.35901  0.80309  0.94710  1.0000
  C   C2148     1.0  0.36116  0.80713  0.93425  1.0000
  C   C2149     1.0  0.36361  0.79858  0.92663  1.0000
  H   H2132     1.0  0.36259  0.77250  0.94882  1.0000
  H   H2133     1.0  0.35786  0.78734  0.96201  1.0000
  H   H2134     1.0  0.36080  0.81679  0.93023  1.0000
  H   H2135     1.0  0.36514  0.80166  0.91676  1.0000
  C   C2150     1.0  0.38832  0.80699  0.87056  1.0000
  C   C2151     1.0  0.39358  0.81695  0.86347  1.0000
  C   C2152     1.0  0.39768  0.82401  0.86909  1.0000
  C   C2153     1.0  0.39676  0.82099  0.88178  1.0000
  C   C2154     1.0  0.39142  0.81108  0.88888  1.0000
  C   C2155     1.0  0.38715  0.80413  0.88329  1.0000
  H   H2136     1.0  0.39450  0.81919  0.85362  1.0000
  H   H2137     1.0  0.40175  0.83164  0.86356  1.0000
  H   H2138     1.0  0.39058  0.80874  0.89870  1.0000
  H   H2139     1.0  0.38310  0.79647  0.88882  1.0000
  C   C2156     1.0  0.32537  0.79793  0.87623  1.0000
  C   C2157     1.0  0.32848  0.80825  0.87774  1.0000
  C   C2158     1.0  0.32653  0.81942  0.86927  1.0000
  C   C2159     1.0  0.32194  0.82014  0.85902  1.0000
  C   C2160     1.0  0.31899  0.80978  0.85742  1.0000
  C   C2161     1.0  0.32050  0.79873  0.86614  1.0000
  H   H2140     1.0  0.33229  0.80767  0.88549  1.0000
  H   H2141     1.0  0.32887  0.82738  0.87055  1.0000
  H   H2142     1.0  0.31545  0.81032  0.84949  1.0000
  H   H2143     1.0  0.31815  0.79073  0.86493  1.0000
  C   C2162     1.0  0.37123  0.73113  0.87380  1.0000
  C   C2163     1.0  0.37531  0.71837  0.87463  1.0000
  C   C2164     1.0  0.37125  0.71222  0.86794  1.0000
  C   C2165     1.0  0.36293  0.71875  0.86043  1.0000
  C   C2166     1.0  0.35905  0.73155  0.85941  1.0000
  C   C2167     1.0  0.36322  0.73772  0.86598  1.0000
  H   H2144     1.0  0.38153  0.71318  0.88061  1.0000
  H   H2145     1.0  0.37422  0.70237  0.86894  1.0000
  H   H2146     1.0  0.35260  0.73669  0.85365  1.0000
  H   H2147     1.0  0.36013  0.74755  0.86511  1.0000
  H   H2148     1.0  0.37668  0.52251  0.82152  1.0000
  C   C2168     1.0  0.13278  0.93312  0.79501  1.0000
  N   N172      1.0  0.43112  0.88033  0.82747  1.0000
  C   C2169     1.0  0.37938  0.52616  0.83778  1.0000
  C   C2170     1.0  0.44433  0.89333  0.82731  1.0000
  C   C2171     1.0  0.42116  0.88988  0.82844  1.0000
  H   H2149     1.0  0.45051  0.87439  0.82600  1.0000
  C   C2172     1.0  0.41529  0.62826  0.78533  1.0000
  H   H2150     1.0  0.39528  0.62479  0.82415  1.0000
  H   H2151     1.0  0.43537  0.91172  0.82957  1.0000
  C   C2173     1.0  0.42251  0.90130  0.82924  1.0000
  H   H2152     1.0  0.40119  0.58148  0.79199  1.0000
  H   H2153     1.0  0.42668  0.65846  0.81343  1.0000
  C   C2174     1.0  0.12148  0.84314  0.96990  1.0000
  H   H2154     1.0  0.38531  0.61776  0.81144  1.0000
  N   N173      1.0  0.35714  0.82575  0.84904  1.0000
  C   C2175     1.0  0.36447  0.82970  0.85402  1.0000
  C   C2176     1.0  0.35176  0.83345  0.83980  1.0000
  C   C2177     1.0  0.36670  0.84161  0.84970  1.0000
  C   C2178     1.0  0.35364  0.84547  0.83537  1.0000
  C   C2179     1.0  0.36125  0.84952  0.84029  1.0000
  C   C2180     1.0  0.35572  0.81295  0.85311  1.0000
  H   H2155     1.0  0.36870  0.82360  0.86134  1.0000
  H   H2156     1.0  0.37266  0.84465  0.85358  1.0000
  H   H2157     1.0  0.34920  0.85161  0.82818  1.0000
  H   H2158     1.0  0.36290  0.85878  0.83684  1.0000
  H   H2159     1.0  0.35461  0.80994  0.86324  1.0000
  H   H2160     1.0  0.11583  0.94122  0.80590  1.0000
  H   H2161     1.0  0.39668  0.60066  0.80119  1.0000
  C   C2181     1.0  0.35189  0.63188  0.79317  1.0000
  C   C2182     1.0  0.42962  0.86830  0.82693  1.0000
  H   H2162     1.0  0.19922  0.91169  0.79207  1.0000
  C   C2183     1.0  0.12560  0.94093  0.80284  1.0000
  S   S762      1.0  0.13583  0.98604  0.84661  1.0000
  C   C2184     1.0  0.39939  0.73091  0.85685  1.0000
  H   H2163     1.0  0.37088  0.56321  0.80676  1.0000
  S   S763      1.0  0.49112  0.62474  0.82603  1.0000
  C   C2185     1.0  0.40155  0.67380  0.78433  1.0000
  H   H2164     1.0  0.28974  0.90616  0.82465  1.0000
  H   H2165     1.0  0.35418  0.62700  0.78579  1.0000
  H   H2166     1.0  0.48784  0.58496  0.86747  1.0000
  C   C2186     1.0  0.36621  0.67948  0.79280  1.0000
  C   C2187     1.0  0.38418  0.59129  0.78662  1.0000
  H   H2167     1.0  0.15360  0.85185  0.93520  1.0000
  C   C2188     1.0  0.37477  0.66135  0.78376  1.0000
  H   H2168     1.0  0.13313  0.84866  0.93924  1.0000
  S   S764      1.0  0.16456  0.86372  0.79316  1.0000
  H   H2169     1.0  0.35696  0.88770  0.98202  1.0000
  H   H2170     1.0  0.35710  0.49742  0.86664  1.0000
  Fe  Fe383     1.0  0.49450  0.90116  0.84034  1.0000
  C   C2189     1.0  0.49186  0.62720  0.84916  1.0000
  C   C2190     1.0  0.12184  0.84556  0.95735  1.0000
  C   C2191     1.0  0.43026  0.62775  0.79708  1.0000
  H   H2171     1.0  0.34872  0.66059  0.79759  1.0000
  N   N174      1.0  0.36775  0.50681  0.85044  1.0000
  C   C2192     1.0  0.37167  0.51296  0.85675  1.0000
  H   H2172     1.0  0.11286  0.84261  0.97650  1.0000
  C   C2193     1.0  0.14535  0.93287  0.79075  1.0000
  H   H2173     1.0  0.45828  0.86963  0.87664  1.0000
  C   C2194     1.0  0.35162  0.64450  0.79028  1.0000
  C   C2195     1.0  0.41902  0.63309  0.79337  1.0000
  H   H2174     1.0  0.34554  0.60997  0.80185  1.0000
  C   C2196     1.0  0.37281  0.66726  0.79359  1.0000
  H   H2175     1.0  0.41311  0.64096  0.79677  1.0000
  H   H2176     1.0  0.38000  0.52800  0.85563  1.0000
  C   C2197     1.0  0.37192  0.59109  0.78750  1.0000
  H   H2177     1.0  0.41670  0.61452  0.82624  1.0000
  C   C2198     1.0  0.48326  0.58343  0.85124  1.0000
  H   H2178     1.0  0.48042  0.58384  0.83348  1.0000
  N   N175      1.0  0.39907  0.81985  0.92676  1.0000
  C   C2199     1.0  0.40046  0.81095  0.92043  1.0000
  C   C2200     1.0  0.39293  0.81856  0.93876  1.0000
  C   C2201     1.0  0.39570  0.80039  0.92614  1.0000
  C   C2202     1.0  0.38809  0.80811  0.94477  1.0000
  C   C2203     1.0  0.38957  0.79894  0.93842  1.0000
  C   C2204     1.0  0.40399  0.83094  0.92075  1.0000
  H   H2179     1.0  0.40528  0.81196  0.91090  1.0000
  H   H2180     1.0  0.39174  0.82565  0.94376  1.0000
  H   H2181     1.0  0.39665  0.79342  0.92107  1.0000
  H   H2182     1.0  0.38303  0.80722  0.95423  1.0000
  H   H2183     1.0  0.38576  0.79083  0.94294  1.0000
  H   H2184     1.0  0.41018  0.83208  0.92605  1.0000
  H   H2185     1.0  0.40930  0.83065  0.91124  1.0000
  H   H2186     1.0  0.39636  0.83915  0.92032  1.0000
  N   N176      1.0  0.33707  0.74029  0.88741  1.0000
  C   C2205     1.0  0.34490  0.73299  0.89475  1.0000
  C   C2206     1.0  0.33260  0.73531  0.88047  1.0000
  C   C2207     1.0  0.34823  0.72029  0.89548  1.0000
  C   C2208     1.0  0.33579  0.72266  0.88094  1.0000
  C   C2209     1.0  0.34365  0.71512  0.88850  1.0000
  C   C2210     1.0  0.33419  0.75362  0.88640  1.0000
  H   H2187     1.0  0.34894  0.73701  0.89977  1.0000
  H   H2188     1.0  0.32679  0.74114  0.87428  1.0000
  H   H2189     1.0  0.35473  0.71460  0.90102  1.0000
  H   H2190     1.0  0.33265  0.71876  0.87507  1.0000
  H   H2191     1.0  0.34654  0.70537  0.88858  1.0000
  H   H2192     1.0  0.32582  0.75820  0.88261  1.0000
  H   H2193     1.0  0.33241  0.75589  0.89554  1.0000
  H   H2194     1.0  0.34200  0.75765  0.88032  1.0000
  C   C2211     1.0  0.13225  0.84156  0.97394  1.0000
  C   C2212     1.0  0.47470  0.88171  0.87530  1.0000
  H   H2195     1.0  0.42769  0.59724  0.81603  1.0000
  S   S765      1.0  0.11511  0.98437  0.83278  1.0000
  N   N177      1.0  0.32830  0.81258  0.93312  1.0000
  C   C2213     1.0  0.33362  0.80036  0.93425  1.0000
  C   C2214     1.0  0.32354  0.81893  0.92305  1.0000
  C   C2215     1.0  0.33432  0.79418  0.92513  1.0000
  C   C2216     1.0  0.32404  0.81305  0.91377  1.0000
  C   C2217     1.0  0.32943  0.80058  0.91486  1.0000
  C   C2218     1.0  0.32841  0.81911  0.94234  1.0000
  H   H2196     1.0  0.33758  0.79535  0.94212  1.0000
  H   H2197     1.0  0.31947  0.82867  0.92203  1.0000
  H   H2198     1.0  0.33885  0.78455  0.92594  1.0000
  H   H2199     1.0  0.32043  0.81822  0.90570  1.0000
  H   H2200     1.0  0.32993  0.79590  0.90770  1.0000
  H   H2201     1.0  0.32903  0.81278  0.95138  1.0000
  H   H2202     1.0  0.33651  0.82350  0.93935  1.0000
  H   H2203     1.0  0.31994  0.82637  0.94372  1.0000
  N   N178      1.0  0.17696  0.86897  0.84443  1.0000
  C   C2219     1.0  0.16960  0.87026  0.83647  1.0000
  C   C2220     1.0  0.18849  0.85973  0.84392  1.0000
  H   H2204     1.0  0.17227  0.86450  0.82978  1.0000
  H   H2205     1.0  0.18660  0.85057  0.84895  1.0000
  H   H2206     1.0  0.19316  0.85928  0.83426  1.0000
  H   H2207     1.0  0.19506  0.86200  0.84804  1.0000
  C   C2221     1.0  0.40707  0.72131  0.86318  1.0000
  H   H2208     1.0  0.39728  0.74005  0.85872  1.0000
  H   H2209     1.0  0.41536  0.70195  0.86586  1.0000
  H   H2210     1.0  0.41108  0.72301  0.86988  1.0000
  N   N179      1.0  0.08663  0.90722  0.85984  1.0000
  C   C2222     1.0  0.08618  0.90363  0.84965  1.0000
  C   C2223     1.0  0.09083  0.89874  0.86939  1.0000
  C   C2224     1.0  0.08991  0.89125  0.84890  1.0000
  C   C2225     1.0  0.09473  0.88630  0.86890  1.0000
  C   C2226     1.0  0.09428  0.88256  0.85857  1.0000
  C   C2227     1.0  0.08327  0.92026  0.86037  1.0000
  H   H2211     1.0  0.08329  0.91035  0.84186  1.0000
  H   H2212     1.0  0.09138  0.90164  0.87737  1.0000
  H   H2213     1.0  0.09001  0.88852  0.84059  1.0000
  H   H2214     1.0  0.09848  0.87965  0.87629  1.0000
  H   H2215     1.0  0.09773  0.87301  0.85787  1.0000
  H   H2216     1.0  0.07822  0.92596  0.85315  1.0000
  H   H2217     1.0  0.07728  0.92155  0.86941  1.0000
  H   H2218     1.0  0.09169  0.92374  0.85925  1.0000
  H   H2219     1.0  0.41203  0.88861  0.82896  1.0000
  H   H2220     1.0  0.12084  0.92232  0.84582  1.0000
  H   H2221     1.0  0.16546  0.92284  0.83879  1.0000
  C   C2228     1.0  0.18592  0.90864  0.78384  1.0000
  C   C2229     1.0  0.49000  0.58708  0.85753  1.0000
  C   C2230     1.0  0.15871  0.92165  0.83449  1.0000
  H   H2222     1.0  0.14619  0.89278  0.84628  1.0000
  H   H2223     1.0  0.45344  0.89449  0.82707  1.0000
  H   H2224     1.0  0.16026  0.83657  0.94276  1.0000
  N   N180      1.0  0.41908  0.66939  0.79831  1.0000
  C   C2231     1.0  0.18790  0.87433  0.80749  1.0000
  C   C2232     1.0  0.29074  0.90335  0.85831  1.0000
  C   C2233     1.0  0.27943  0.90590  0.85497  1.0000
  C   C2234     1.0  0.15373  0.91493  0.81876  1.0000
  C   C2235     1.0  0.17741  0.87436  0.80337  1.0000
  N   N181      1.0  0.27390  0.84909  0.85549  1.0000
  C   C2236     1.0  0.26907  0.85129  0.84533  1.0000
  C   C2237     1.0  0.26642  0.85126  0.86639  1.0000
  C   C2238     1.0  0.25641  0.85552  0.84602  1.0000
  C   C2239     1.0  0.25371  0.85543  0.86741  1.0000
  C   C2240     1.0  0.24869  0.85754  0.85715  1.0000
  C   C2241     1.0  0.28721  0.84506  0.85463  1.0000
  H   H2225     1.0  0.27501  0.85011  0.83655  1.0000
  H   H2226     1.0  0.27033  0.85012  0.87427  1.0000
  H   H2227     1.0  0.25266  0.85766  0.83785  1.0000
  H   H2228     1.0  0.24784  0.85740  0.87599  1.0000
  H   H2229     1.0  0.23889  0.86115  0.85772  1.0000
  H   H2230     1.0  0.29204  0.84167  0.84610  1.0000
  H   H2231     1.0  0.29111  0.85282  0.85474  1.0000
  H   H2232     1.0  0.28932  0.83742  0.86246  1.0000
  N   N182      1.0  0.36357  0.86636  0.90026  1.0000
  C   C2242     1.0  0.35766  0.86414  0.89254  1.0000
  C   C2243     1.0  0.37191  0.85715  0.90566  1.0000
  C   C2244     1.0  0.35982  0.85235  0.89030  1.0000
  C   C2245     1.0  0.37431  0.84527  0.90359  1.0000
  C   C2246     1.0  0.36823  0.84288  0.89586  1.0000
  C   C2247     1.0  0.36141  0.87876  0.90238  1.0000
  H   H2233     1.0  0.35110  0.87145  0.88821  1.0000
  H   H2234     1.0  0.37676  0.85899  0.91157  1.0000
  H   H2235     1.0  0.35487  0.85056  0.88444  1.0000
  H   H2236     1.0  0.38097  0.83799  0.90782  1.0000
  H   H2237     1.0  0.37011  0.83371  0.89414  1.0000
  H   H2238     1.0  0.36079  0.87837  0.91223  1.0000
  H   H2239     1.0  0.36908  0.88328  0.89672  1.0000
  H   H2240     1.0  0.35256  0.88449  0.90022  1.0000
  H   H2241     1.0  0.11916  0.93139  0.83071  1.0000
  H   H2242     1.0  0.40547  0.69824  0.85106  1.0000
  H   H2243     1.0  0.31667  0.89167  0.82882  1.0000
  S   S766      1.0  0.43511  0.63506  0.80607  1.0000
  C   C2248     1.0  0.38997  0.71434  0.83831  1.0000
  C   C2249     1.0  0.17332  0.87583  0.85324  1.0000
  H   H2244     1.0  0.39289  0.64076  0.87457  1.0000
  H   H2245     1.0  0.40523  0.58947  0.87040  1.0000
  C   C2250     1.0  0.30159  0.90210  0.84933  1.0000
  H   H2246     1.0  0.18835  0.88215  0.81068  1.0000
  C   C2251     1.0  0.12452  0.92924  0.83797  1.0000
  H   H2247     1.0  0.17893  0.87449  0.85981  1.0000
  H   H2248     1.0  0.18659  0.84642  0.79565  1.0000
  N   N183      1.0  0.30116  0.90338  0.83735  1.0000
  H   H2249     1.0  0.43766  0.66457  0.80058  1.0000
  C   C2252     1.0  0.43758  0.61729  0.79295  1.0000
  N   N184      1.0  0.34936  0.62574  0.80512  1.0000
  C   C2253     1.0  0.34667  0.63186  0.81444  1.0000
  C   C2254     1.0  0.36972  0.50998  0.83792  1.0000
  C   C2255     1.0  0.34637  0.64447  0.81188  1.0000
  C   C2256     1.0  0.39463  0.61338  0.81245  1.0000
  H   H2250     1.0  0.34576  0.60897  0.81754  1.0000
  C   C2257     1.0  0.35015  0.61244  0.80786  1.0000
  H   H2251     1.0  0.34492  0.62697  0.82394  1.0000
  C   C2258     1.0  0.49507  0.59278  0.83212  1.0000
  H   H2252     1.0  0.34443  0.64924  0.81930  1.0000
  H   H2253     1.0  0.40606  0.68178  0.80864  1.0000
  H   H2254     1.0  0.46534  0.88703  0.87609  1.0000
  H   H2255     1.0  0.46627  0.85669  0.88618  1.0000
  C   C2259     1.0  0.42145  0.66349  0.78889  1.0000
  C   C2260     1.0  0.46725  0.86310  0.87708  1.0000
  C   C2261     1.0  0.14124  0.91905  0.82352  1.0000
  C   C2262     1.0  0.40111  0.60366  0.80669  1.0000
  H   H2256     1.0  0.15655  0.91101  0.81065  1.0000
  C   C2263     1.0  0.48580  0.58636  0.83845  1.0000
  C   C2264     1.0  0.14615  0.92578  0.83893  1.0000
  C   C2265     1.0  0.40021  0.61726  0.81961  1.0000
  H   H2257     1.0  0.27098  0.90644  0.86194  1.0000
  Fe  Fe384     1.0  0.33250  0.49380  0.84436  1.0000
  H   H2258     1.0  0.39670  0.71287  0.82969  1.0000
  H   H2259     1.0  0.11348  0.84709  0.95406  1.0000
  H   H2260     1.0  0.14330  0.93002  0.84683  1.0000
  C   C2266     1.0  0.36168  0.49655  0.85707  1.0000
  C   C2267     1.0  0.16251  0.91633  0.82425  1.0000
  H   H2261     1.0  0.13448  0.91800  0.81913  1.0000
  N   N185      1.0  0.13762  0.92470  0.83327  1.0000
  N   N186      1.0  0.15035  0.94617  0.87891  1.0000
  C   C2268     1.0  0.14527  0.95812  0.87440  1.0000
  C   C2269     1.0  0.14368  0.93918  0.88854  1.0000
  C   C2270     1.0  0.13327  0.96341  0.87961  1.0000
  C   C2271     1.0  0.13158  0.94412  0.89383  1.0000
  C   C2272     1.0  0.12637  0.95633  0.88935  1.0000
  C   C2273     1.0  0.16270  0.94068  0.87283  1.0000
  H   H2262     1.0  0.15046  0.96359  0.86663  1.0000
  H   H2263     1.0  0.14761  0.92965  0.89204  1.0000
  H   H2264     1.0  0.12850  0.92745  0.79211  1.0000
  H   H2265     1.0  0.12620  0.93841  0.90118  1.0000
  H   H2266     1.0  0.11687  0.96020  0.89311  1.0000
  H   H2267     1.0  0.16214  0.93811  0.86444  1.0000
  H   H2268     1.0  0.16892  0.94726  0.87006  1.0000
  H   H2269     1.0  0.16690  0.93224  0.87884  1.0000
  N   N187      1.0  0.14350  0.84505  0.95303  1.0000
  C   C2274     1.0  0.17695  0.86427  0.79905  1.0000
  H   H2270     1.0  0.41986  0.86738  0.83021  1.0000
  H   H2271     1.0  0.48215  0.89751  0.87359  1.0000
  H   H2272     1.0  0.38353  0.53400  0.83287  1.0000
  C   C2275     1.0  0.34883  0.65081  0.79971  1.0000
  C   C2276     1.0  0.14326  0.84254  0.96532  1.0000
  C   C2277     1.0  0.41924  0.58760  0.80210  1.0000
  C   C2278     1.0  0.44262  0.88199  0.82669  1.0000
  C   C2279     1.0  0.41837  0.60168  0.81505  1.0000
  H   H2273     1.0  0.36633  0.50529  0.83296  1.0000
  H   H2274     1.0  0.49115  0.85319  0.87385  1.0000
  C   C2280     1.0  0.39914  0.67965  0.79407  1.0000
  N   N188      1.0  0.41282  0.59795  0.80803  1.0000
  H   H2275     1.0  0.15942  0.88999  0.86096  1.0000
  N   N189      1.0  0.40224  0.62397  0.86884  1.0000
  C   C2281     1.0  0.41364  0.61664  0.86618  1.0000
  C   C2282     1.0  0.39192  0.61920  0.87186  1.0000
  C   C2283     1.0  0.41491  0.60412  0.86674  1.0000
  C   C2284     1.0  0.39284  0.60675  0.87242  1.0000
  C   C2285     1.0  0.40442  0.59916  0.86991  1.0000
  C   C2286     1.0  0.40095  0.63716  0.86777  1.0000
  H   H2276     1.0  0.42182  0.62044  0.86365  1.0000
  H   H2277     1.0  0.38291  0.62510  0.87381  1.0000
  H   H2278     1.0  0.42397  0.59830  0.86466  1.0000
  H   H2279     1.0  0.38463  0.60300  0.87470  1.0000
  H   H2280     1.0  0.36402  0.80689  0.84878  1.0000
  H   H2281     1.0  0.43279  0.86694  0.81737  1.0000
  H   H2282     1.0  0.29110  0.90198  0.86786  1.0000
  H   H2283     1.0  0.41901  0.59029  0.79218  1.0000
  N   N190      1.0  0.39599  0.71687  0.84672  1.0000
  H   H2284     1.0  0.34592  0.83033  0.83585  1.0000
  H   H2285     1.0  0.27033  0.90852  0.84020  1.0000
  C   C2287     1.0  0.39176  0.58123  0.79261  1.0000
  H   H2286     1.0  0.31953  0.90589  0.82982  1.0000
  C   C2288     1.0  0.15851  0.87895  0.83689  1.0000
  H   H2287     1.0  0.14782  0.95361  0.80573  1.0000
  C   C2289     1.0  0.19797  0.86433  0.80698  1.0000
  H   H2288     1.0  0.20506  0.84657  0.80237  1.0000
  C   C2290     1.0  0.39391  0.72853  0.84856  1.0000
  C   C2291     1.0  0.29011  0.90562  0.83404  1.0000
  H   H2289     1.0  0.41452  0.90871  0.83042  1.0000
  H   H2290     1.0  0.35996  0.60757  0.80637  1.0000
  H   H2291     1.0  0.38207  0.72187  0.83611  1.0000
  C   C2292     1.0  0.19692  0.90548  0.78789  1.0000
  H   H2292     1.0  0.12305  0.93800  0.84095  1.0000
  C   C2293     1.0  0.27908  0.90704  0.84277  1.0000
  C   C2294     1.0  0.31268  0.90164  0.82819  1.0000
  H   H2293     1.0  0.12920  0.97282  0.87586  1.0000
  H   H2294     1.0  0.31128  0.90592  0.81872  1.0000
  C   C2295     1.0  0.41218  0.61142  0.82089  1.0000
  H   H2295     1.0  0.31036  0.89997  0.85202  1.0000
  H   H2296     1.0  0.17225  0.91345  0.82051  1.0000
  H   H2297     1.0  0.36993  0.51062  0.86669  1.0000
  S   S767      1.0  0.21186  0.86394  0.81084  1.0000
  C   C2296     1.0  0.15078  0.94028  0.79463  1.0000
  H   H2298     1.0  0.48241  0.62614  0.85202  1.0000
  C   C2297     1.0  0.19735  0.85433  0.80276  1.0000
  N   N191      1.0  0.47724  0.86944  0.87529  1.0000
  S   S768      1.0  0.39563  0.56008  0.80953  1.0000
  C   C2298     1.0  0.48912  0.86288  0.87396  1.0000
  C   C2299     1.0  0.48418  0.88770  0.87397  1.0000
  C   C2300     1.0  0.40805  0.67730  0.80102  1.0000
  H   H2299     1.0  0.37984  0.65195  0.78434  1.0000
  H   H2300     1.0  0.17960  0.91733  0.78484  1.0000
  H   H2301     1.0  0.43501  0.86085  0.83294  1.0000
  C   C2301     1.0  0.13301  0.84640  0.94899  1.0000
  Fe  Fe385     1.0  0.14987  0.88035  0.78850  1.0000
  C   C2302     1.0  0.20495  0.89430  0.78652  1.0000
  C   C2303     1.0  0.36716  0.58086  0.79456  1.0000
  C   C2304     1.0  0.42811  0.66664  0.80600  1.0000
  H   H2302     1.0  0.46914  0.85783  0.86979  1.0000
  H   H2303     1.0  0.42732  0.67447  0.81022  1.0000
  H   H2304     1.0  0.49294  0.62850  0.86709  1.0000
  H   H2305     1.0  0.16052  0.94008  0.79142  1.0000
  H   H2306     1.0  0.47590  0.57862  0.85621  1.0000
  C   C2305     1.0  0.43386  0.61247  0.78488  1.0000
  H   H2307     1.0  0.86172  0.13361  0.00858  1.0000
  Fe  Fe386     1.0  0.52423  0.37300  0.14135  1.0000
  S   S769      1.0  0.53689  0.38176  0.12502  1.0000
  S   S770      1.0  0.82794  0.13918  0.98776  1.0000
  Fe  Fe387     1.0  0.52030  0.39666  0.12261  1.0000
  S   S771      1.0  0.52180  0.41646  0.11869  1.0000
  Fe  Fe388     1.0  0.52971  0.37283  0.11427  1.0000
  S   S772      1.0  0.54241  0.36291  0.10012  1.0000
  S   S773      1.0  0.51847  0.36262  0.13069  1.0000
  Fe  Fe389     1.0  0.61556  0.31901  0.13097  1.0000
  S   S774      1.0  0.62543  0.32012  0.11124  1.0000
  S   S775      1.0  0.62557  0.32145  0.14410  1.0000
  Fe  Fe390     1.0  0.59168  0.31830  0.12533  1.0000
  S   S776      1.0  0.59955  0.31964  0.10523  1.0000
  S   S777      1.0  0.57179  0.31768  0.13231  1.0000
  Fe  Fe391     1.0  0.61549  0.30559  0.11133  1.0000
  S   S778      1.0  0.62346  0.28731  0.10513  1.0000
  Fe  Fe392     1.0  0.60838  0.33403  0.10731  1.0000
  S   S779      1.0  0.60659  0.35333  0.09559  1.0000
  S   S780      1.0  0.60704  0.30347  0.13154  1.0000
  S   S781      1.0  0.59915  0.33359  0.12695  1.0000
  Fe  Fe393     1.0  0.59504  0.42990  0.12592  1.0000
  S   S782      1.0  0.61522  0.42765  0.11765  1.0000
  S   S783      1.0  0.58644  0.43005  0.14549  1.0000
  Fe  Fe394     1.0  0.58769  0.43203  0.10248  1.0000
  S   S784      1.0  0.60720  0.43063  0.09175  1.0000
  S   S785      1.0  0.57183  0.43444  0.09360  1.0000
  Fe  Fe395     1.0  0.61152  0.41518  0.10760  1.0000
  S   S786      1.0  0.62429  0.39706  0.10463  1.0000
  Fe  Fe396     1.0  0.60915  0.44332  0.10270  1.0000
  S   S787      1.0  0.61736  0.46049  0.09399  1.0000
  S   S788      1.0  0.59193  0.41593  0.11753  1.0000
  S   S789      1.0  0.58907  0.44617  0.11175  1.0000
  H   H2308     1.0  0.62599  0.13767  0.07478  1.0000
  Fe  Fe397     1.0  0.74942  0.11397  0.12249  1.0000
  S   S790      1.0  0.75987  0.12795  0.10975  1.0000
  S   S791      1.0  0.72859  0.11873  0.12737  1.0000
  Fe  Fe398     1.0  0.77286  0.09458  0.12542  1.0000
  S   S792      1.0  0.78485  0.10698  0.11273  1.0000
  S   S793      1.0  0.78201  0.07574  0.13430  1.0000
  Fe  Fe399     1.0  0.77287  0.12136  0.12274  1.0000
  S   S794      1.0  0.78394  0.13281  0.12655  1.0000
  Fe  Fe400     1.0  0.77086  0.11214  0.10112  1.0000
  S   S795      1.0  0.77493  0.11348  0.08080  1.0000
  S   S796      1.0  0.76152  0.10866  0.13635  1.0000
  S   S797      1.0  0.75969  0.09850  0.11303  1.0000
  Fe  Fe401     1.0  0.84372  0.03745  0.11618  1.0000
  S   S798      1.0  0.84945  0.04763  0.12688  1.0000
  S   S799      1.0  0.83161  0.05005  0.10359  1.0000
  Fe  Fe402     1.0  0.85878  0.01271  0.12659  1.0000
  S   S800      1.0  0.86557  0.02113  0.13825  1.0000
  C   C2306     1.0  0.53948  0.12381  0.12485  1.0000
  Fe  Fe403     1.0  0.84626  0.03177  0.14241  1.0000
  S   S801      1.0  0.83697  0.03491  0.16134  1.0000
  Fe  Fe404     1.0  0.86813  0.03617  0.12165  1.0000
  S   S802      1.0  0.88478  0.04445  0.11594  1.0000
  S   S803      1.0  0.83900  0.02217  0.13224  1.0000
  S   S804      1.0  0.86286  0.02718  0.10953  1.0000
  H   H2309     1.0  0.50567  0.09210  0.08685  1.0000
  S   S805      1.0  0.86379  0.10271  0.16925  1.0000
  H   H2310     1.0  0.51385  0.36304  0.10590  1.0000
  Fe  Fe405     1.0  0.82851  0.10937  0.17127  1.0000
  S   S806      1.0  0.83924  0.12436  0.16465  1.0000
  S   S807      1.0  0.80844  0.11007  0.17289  1.0000
  Fe  Fe406     1.0  0.85321  0.11104  0.15422  1.0000
  S   S808      1.0  0.86331  0.11411  0.13449  1.0000
  C   C2307     1.0  0.63563  0.48102  0.11086  1.0000
  H   H2311     1.0  0.84789  0.99282  0.11631  1.0000
  S   S809      1.0  0.84174  0.09692  0.15965  1.0000
  C   C2308     1.0  0.84516  0.04098  0.17841  1.0000
  Fe  Fe407     1.0  0.83911  0.09534  0.06309  1.0000
  S   S810      1.0  0.83096  0.11517  0.06327  1.0000
  S   S811      1.0  0.82751  0.08358  0.06116  1.0000
  Fe  Fe408     1.0  0.86356  0.09691  0.06619  1.0000
  S   S812      1.0  0.85779  0.11704  0.06628  1.0000
  S   S813      1.0  0.88252  0.08633  0.06820  1.0000
  Fe  Fe409     1.0  0.84050  0.11205  0.07876  1.0000
  S   S814      1.0  0.83090  0.11844  0.09641  1.0000
  Fe  Fe410     1.0  0.84885  0.11839  0.05076  1.0000
  S   S815      1.0  0.85003  0.13376  0.03386  1.0000
  S   S816      1.0  0.84681  0.09190  0.07970  1.0000
  S   S817      1.0  0.85636  0.09868  0.04949  1.0000
  Fe  Fe411     1.0  0.63033  0.14379  0.01118  1.0000
  S   S818      1.0  0.63862  0.15578  0.99391  1.0000
  S   S819      1.0  0.64092  0.13201  0.02543  1.0000
  Fe  Fe412     1.0  0.60532  0.15112  0.00482  1.0000
  H   H2312     1.0  0.66482  0.48411  0.09183  1.0000
  S   S820      1.0  0.58593  0.14855  0.01155  1.0000
  C   C2309     1.0  0.59896  0.13391  0.98553  1.0000
  Fe  Fe413     1.0  0.62128  0.16973  0.99860  1.0000
  S   S821      1.0  0.62143  0.18966  0.99706  1.0000
  S   S822      1.0  0.62129  0.13563  0.00131  1.0000
  S   S823      1.0  0.61361  0.15808  0.01630  1.0000
  Fe  Fe414     1.0  0.61672  0.22506  0.05246  1.0000
  S   S824      1.0  0.62402  0.20899  0.06629  1.0000
  S   S825      1.0  0.61797  0.22439  0.03272  1.0000
  Fe  Fe415     1.0  0.61003  0.24306  0.07026  1.0000
  S   S826      1.0  0.61614  0.22791  0.08541  1.0000
  S   S827      1.0  0.60401  0.26310  0.07241  1.0000
  Fe  Fe416     1.0  0.63230  0.22227  0.07085  1.0000
  S   S828      1.0  0.65068  0.21952  0.07531  1.0000
  Fe  Fe417     1.0  0.60707  0.21635  0.07927  1.0000
  S   S829      1.0  0.59628  0.20295  0.09263  1.0000
  S   S830      1.0  0.62665  0.23780  0.05582  1.0000
  S   S831      1.0  0.59926  0.23199  0.06529  1.0000
  Fe  Fe418     1.0  0.65631  0.14910  0.07823  1.0000
  S   S832      1.0  0.66363  0.12874  0.08349  1.0000
  S   S833      1.0  0.64812  0.16017  0.06201  1.0000
  Fe  Fe419     1.0  0.65945  0.15375  0.10157  1.0000
  S   S834      1.0  0.66653  0.13396  0.10910  1.0000
  S   S835      1.0  0.65886  0.16801  0.11153  1.0000
  Fe  Fe420     1.0  0.67788  0.13387  0.09017  1.0000
  S   S836      1.0  0.69823  0.12518  0.08685  1.0000
  Fe  Fe421     1.0  0.65173  0.13069  0.10196  1.0000
  S   S837      1.0  0.64089  0.11685  0.11400  1.0000
  S   S838      1.0  0.67172  0.15405  0.08300  1.0000
  S   S839      1.0  0.64344  0.15058  0.09636  1.0000
  Fe  Fe422     1.0  0.55180  0.14071  0.09164  1.0000
  S   S840      1.0  0.56141  0.14519  0.07188  1.0000
  S   S841      1.0  0.53103  0.14320  0.09717  1.0000
  Fe  Fe423     1.0  0.57566  0.13455  0.10057  1.0000
  S   S842      1.0  0.58724  0.13795  0.08167  1.0000
  S   S843      1.0  0.58338  0.12896  0.11758  1.0000
  Fe  Fe424     1.0  0.57245  0.15463  0.07817  1.0000
  S   S844      1.0  0.57894  0.17147  0.06599  1.0000
  Fe  Fe425     1.0  0.57534  0.12816  0.07704  1.0000
  S   S845      1.0  0.58442  0.11516  0.06441  1.0000
  S   S846      1.0  0.56150  0.15199  0.09752  1.0000
  S   S847      1.0  0.56507  0.12295  0.09642  1.0000
  C   C2310     1.0  0.62502  0.12040  0.11436  1.0000
  C   C2311     1.0  0.61999  0.12868  0.10477  1.0000
  C   C2312     1.0  0.60721  0.13118  0.10543  1.0000
  C   C2313     1.0  0.59948  0.12563  0.11583  1.0000
  C   C2314     1.0  0.60457  0.11757  0.12543  1.0000
  C   C2315     1.0  0.61729  0.11481  0.12462  1.0000
  H   H2313     1.0  0.62594  0.13306  0.09686  1.0000
  H   H2314     1.0  0.60331  0.13756  0.09806  1.0000
  H   H2315     1.0  0.59866  0.11330  0.13349  1.0000
  H   H2316     1.0  0.62111  0.10842  0.13205  1.0000
  C   C2316     1.0  0.59104  0.19458  0.08516  1.0000
  C   C2317     1.0  0.59348  0.19677  0.07235  1.0000
  C   C2318     1.0  0.58956  0.18976  0.06653  1.0000
  C   C2319     1.0  0.58336  0.18041  0.07349  1.0000
  C   C2320     1.0  0.58103  0.17814  0.08629  1.0000
  C   C2321     1.0  0.58473  0.18531  0.09211  1.0000
  H   H2317     1.0  0.59833  0.20392  0.06692  1.0000
  H   H2318     1.0  0.59146  0.19151  0.05662  1.0000
  H   H2319     1.0  0.57625  0.17095  0.09172  1.0000
  H   H2320     1.0  0.58273  0.18364  0.10202  1.0000
  C   C2322     1.0  0.65356  0.20508  0.08503  1.0000
  C   C2323     1.0  0.65072  0.19499  0.08274  1.0000
  C   C2324     1.0  0.65265  0.18351  0.09074  1.0000
  C   C2325     1.0  0.65707  0.18221  0.10124  1.0000
  C   C2326     1.0  0.65989  0.19230  0.10356  1.0000
  C   C2327     1.0  0.65831  0.20370  0.09535  1.0000
  H   H2321     1.0  0.64718  0.19599  0.07470  1.0000
  H   H2322     1.0  0.65045  0.17576  0.08888  1.0000
  H   H2323     1.0  0.66331  0.19130  0.11168  1.0000
  H   H2324     1.0  0.66047  0.21151  0.09715  1.0000
  C   C2328     1.0  0.61951  0.19840  0.00815  1.0000
  C   C2329     1.0  0.61901  0.21098  0.00373  1.0000
  C   C2330     1.0  0.61812  0.21862  0.01159  1.0000
  C   C2331     1.0  0.61766  0.21392  0.02411  1.0000
  C   C2332     1.0  0.61783  0.20130  0.02881  1.0000
  C   C2333     1.0  0.61878  0.19351  0.02080  1.0000
  H   H2325     1.0  0.61952  0.21489  0.99405  1.0000
  H   H2326     1.0  0.61799  0.22829  0.00784  1.0000
  H   H2327     1.0  0.61752  0.19754  0.03848  1.0000
  H   H2328     1.0  0.61917  0.18378  0.02433  1.0000
  C   C2334     1.0  0.58419  0.12315  0.04929  1.0000
  C   C2335     1.0  0.57360  0.13146  0.04633  1.0000
  C   C2336     1.0  0.57394  0.13881  0.03448  1.0000
  C   C2337     1.0  0.58498  0.13810  0.02573  1.0000
  C   C2338     1.0  0.59543  0.12947  0.02858  1.0000
  C   C2339     1.0  0.59495  0.12180  0.04025  1.0000
  H   H2329     1.0  0.56511  0.13212  0.05314  1.0000
  H   H2330     1.0  0.56573  0.14522  0.03224  1.0000
  H   H2331     1.0  0.60391  0.12864  0.02185  1.0000
  H   H2332     1.0  0.60304  0.11512  0.04241  1.0000
  C   C2340     1.0  0.64283  0.13983  0.03565  1.0000
  C   C2341     1.0  0.64983  0.13352  0.04450  1.0000
  C   C2342     1.0  0.65141  0.13963  0.05276  1.0000
  C   C2343     1.0  0.64592  0.15205  0.05222  1.0000
  C   C2344     1.0  0.63873  0.15828  0.04354  1.0000
  C   C2345     1.0  0.63732  0.15224  0.03517  1.0000
  H   H2333     1.0  0.65412  0.12392  0.04488  1.0000
  H   H2334     1.0  0.65703  0.13477  0.05937  1.0000
  H   H2335     1.0  0.63428  0.16783  0.04322  1.0000
  H   H2336     1.0  0.63203  0.15721  0.02833  1.0000
  C   C2346     1.0  0.84449  0.13258  0.02148  1.0000
  C   C2347     1.0  0.82721  0.13419  0.01246  1.0000
  C   C2348     1.0  0.83206  0.13263  0.02284  1.0000
  H   H2337     1.0  0.81753  0.13453  0.01357  1.0000
  H   H2338     1.0  0.82607  0.13193  0.03185  1.0000
  H   H2339     1.0  0.63022  0.18801  0.10851  1.0000
  H   H2340     1.0  0.62466  0.40480  0.15698  1.0000
  Fe  Fe426     1.0  0.50311  0.37890  0.12708  1.0000
  C   C2349     1.0  0.85429  0.11513  0.12397  1.0000
  C   C2350     1.0  0.85996  0.11226  0.11246  1.0000
  C   C2351     1.0  0.85287  0.11306  0.10400  1.0000
  C   C2352     1.0  0.84009  0.11706  0.10688  1.0000
  C   C2353     1.0  0.83445  0.12003  0.11834  1.0000
  C   C2354     1.0  0.84149  0.11890  0.12694  1.0000
  H   H2341     1.0  0.86987  0.10942  0.11005  1.0000
  H   H2342     1.0  0.85733  0.11076  0.09517  1.0000
  H   H2343     1.0  0.82458  0.12318  0.12060  1.0000
  H   H2344     1.0  0.83703  0.12121  0.13575  1.0000
  C   C2355     1.0  0.88406  0.05604  0.10271  1.0000
  C   C2356     1.0  0.89414  0.06154  0.09693  1.0000
  C   C2357     1.0  0.89361  0.07086  0.08633  1.0000
  C   C2358     1.0  0.88292  0.07483  0.08162  1.0000
  C   C2359     1.0  0.87284  0.06934  0.08746  1.0000
  C   C2360     1.0  0.87340  0.05994  0.09798  1.0000
  H   H2345     1.0  0.90242  0.05851  0.10056  1.0000
  H   H2346     1.0  0.90147  0.07501  0.08180  1.0000
  H   H2347     1.0  0.86482  0.07189  0.08358  1.0000
  H   H2348     1.0  0.86564  0.05560  0.10230  1.0000
  C   C2361     1.0  0.84348  0.04427  0.16636  1.0000
  H   H2349     1.0  0.52311  0.14509  0.12488  1.0000
  H   H2350     1.0  0.87681  0.13597  0.17554  1.0000
  H   H2351     1.0  0.81952  0.05185  0.17705  1.0000
  C   C2362     1.0  0.84998  0.06337  0.16361  1.0000
  C   C2363     1.0  0.84596  0.05546  0.15890  1.0000
  C   C2364     1.0  0.68033  0.09974  0.12452  1.0000
  C   C2365     1.0  0.83474  0.13565  0.00064  1.0000
  H   H2352     1.0  0.85196  0.07193  0.15782  1.0000
  H   H2353     1.0  0.84447  0.05813  0.14964  1.0000
  H   H2354     1.0  0.54850  0.41363  0.16917  1.0000
  H   H2355     1.0  0.60471  0.16011  0.07747  1.0000
  H   H2356     1.0  0.87723  0.06888  0.12224  1.0000
  C   C2366     1.0  0.62227  0.18670  0.10568  1.0000
  H   H2357     1.0  0.85320  0.13610  0.99038  1.0000
  C   C2367     1.0  0.79626  0.06927  0.12585  1.0000
  C   C2368     1.0  0.80297  0.05803  0.13121  1.0000
  C   C2369     1.0  0.81409  0.05241  0.12454  1.0000
  C   C2370     1.0  0.81845  0.05781  0.11235  1.0000
  C   C2371     1.0  0.81186  0.06911  0.10697  1.0000
  C   C2372     1.0  0.80079  0.07485  0.11372  1.0000
  H   H2358     1.0  0.79944  0.05346  0.14044  1.0000
  H   H2359     1.0  0.81906  0.04364  0.12873  1.0000
  H   H2360     1.0  0.81518  0.07335  0.09754  1.0000
  H   H2361     1.0  0.79555  0.08328  0.10932  1.0000
  C   C2373     1.0  0.78948  0.10499  0.07538  1.0000
  C   C2374     1.0  0.79174  0.10065  0.06463  1.0000
  C   C2375     1.0  0.80334  0.09366  0.06039  1.0000
  C   C2376     1.0  0.81271  0.09127  0.06679  1.0000
  C   C2377     1.0  0.81051  0.09580  0.07737  1.0000
  C   C2378     1.0  0.79891  0.10261  0.08167  1.0000
  H   H2362     1.0  0.78451  0.10263  0.05963  1.0000
  H   H2363     1.0  0.80514  0.09041  0.05202  1.0000
  H   H2364     1.0  0.81782  0.09421  0.08218  1.0000
  H   H2365     1.0  0.79748  0.10640  0.08957  1.0000
  C   C2379     1.0  0.79081  0.12638  0.13937  1.0000
  C   C2380     1.0  0.78536  0.11846  0.14955  1.0000
  C   C2381     1.0  0.79074  0.11373  0.15984  1.0000
  C   C2382     1.0  0.80191  0.11641  0.15983  1.0000
  C   C2383     1.0  0.80755  0.12408  0.14953  1.0000
  C   C2384     1.0  0.80187  0.12926  0.13943  1.0000
  H   H2366     1.0  0.77673  0.11637  0.14969  1.0000
  H   H2367     1.0  0.78612  0.10809  0.16789  1.0000
  H   H2368     1.0  0.81606  0.12634  0.14950  1.0000
  H   H2369     1.0  0.80605  0.13549  0.13163  1.0000
  C   C2385     1.0  0.72033  0.11982  0.11618  1.0000
  C   C2386     1.0  0.70745  0.12316  0.11901  1.0000
  C   C2387     1.0  0.70062  0.12497  0.11006  1.0000
  C   C2388     1.0  0.70657  0.12312  0.09829  1.0000
  C   C2389     1.0  0.71944  0.11951  0.09552  1.0000
  C   C2390     1.0  0.72632  0.11798  0.10439  1.0000
  H   H2370     1.0  0.70276  0.12463  0.12809  1.0000
  H   H2371     1.0  0.69075  0.12776  0.11235  1.0000
  H   H2372     1.0  0.72415  0.11803  0.08644  1.0000
  H   H2373     1.0  0.73626  0.11543  0.10209  1.0000
  C   C2391     1.0  0.51136  0.11119  0.10635  1.0000
  C   C2392     1.0  0.52425  0.10901  0.10296  1.0000
  C   C2393     1.0  0.53043  0.11880  0.09962  1.0000
  C   C2394     1.0  0.52373  0.13083  0.09968  1.0000
  C   C2395     1.0  0.51083  0.13301  0.10269  1.0000
  C   C2396     1.0  0.85211  0.13360  0.00973  1.0000
  H   H2374     1.0  0.52950  0.09971  0.10311  1.0000
  H   H2375     1.0  0.54036  0.11702  0.09720  1.0000
  C   C2397     1.0  0.79564  0.07813  0.16272  1.0000
  C   C2398     1.0  0.62363  0.46837  0.10127  1.0000
  C   C2399     1.0  0.63413  0.46898  0.11668  1.0000
  C   C2400     1.0  0.62810  0.46270  0.11197  1.0000
  H   H2376     1.0  0.63784  0.46439  0.12478  1.0000
  H   H2377     1.0  0.62726  0.45335  0.11639  1.0000
  C   C2401     1.0  0.61692  0.28080  0.09676  1.0000
  C   C2402     1.0  0.61072  0.28806  0.08758  1.0000
  C   C2403     1.0  0.60697  0.28249  0.08013  1.0000
  C   C2404     1.0  0.60921  0.26963  0.08187  1.0000
  C   C2405     1.0  0.61514  0.26237  0.09125  1.0000
  C   C2406     1.0  0.61903  0.26794  0.09859  1.0000
  H   H2378     1.0  0.60915  0.29797  0.08596  1.0000
  H   H2379     1.0  0.60235  0.28821  0.07294  1.0000
  H   H2380     1.0  0.61679  0.25247  0.09282  1.0000
  H   H2381     1.0  0.62387  0.26222  0.10562  1.0000
  C   C2407     1.0  0.61169  0.36425  0.10013  1.0000
  C   C2408     1.0  0.62388  0.36559  0.09571  1.0000
  C   C2409     1.0  0.62755  0.37564  0.09725  1.0000
  C   C2410     1.0  0.61904  0.38464  0.10299  1.0000
  C   C2411     1.0  0.60685  0.38323  0.10766  1.0000
  C   C2412     1.0  0.60321  0.37302  0.10629  1.0000
  H   H2382     1.0  0.63044  0.35906  0.09073  1.0000
  H   H2383     1.0  0.63701  0.37660  0.09368  1.0000
  H   H2384     1.0  0.60024  0.38998  0.11230  1.0000
  H   H2385     1.0  0.59373  0.37214  0.10963  1.0000
  C   C2413     1.0  0.53613  0.42064  0.11182  1.0000
  C   C2414     1.0  0.53620  0.43193  0.10353  1.0000
  C   C2415     1.0  0.54719  0.43604  0.09824  1.0000
  C   C2416     1.0  0.55821  0.42919  0.10153  1.0000
  C   C2417     1.0  0.55821  0.41797  0.11010  1.0000
  C   C2418     1.0  0.54718  0.41359  0.11509  1.0000
  H   H2386     1.0  0.52771  0.43748  0.10105  1.0000
  H   H2387     1.0  0.54712  0.44463  0.09154  1.0000
  H   H2388     1.0  0.56671  0.41254  0.11261  1.0000
  H   H2389     1.0  0.54717  0.40497  0.12169  1.0000
  C   C2419     1.0  0.55055  0.34964  0.10826  1.0000
  C   C2420     1.0  0.56332  0.34773  0.10621  1.0000
  C   C2421     1.0  0.56980  0.33793  0.11364  1.0000
  C   C2422     1.0  0.56360  0.32976  0.12289  1.0000
  C   C2423     1.0  0.55083  0.33149  0.12477  1.0000
  C   C2424     1.0  0.54429  0.34151  0.11753  1.0000
  H   H2390     1.0  0.56819  0.35407  0.09918  1.0000
  H   H2391     1.0  0.57954  0.33705  0.11243  1.0000
  H   H2392     1.0  0.54598  0.32526  0.13198  1.0000
  H   H2393     1.0  0.53441  0.34294  0.11915  1.0000
  N   N192      1.0  0.61981  0.17433  0.11091  1.0000
  H   H2394     1.0  0.51537  0.36112  0.09079  1.0000
  H   H2395     1.0  0.55524  0.44452  0.12397  1.0000
  H   H2396     1.0  0.87773  0.09036  0.14707  1.0000
  H   H2397     1.0  0.54245  0.13221  0.11874  1.0000
  H   H2398     1.0  0.61406  0.19367  0.10870  1.0000
  S   S848      1.0  0.51428  0.38863  0.11001  1.0000
  C   C2425     1.0  0.59513  0.41750  0.15387  1.0000
  C   C2426     1.0  0.60787  0.41619  0.15195  1.0000
  C   C2427     1.0  0.61485  0.40573  0.15828  1.0000
  H   H2399     1.0  0.57064  0.30870  0.09309  1.0000
  C   C2428     1.0  0.87756  0.06957  0.13130  1.0000
  H   H2400     1.0  0.61231  0.42332  0.14573  1.0000
  H   H2401     1.0  0.69045  0.09022  0.08512  1.0000
  H   H2402     1.0  0.86046  0.14004  0.13404  1.0000
  H   H2403     1.0  0.82678  0.07748  0.17471  1.0000
  H   H2404     1.0  0.62769  0.33668  0.15893  1.0000
  C   C2429     1.0  0.62333  0.15469  0.12473  1.0000
  C   C2430     1.0  0.60815  0.15937  0.11243  1.0000
  C   C2431     1.0  0.61433  0.15122  0.12120  1.0000
  H   H2405     1.0  0.62832  0.14834  0.13140  1.0000
  H   H2406     1.0  0.60112  0.15675  0.10963  1.0000
  H   H2407     1.0  0.61217  0.14220  0.12520  1.0000
  N   N193      1.0  0.64375  0.25831  0.07610  1.0000
  C   C2432     1.0  0.64208  0.27081  0.07405  1.0000
  C   C2433     1.0  0.64925  0.25089  0.08537  1.0000
  C   C2434     1.0  0.64564  0.27622  0.08163  1.0000
  C   C2435     1.0  0.65284  0.25600  0.09318  1.0000
  C   C2436     1.0  0.65091  0.26876  0.09134  1.0000
  C   C2437     1.0  0.63968  0.25270  0.06839  1.0000
  H   H2408     1.0  0.63755  0.27670  0.06682  1.0000
  H   H2409     1.0  0.65064  0.24096  0.08687  1.0000
  H   H2410     1.0  0.64376  0.28614  0.08038  1.0000
  H   H2411     1.0  0.65688  0.25013  0.10074  1.0000
  H   H2412     1.0  0.65319  0.27291  0.09759  1.0000
  H   H2413     1.0  0.64772  0.24841  0.06203  1.0000
  H   H2414     1.0  0.63469  0.24544  0.07422  1.0000
  H   H2415     1.0  0.63317  0.25946  0.06302  1.0000
  N   N194      1.0  0.70473  0.15396  0.09685  1.0000
  C   C2438     1.0  0.71443  0.15016  0.10262  1.0000
  C   C2439     1.0  0.69318  0.15841  0.10303  1.0000
  C   C2440     1.0  0.71261  0.15039  0.11500  1.0000
  C   C2441     1.0  0.69103  0.15873  0.11542  1.0000
  C   C2442     1.0  0.70082  0.15462  0.12144  1.0000
  C   C2443     1.0  0.70683  0.15376  0.08385  1.0000
  H   H2416     1.0  0.72358  0.14654  0.09778  1.0000
  H   H2417     1.0  0.68550  0.16164  0.09843  1.0000
  H   H2418     1.0  0.72025  0.14687  0.11967  1.0000
  H   H2419     1.0  0.68180  0.16207  0.12031  1.0000
  H   H2420     1.0  0.69926  0.15459  0.13111  1.0000
  H   H2421     1.0  0.70878  0.16266  0.07806  1.0000
  H   H2422     1.0  0.71462  0.14618  0.08133  1.0000
  H   H2423     1.0  0.69868  0.15200  0.08176  1.0000
  H   H2424     1.0  0.57267  0.29052  0.08441  1.0000
  H   H2425     1.0  0.60632  0.17721  0.10047  1.0000
  C   C2444     1.0  0.57586  0.28940  0.09272  1.0000
  H   H2426     1.0  0.87643  0.08917  0.12642  1.0000
  H   H2427     1.0  0.63292  0.16903  0.12233  1.0000
  C   C2445     1.0  0.84891  0.15316  0.15886  1.0000
  H   H2428     1.0  0.65659  0.20028  0.04002  1.0000
  C   C2446     1.0  0.53591  0.41650  0.15734  1.0000
  C   C2447     1.0  0.49928  0.34719  0.11729  1.0000
  H   H2429     1.0  0.83186  0.16161  0.01219  1.0000
  N   N195      1.0  0.86753  0.13810  0.16114  1.0000
  H   H2430     1.0  0.53922  0.43339  0.12824  1.0000
  H   H2431     1.0  0.59940  0.12956  0.99525  1.0000
  H   H2432     1.0  0.65911  0.46450  0.10119  1.0000
  H   H2433     1.0  0.87883  0.05024  0.13886  1.0000
  C   C2448     1.0  0.61693  0.32422  0.15849  1.0000
  C   C2449     1.0  0.60436  0.48584  0.12349  1.0000
  C   C2450     1.0  0.55993  0.43754  0.13086  1.0000
  S   S849      1.0  0.50768  0.38845  0.13956  1.0000
  H   H2434     1.0  0.65568  0.17453  0.03756  1.0000
  N   N196      1.0  0.58552  0.39763  0.08432  1.0000
  C   C2451     1.0  0.57331  0.40304  0.08682  1.0000
  C   C2452     1.0  0.58909  0.38537  0.08425  1.0000
  C   C2453     1.0  0.56431  0.39599  0.09016  1.0000
  C   C2454     1.0  0.58035  0.37803  0.08752  1.0000
  C   C2455     1.0  0.56788  0.38338  0.09059  1.0000
  C   C2456     1.0  0.59479  0.40516  0.08120  1.0000
  H   H2435     1.0  0.57048  0.41286  0.08629  1.0000
  H   H2436     1.0  0.59876  0.38110  0.08190  1.0000
  H   H2437     1.0  0.55463  0.40029  0.09243  1.0000
  H   H2438     1.0  0.58329  0.36823  0.08778  1.0000
  H   H2439     1.0  0.56099  0.37779  0.09321  1.0000
  H   H2440     1.0  0.60363  0.39962  0.08361  1.0000
  H   H2441     1.0  0.59644  0.40935  0.07125  1.0000
  H   H2442     1.0  0.59170  0.41265  0.08641  1.0000
  N   N197      1.0  0.81342  0.14105  0.07387  1.0000
  C   C2457     1.0  0.80705  0.13853  0.06675  1.0000
  C   C2458     1.0  0.80863  0.14055  0.08611  1.0000
  C   C2459     1.0  0.79569  0.13514  0.07195  1.0000
  C   C2460     1.0  0.79727  0.13726  0.09157  1.0000
  C   C2461     1.0  0.79078  0.13456  0.08443  1.0000
  C   C2462     1.0  0.82538  0.14452  0.06845  1.0000
  H   H2443     1.0  0.81085  0.13883  0.05706  1.0000
  H   H2444     1.0  0.81372  0.14239  0.09181  1.0000
  H   H2445     1.0  0.79079  0.13276  0.06641  1.0000
  H   H2446     1.0  0.79362  0.13669  0.10131  1.0000
  H   H2447     1.0  0.78203  0.13188  0.08857  1.0000
  H   H2448     1.0  0.82454  0.15436  0.06826  1.0000
  H   H2449     1.0  0.83226  0.13885  0.07397  1.0000
  H   H2450     1.0  0.82905  0.14298  0.05894  1.0000
  N   N198      1.0  0.62160  0.37617  0.13790  1.0000
  C   C2463     1.0  0.62702  0.36976  0.12879  1.0000
  C   C2464     1.0  0.61296  0.37190  0.14764  1.0000
  C   C2465     1.0  0.62353  0.35896  0.12910  1.0000
  C   C2466     1.0  0.60933  0.36108  0.14829  1.0000
  C   C2467     1.0  0.61456  0.35468  0.13887  1.0000
  C   C2468     1.0  0.62504  0.38763  0.13740  1.0000
  H   H2451     1.0  0.63397  0.37306  0.12113  1.0000
  H   H2452     1.0  0.60889  0.37684  0.15500  1.0000
  H   H2453     1.0  0.62772  0.35394  0.12180  1.0000
  H   H2454     1.0  0.60267  0.35757  0.15613  1.0000
  H   H2455     1.0  0.61184  0.34628  0.13923  1.0000
  H   H2456     1.0  0.61678  0.39524  0.13764  1.0000
  H   H2457     1.0  0.62915  0.38660  0.14536  1.0000
  H   H2458     1.0  0.63178  0.39036  0.12884  1.0000
  C   C2469     1.0  0.81286  0.05931  0.17304  1.0000
  H   H2459     1.0  0.87010  0.16211  0.99812  1.0000
  H   H2460     1.0  0.60421  0.47612  0.12598  1.0000
  C   C2470     1.0  0.55364  0.37841  0.17621  1.0000
  C   C2471     1.0  0.53339  0.42201  0.14573  1.0000
  H   H2461     1.0  0.55261  0.39368  0.16083  1.0000
  C   C2472     1.0  0.50467  0.12325  0.10602  1.0000
  H   H2462     1.0  0.66749  0.45788  0.08803  1.0000
  C   C2473     1.0  0.51889  0.13714  0.12791  1.0000
  H   H2463     1.0  0.70001  0.09810  0.12012  1.0000
  C   C2474     1.0  0.82499  0.16848  0.99070  1.0000
  H   H2464     1.0  0.52553  0.42060  0.14322  1.0000
  H   H2465     1.0  0.67929  0.10016  0.13400  1.0000
  C   C2475     1.0  0.85974  0.14209  0.14286  1.0000
  H   H2466     1.0  0.54162  0.35330  0.18023  1.0000
  N   N199      1.0  0.58460  0.28650  0.11369  1.0000
  C   C2476     1.0  0.58586  0.27650  0.10892  1.0000
  C   C2477     1.0  0.57924  0.29795  0.10809  1.0000
  C   C2478     1.0  0.58136  0.27777  0.09847  1.0000
  C   C2479     1.0  0.87798  0.08157  0.14521  1.0000
  C   C2480     1.0  0.58970  0.28500  0.12442  1.0000
  H   H2467     1.0  0.59057  0.26750  0.11304  1.0000
  H   H2468     1.0  0.57843  0.30592  0.11173  1.0000
  H   H2469     1.0  0.58260  0.26985  0.09455  1.0000
  H   H2470     1.0  0.58505  0.29252  0.12946  1.0000
  H   H2471     1.0  0.58849  0.27622  0.13099  1.0000
  H   H2472     1.0  0.59967  0.28508  0.12147  1.0000
  N   N200      1.0  0.57812  0.17937  0.03158  1.0000
  C   C2481     1.0  0.57711  0.18897  0.03685  1.0000
  C   C2482     1.0  0.58458  0.17934  0.01981  1.0000
  C   C2483     1.0  0.58263  0.19889  0.03029  1.0000
  C   C2484     1.0  0.59011  0.18916  0.01294  1.0000
  C   C2485     1.0  0.58909  0.19899  0.01823  1.0000
  C   C2486     1.0  0.57275  0.16877  0.03866  1.0000
  H   H2473     1.0  0.57204  0.18903  0.04619  1.0000
  H   H2474     1.0  0.58551  0.17167  0.01567  1.0000
  H   H2475     1.0  0.58197  0.20640  0.03456  1.0000
  H   H2476     1.0  0.59530  0.18907  0.00362  1.0000
  H   H2477     1.0  0.59343  0.20662  0.01303  1.0000
  H   H2478     1.0  0.58002  0.16104  0.04192  1.0000
  H   H2479     1.0  0.56561  0.17097  0.04683  1.0000
  H   H2480     1.0  0.56833  0.16567  0.03293  1.0000
  N   N201      1.0  0.87145  0.06277  0.05740  1.0000
  C   C2487     1.0  0.87820  0.05403  0.06500  1.0000
  C   C2488     1.0  0.85887  0.06506  0.06043  1.0000
  C   C2489     1.0  0.87236  0.04694  0.07569  1.0000
  C   C2490     1.0  0.85274  0.05830  0.07116  1.0000
  C   C2491     1.0  0.85955  0.04911  0.07875  1.0000
  C   C2492     1.0  0.87779  0.07002  0.04622  1.0000
  H   H2481     1.0  0.88815  0.05262  0.06291  1.0000
  H   H2482     1.0  0.85347  0.07215  0.05457  1.0000
  H   H2483     1.0  0.87773  0.04008  0.08175  1.0000
  H   H2484     1.0  0.84276  0.06026  0.07363  1.0000
  H   H2485     1.0  0.85488  0.04383  0.08709  1.0000
  H   H2486     1.0  0.87180  0.07428  0.03946  1.0000
  H   H2487     1.0  0.88058  0.07747  0.04854  1.0000
  H   H2488     1.0  0.88614  0.06417  0.04170  1.0000
  N   N202      1.0  0.61386  0.14995  0.06372  1.0000
  C   C2493     1.0  0.62099  0.13881  0.06773  1.0000
  C   C2494     1.0  0.60747  0.15136  0.05487  1.0000
  C   C2495     1.0  0.62214  0.12879  0.06261  1.0000
  C   C2496     1.0  0.60840  0.14152  0.04957  1.0000
  C   C2497     1.0  0.61587  0.13021  0.05342  1.0000
  C   C2498     1.0  0.61253  0.16026  0.06941  1.0000
  H   H2489     1.0  0.60160  0.16010  0.05189  1.0000
  H   H2490     1.0  0.62796  0.12001  0.06563  1.0000
  H   H2491     1.0  0.60338  0.14262  0.04254  1.0000
  H   H2492     1.0  0.61685  0.12256  0.04924  1.0000
  H   H2493     1.0  0.62108  0.15981  0.07235  1.0000
  H   H2494     1.0  0.61075  0.16918  0.06284  1.0000
  H   H2495     1.0  0.50558  0.14229  0.10273  1.0000
  S   S850      1.0  0.86736  0.99238  0.12842  1.0000
  H   H2496     1.0  0.59190  0.39052  0.17361  1.0000
  C   C2499     1.0  0.55999  0.35361  0.13833  1.0000
  H   H2497     1.0  0.84299  0.15578  0.14202  1.0000
  H   H2498     1.0  0.64037  0.20615  0.04015  1.0000
  H   H2499     1.0  0.85264  0.15878  0.01584  1.0000
  C   C2500     1.0  0.83934  0.16341  0.00442  1.0000
  H   H2500     1.0  0.84115  0.15978  0.16259  1.0000
  C   C2501     1.0  0.65859  0.46336  0.09211  1.0000
  C   C2502     1.0  0.52070  0.11557  0.13157  1.0000
  C   C2503     1.0  0.84694  0.16861  0.98292  1.0000
  H   H2501     1.0  0.50351  0.34895  0.12377  1.0000
  C   C2504     1.0  0.57466  0.33597  0.16477  1.0000
  H   H2502     1.0  0.62141  0.48498  0.08738  1.0000
  N   N203      1.0  0.80027  0.05991  0.08895  1.0000
  C   C2505     1.0  0.79905  0.05136  0.09973  1.0000
  C   C2506     1.0  0.79142  0.07041  0.08734  1.0000
  C   C2507     1.0  0.78873  0.05321  0.10922  1.0000
  C   C2508     1.0  0.78102  0.07260  0.09663  1.0000
  C   C2509     1.0  0.77970  0.06395  0.10766  1.0000
  C   C2510     1.0  0.81158  0.05826  0.07950  1.0000
  H   H2503     1.0  0.80634  0.04330  0.10124  1.0000
  H   H2504     1.0  0.79245  0.07726  0.07891  1.0000
  H   H2505     1.0  0.78801  0.04664  0.11792  1.0000
  H   H2506     1.0  0.77421  0.08111  0.09535  1.0000
  H   H2507     1.0  0.77192  0.06575  0.11514  1.0000
  H   H2508     1.0  0.81875  0.06169  0.08161  1.0000
  H   H2509     1.0  0.81513  0.04843  0.07908  1.0000
  H   H2510     1.0  0.81006  0.06345  0.07025  1.0000
  C   C2511     1.0  0.87721  0.08091  0.13361  1.0000
  N   N204      1.0  0.82282  0.09367  0.12437  1.0000
  C   C2512     1.0  0.83129  0.09234  0.13119  1.0000
  C   C2513     1.0  0.82585  0.08816  0.11459  1.0000
  C   C2514     1.0  0.84316  0.08533  0.12825  1.0000
  C   C2515     1.0  0.83751  0.08077  0.11163  1.0000
  C   C2516     1.0  0.84626  0.07951  0.11840  1.0000
  C   C2517     1.0  0.81046  0.10119  0.12734  1.0000
  H   H2511     1.0  0.82898  0.09698  0.13875  1.0000
  H   H2512     1.0  0.81924  0.08955  0.10898  1.0000
  H   H2513     1.0  0.84991  0.08455  0.13351  1.0000
  H   H2514     1.0  0.83975  0.07611  0.10408  1.0000
  H   H2515     1.0  0.85542  0.07404  0.11597  1.0000
  H   H2516     1.0  0.80340  0.09592  0.12816  1.0000
  H   H2517     1.0  0.80874  0.10404  0.13617  1.0000
  H   H2518     1.0  0.80928  0.10965  0.12002  1.0000
  C   C2518     1.0  0.61108  0.17093  0.10731  1.0000
  H   H2519     1.0  0.62432  0.18847  0.09549  1.0000
  Fe  Fe427     1.0  0.84891  0.11478  0.18043  1.0000
  H   H2520     1.0  0.64543  0.19092  0.04837  1.0000
  C   C2519     1.0  0.55000  0.38500  0.16521  1.0000
  H   H2521     1.0  0.67551  0.10006  0.08467  1.0000
  H   H2522     1.0  0.87882  0.05055  0.17084  1.0000
  C   C2520     1.0  0.85783  0.14661  0.16569  1.0000
  H   H2523     1.0  0.68872  0.10675  0.08121  1.0000
  C   C2521     1.0  0.88067  0.04851  0.16158  1.0000
  C   C2522     1.0  0.87914  0.07084  0.15436  1.0000
  C   C2523     1.0  0.85109  0.16184  0.00655  1.0000
  S   S851      1.0  0.85735  0.06928  0.18175  1.0000
  S   S852      1.0  0.61127  0.16415  0.98731  1.0000
  C   C2524     1.0  0.67151  0.10023  0.10767  1.0000
  C   C2525     1.0  0.57478  0.29958  0.09754  1.0000
  C   C2526     1.0  0.87857  0.05904  0.14069  1.0000
  C   C2527     1.0  0.62592  0.16639  0.11952  1.0000
  H   H2524     1.0  0.79129  0.06438  0.15620  1.0000
  H   H2525     1.0  0.60484  0.31204  0.16092  1.0000
  S   S853      1.0  0.61771  0.38304  0.17378  1.0000
  C   C2528     1.0  0.55402  0.42519  0.15146  1.0000
  C   C2529     1.0  0.62487  0.48050  0.09564  1.0000
  N   N205      1.0  0.87930  0.05978  0.15205  1.0000
  H   H2526     1.0  0.85682  0.14823  0.17475  1.0000
  N   N206      1.0  0.81132  0.07098  0.17460  1.0000
  H   H2527     1.0  0.56735  0.36928  0.14653  1.0000
  C   C2530     1.0  0.68444  0.09901  0.08715  1.0000
  N   N207      1.0  0.52603  0.12557  0.12809  1.0000
  C   C2531     1.0  0.49571  0.09460  0.08669  1.0000
  C   C2532     1.0  0.49823  0.34848  0.09677  1.0000
  C   C2533     1.0  0.86845  0.13565  0.14996  1.0000
  C   C2534     1.0  0.54627  0.41814  0.16026  1.0000
  C   C2535     1.0  0.56951  0.35987  0.15153  1.0000
  C   C2536     1.0  0.63074  0.48682  0.10043  1.0000
  H   H2528     1.0  0.64607  0.20301  0.99949  1.0000
  C   C2537     1.0  0.64836  0.19672  0.00777  1.0000
  C   C2538     1.0  0.87665  0.13111  0.16851  1.0000
  H   H2529     1.0  0.65123  0.45815  0.09389  1.0000
  H   H2530     1.0  0.80182  0.08959  0.17060  1.0000
  H   H2531     1.0  0.66341  0.10100  0.10423  1.0000
  C   C2539     1.0  0.62008  0.33223  0.16377  1.0000
  N   N208      1.0  0.68293  0.09916  0.10009  1.0000
  H   H2532     1.0  0.88605  0.12963  0.16266  1.0000
  C   C2540     1.0  0.84727  0.13509  0.99936  1.0000
  H   H2533     1.0  0.54028  0.38565  0.15139  1.0000
  C   C2541     1.0  0.69308  0.09825  0.10450  1.0000
  C   C2542     1.0  0.67004  0.10054  0.11998  1.0000
  H   H2534     1.0  0.70209  0.09768  0.09842  1.0000
  H   H2535     1.0  0.66092  0.10160  0.12588  1.0000
  C   C2543     1.0  0.80580  0.05676  0.16628  1.0000
  C   C2544     1.0  0.56898  0.33881  0.15481  1.0000
  C   C2545     1.0  0.69194  0.09852  0.11676  1.0000
  H   H2536     1.0  0.87586  0.12858  0.14651  1.0000
  H   H2537     1.0  0.87435  0.12207  0.17341  1.0000
  C   C2546     1.0  0.60721  0.31836  0.16488  1.0000
  C   C2547     1.0  0.57519  0.35735  0.16143  1.0000
  C   C2548     1.0  0.65990  0.48505  0.08474  1.0000
  C   C2549     1.0  0.58940  0.40829  0.16185  1.0000
  C   C2550     1.0  0.80295  0.08035  0.16943  1.0000
  C   C2551     1.0  0.84992  0.15091  0.14735  1.0000
  H   H2538     1.0  0.87397  0.04298  0.16196  1.0000
  H   H2539     1.0  0.62072  0.11862  0.98505  1.0000
  C   C2552     1.0  0.79704  0.06623  0.16124  1.0000
  H   H2540     1.0  0.57663  0.32658  0.16988  1.0000
  C   C2553     1.0  0.85882  0.16705  0.98471  1.0000
  H   H2541     1.0  0.55379  0.36281  0.13782  1.0000
  S   S854      1.0  0.53142  0.36277  0.15862  1.0000
  H   H2542     1.0  0.89014  0.04292  0.15959  1.0000
  C   C2554     1.0  0.65168  0.18410  0.00828  1.0000
  H   H2543     1.0  0.65709  0.16623  0.01951  1.0000
  C   C2555     1.0  0.61337  0.33462  0.17524  1.0000
  H   H2544     1.0  0.58166  0.34335  0.17613  1.0000
  N   N209      1.0  0.50370  0.35055  0.10494  1.0000
  H   H2545     1.0  0.57959  0.40914  0.16320  1.0000
  H   H2546     1.0  0.81970  0.16215  0.99787  1.0000
  S   S855      1.0  0.50382  0.09870  0.11148  1.0000
  C   C2556     1.0  0.65446  0.17608  0.01901  1.0000
  H   H2547     1.0  0.54324  0.12154  0.13325  1.0000
  C   C2557     1.0  0.54123  0.42918  0.13724  1.0000
  H   H2548     1.0  0.78892  0.08557  0.15871  1.0000
  C   C2558     1.0  0.86089  0.16358  0.99661  1.0000
  H   H2549     1.0  0.65193  0.18055  0.00041  1.0000
  H   H2550     1.0  0.56664  0.33150  0.15222  1.0000
  C   C2559     1.0  0.54313  0.38039  0.15977  1.0000
  H   H2551     1.0  0.56689  0.35339  0.12959  1.0000
  N   N210      1.0  0.55138  0.43070  0.14017  1.0000
  H   H2552     1.0  0.56221  0.42614  0.15371  1.0000
  C   C2560     1.0  0.54395  0.36217  0.17600  1.0000
  C   C2561     1.0  0.60910  0.39645  0.16623  1.0000
  C   C2562     1.0  0.64735  0.20112  0.01821  1.0000
  C   C2563     1.0  0.65352  0.18081  0.02923  1.0000
  H   H2553     1.0  0.56732  0.43108  0.12600  1.0000
  C   C2564     1.0  0.60390  0.32849  0.18179  1.0000
  H   H2554     1.0  0.50339  0.07599  0.10429  1.0000
  N   N211      1.0  0.65580  0.47532  0.08383  1.0000
  N   N212      1.0  0.56619  0.35070  0.14856  1.0000
  C   C2565     1.0  0.53996  0.36898  0.16521  1.0000
  C   C2566     1.0  0.64796  0.19785  0.03988  1.0000
  N   N213      1.0  0.64955  0.19314  0.02888  1.0000
  H   H2555     1.0  0.64432  0.21092  0.01788  1.0000
  H   H2556     1.0  0.64610  0.46889  0.07434  1.0000
  H   H2557     1.0  0.56424  0.44240  0.13512  1.0000
  H   H2558     1.0  0.55404  0.34702  0.13964  1.0000
  C   C2567     1.0  0.59641  0.39772  0.16785  1.0000
  H   H2559     1.0  0.52634  0.10642  0.13154  1.0000
  C   C2568     1.0  0.60092  0.32024  0.17666  1.0000
  H   H2560     1.0  0.54362  0.11634  0.11970  1.0000
  S   S856      1.0  0.59240  0.36490  0.18163  1.0000
  H   H2561     1.0  0.58910  0.13784  0.98534  1.0000
  Fe  Fe428     1.0  0.85102  0.08957  0.17547  1.0000
  H   H2562     1.0  0.87977  0.07144  0.16335  1.0000
  C   C2569     1.0  0.64947  0.47657  0.07498  1.0000
  H   H2563     1.0  0.80720  0.04748  0.16495  1.0000
  C   C2570     1.0  0.85177  0.05997  0.17568  1.0000
  H   H2564     1.0  0.52302  0.34902  0.10143  1.0000
  C   C2571     1.0  0.51450  0.35616  0.10053  1.0000
  N   N214      1.0  0.83743  0.16661  0.99272  1.0000
  H   H2565     1.0  0.82007  0.17813  0.99074  1.0000
  H   H2566     1.0  0.50167  0.35119  0.08698  1.0000
  H   H2567     1.0  0.53002  0.41076  0.16397  1.0000
  H   H2568     1.0  0.59368  0.31539  0.18175  1.0000
  C   C2572     1.0  0.50605  0.13893  0.13101  1.0000
  C   C2573     1.0  0.50054  0.12880  0.13442  1.0000
  H   H2569     1.0  0.57724  0.36476  0.16413  1.0000
  C   C2574     1.0  0.50789  0.11702  0.13475  1.0000
  H   H2570     1.0  0.61577  0.34095  0.17916  1.0000
  H   H2571     1.0  0.50369  0.10911  0.13702  1.0000
  H   H2572     1.0  0.61372  0.48488  0.13753  1.0000
  Fe  Fe429     1.0  0.62789  0.14894  0.98428  1.0000
  C   C2575     1.0  0.57762  0.34534  0.16818  1.0000
  H   H2573     1.0  0.50042  0.14814  0.13043  1.0000
  C   C2576     1.0  0.81907  0.07368  0.18130  1.0000
  C   C2577     1.0  0.55074  0.36685  0.18149  1.0000
  C   C2578     1.0  0.64680  0.48790  0.06694  1.0000
  Fe  Fe430     1.0  0.59080  0.36857  0.21466  1.0000
  S   S857      1.0  0.60756  0.35790  0.20386  1.0000
  S   S858      1.0  0.58991  0.37033  0.23427  1.0000
  H   H2574     1.0  0.74433  0.36174  0.33050  1.0000
  S   S859      1.0  0.61718  0.48072  0.33982  1.0000
  Fe  Fe431     1.0  0.82871  0.99248  0.34486  1.0000
  Fe  Fe432     1.0  0.59419  0.35033  0.19846  1.0000
  H   H2575     1.0  0.97732  0.34812  0.33906  1.0000
  H   H2576     1.0  0.81928  0.04655  0.31750  1.0000
  C   C2579     1.0  0.89669  0.11903  0.37452  1.0000
  S   S860      1.0  0.57748  0.35968  0.21038  1.0000
  S   S861      1.0  0.58793  0.38474  0.19904  1.0000
  H   H2577     1.0  0.83025  0.07004  0.33375  1.0000
  C   C2580     1.0  0.98475  0.36519  0.35968  1.0000
  H   H2578     1.0  0.81182  0.03466  0.33828  1.0000
  S   S862      1.0  0.83182  0.01219  0.33813  1.0000
  Fe  Fe433     1.0  0.89353  0.12328  0.26872  1.0000
  S   S863      1.0  0.87719  0.13730  0.27518  1.0000
  S   S864      1.0  0.90429  0.11263  0.28349  1.0000
  Fe  Fe434     1.0  0.88708  0.12863  0.24299  1.0000
  S   S865      1.0  0.87121  0.14396  0.24756  1.0000
  S   S866      1.0  0.88982  0.12079  0.22594  1.0000
  Fe  Fe435     1.0  0.88330  0.14904  0.25696  1.0000
  S   S867      1.0  0.88366  0.16813  0.25789  1.0000
  Fe  Fe436     1.0  0.86693  0.13073  0.26527  1.0000
  S   S868      1.0  0.84767  0.12790  0.27147  1.0000
  S   S869      1.0  0.90003  0.13517  0.25050  1.0000
  S   S870      1.0  0.88245  0.11522  0.26078  1.0000
  Fe  Fe437     1.0  0.96935  0.11576  0.33248  1.0000
  S   S871      1.0  0.95484  0.11591  0.34979  1.0000
  Fe  Fe438     1.0  0.94967  0.12547  0.31641  1.0000
  S   S872      1.0  0.93423  0.12713  0.33277  1.0000
  S   S873      1.0  0.94421  0.13224  0.29777  1.0000
  Fe  Fe439     1.0  0.94659  0.13427  0.33981  1.0000
  S   S874      1.0  0.94146  0.15000  0.34920  1.0000
  Fe  Fe440     1.0  0.94400  0.10853  0.34104  1.0000
  S   S875      1.0  0.93155  0.09563  0.35242  1.0000
  S   S876      1.0  0.96128  0.13459  0.32271  1.0000
  S   S877      1.0  0.95923  0.10637  0.32445  1.0000
  Fe  Fe441     1.0  0.88856  0.18586  0.32684  1.0000
  S   S878      1.0  0.88338  0.17947  0.34718  1.0000
  S   S879      1.0  0.90662  0.19143  0.31930  1.0000
  Fe  Fe442     1.0  0.86490  0.18322  0.32255  1.0000
  S   S880      1.0  0.85727  0.17721  0.34272  1.0000
  S   S881      1.0  0.85501  0.18456  0.30776  1.0000
  Fe  Fe443     1.0  0.86523  0.19216  0.34526  1.0000
  S   S882      1.0  0.85564  0.20716  0.35623  1.0000
  Fe  Fe444     1.0  0.87616  0.16520  0.34274  1.0000
  S   S883      1.0  0.88233  0.14479  0.35007  1.0000
  S   S884      1.0  0.87093  0.19921  0.32495  1.0000
  S   S885      1.0  0.88324  0.17056  0.32247  1.0000
  Fe  Fe445     1.0  0.85945  0.08818  0.34657  1.0000
  S   S886      1.0  0.86881  0.09102  0.32679  1.0000
  S   S887      1.0  0.85094  0.10583  0.35345  1.0000
  Fe  Fe446     1.0  0.86300  0.06007  0.34880  1.0000
  S   S888      1.0  0.87349  0.06120  0.32935  1.0000
  S   S889      1.0  0.85767  0.04187  0.35973  1.0000
  Fe  Fe447     1.0  0.88271  0.07437  0.33306  1.0000
  S   S890      1.0  0.90251  0.07600  0.32485  1.0000
  Fe  Fe448     1.0  0.85862  0.07767  0.32535  1.0000
  S   S891      1.0  0.84723  0.07918  0.31193  1.0000
  S   S892      1.0  0.87366  0.07183  0.35309  1.0000
  S   S893      1.0  0.84784  0.07626  0.34460  1.0000
  S   S894      1.0  0.98242  0.39853  0.34349  1.0000
  H   H2579     1.0  0.90485  0.08662  0.29800  1.0000
  S   S895      1.0  0.88212  0.27104  0.36714  1.0000
  H   H2580     1.0  0.84316  0.03239  0.18423  1.0000
  H   H2581     1.0  0.70141  0.38874  0.35714  1.0000
  N   N215      1.0  0.86764  0.99775  0.35115  1.0000
  S   S896      1.0  0.85489  0.29831  0.35857  1.0000
  H   H2582     1.0  0.91839  0.41101  0.35829  1.0000
  C   C2581     1.0  0.97004  0.13318  0.36315  1.0000
  C   C2582     1.0  0.97939  0.35282  0.34496  1.0000
  C   C2583     1.0  0.87178  0.00820  0.34476  1.0000
  C   C2584     1.0  0.82321  0.05915  0.35709  1.0000
  S   S897      1.0  0.81148  0.36038  0.36011  1.0000
  H   H2583     1.0  0.74360  0.34632  0.33924  1.0000
  H   H2584     1.0  0.64703  0.39813  0.24079  1.0000
  S   S898      1.0  0.81355  0.38669  0.36474  1.0000
  Fe  Fe449     1.0  0.79853  0.37660  0.36704  1.0000
  S   S899      1.0  0.77945  0.38610  0.36354  1.0000
  Fe  Fe450     1.0  0.82653  0.36963  0.35968  1.0000
  S   S900      1.0  0.84461  0.36775  0.34608  1.0000
  C   C2585     1.0  0.68502  0.39100  0.37098  1.0000
  H   H2585     1.0  0.88413  0.13618  0.37636  1.0000
  Fe  Fe451     1.0  0.90155  0.37319  0.35947  1.0000
  S   S901      1.0  0.90009  0.35425  0.37011  1.0000
  S   S902      1.0  0.88398  0.38747  0.36033  1.0000
  Fe  Fe452     1.0  0.92880  0.36556  0.34862  1.0000
  S   S903      1.0  0.92943  0.34571  0.35803  1.0000
  S   S904      1.0  0.94533  0.37132  0.33476  1.0000
  Fe  Fe453     1.0  0.91133  0.34826  0.35298  1.0000
  S   S905      1.0  0.90364  0.33578  0.34652  1.0000
  C   C2586     1.0  0.98683  0.11950  0.37178  1.0000
  S   S906      1.0  0.91171  0.36735  0.34193  1.0000
  S   S907      1.0  0.91864  0.37328  0.36526  1.0000
  Fe  Fe454     1.0  0.73498  0.38990  0.32260  1.0000
  S   S908      1.0  0.72394  0.37889  0.31806  1.0000
  S   S909      1.0  0.75563  0.38390  0.32088  1.0000
  Fe  Fe455     1.0  0.71229  0.40820  0.33154  1.0000
  S   S910      1.0  0.69931  0.39873  0.32832  1.0000
  S   S911      1.0  0.70472  0.42463  0.34009  1.0000
  Fe  Fe456     1.0  0.71144  0.38143  0.33607  1.0000
  S   S912      1.0  0.70267  0.36669  0.34948  1.0000
  Fe  Fe457     1.0  0.71270  0.39713  0.31058  1.0000
  S   S913      1.0  0.70397  0.40247  0.29420  1.0000
  S   S914      1.0  0.72318  0.39100  0.34117  1.0000
  S   S915      1.0  0.72499  0.40804  0.31317  1.0000
  Fe  Fe458     1.0  0.65034  0.47165  0.32161  1.0000
  S   S916      1.0  0.64071  0.45783  0.33548  1.0000
  S   S917      1.0  0.66820  0.46411  0.30988  1.0000
  C   C2587     1.0  0.87212  0.22870  0.37403  1.0000
  Fe  Fe459     1.0  0.63442  0.47204  0.34688  1.0000
  S   S918      1.0  0.63413  0.46561  0.36695  1.0000
  Fe  Fe460     1.0  0.62447  0.46755  0.32719  1.0000
  S   S919      1.0  0.61315  0.45610  0.32390  1.0000
  H   H2586     1.0  0.67417  0.45912  0.28594  1.0000
  C   C2588     1.0  0.62624  0.45352  0.37215  1.0000
  Fe  Fe461     1.0  0.63587  0.40818  0.28489  1.0000
  S   S920      1.0  0.61801  0.40326  0.28582  1.0000
  S   S921      1.0  0.64073  0.42638  0.28247  1.0000
  Fe  Fe462     1.0  0.64946  0.38171  0.29008  1.0000
  S   S922      1.0  0.63294  0.37421  0.29160  1.0000
  S   S923      1.0  0.66751  0.37008  0.29412  1.0000
  Fe  Fe463     1.0  0.62941  0.38896  0.27486  1.0000
  S   S924      1.0  0.62769  0.38555  0.25669  1.0000
  Fe  Fe464     1.0  0.62288  0.38890  0.30233  1.0000
  S   S925      1.0  0.60980  0.38540  0.32061  1.0000
  S   S926      1.0  0.64698  0.39531  0.27267  1.0000
  S   S927      1.0  0.63966  0.39501  0.30211  1.0000
  C   C2589     1.0  0.61605  0.38010  0.33388  1.0000
  C   C2590     1.0  0.62361  0.38637  0.33650  1.0000
  C   C2591     1.0  0.62717  0.38268  0.34792  1.0000
  C   C2592     1.0  0.62350  0.37248  0.35654  1.0000
  C   C2593     1.0  0.61615  0.36618  0.35376  1.0000
  C   C2594     1.0  0.61222  0.37014  0.34264  1.0000
  H   H2587     1.0  0.62640  0.39424  0.32989  1.0000
  H   H2588     1.0  0.63302  0.38748  0.34993  1.0000
  H   H2589     1.0  0.61338  0.35823  0.36029  1.0000
  H   H2590     1.0  0.60626  0.36536  0.34077  1.0000
  C   C2595     1.0  0.85296  0.33314  0.37876  1.0000
  C   C2596     1.0  0.60347  0.32648  0.22350  1.0000
  H   H2591     1.0  0.88480  0.34892  0.32488  1.0000
  H   H2592     1.0  0.64941  0.38409  0.23582  1.0000
  C   C2597     1.0  0.62109  0.44707  0.31307  1.0000
  C   C2598     1.0  0.61447  0.44177  0.30814  1.0000
  C   C2599     1.0  0.62056  0.43484  0.29918  1.0000
  C   C2600     1.0  0.63330  0.43332  0.29502  1.0000
  C   C2601     1.0  0.63998  0.43832  0.30022  1.0000
  C   C2602     1.0  0.63389  0.44522  0.30922  1.0000
  H   H2593     1.0  0.60456  0.44341  0.31093  1.0000
  H   H2594     1.0  0.61535  0.43112  0.29508  1.0000
  H   H2595     1.0  0.64986  0.43704  0.29713  1.0000
  H   H2596     1.0  0.63905  0.44931  0.31298  1.0000
  C   C2603     1.0  0.69482  0.43588  0.33163  1.0000
  C   C2604     1.0  0.68553  0.44438  0.33737  1.0000
  C   C2605     1.0  0.67721  0.45301  0.33078  1.0000
  C   C2606     1.0  0.67844  0.45340  0.31835  1.0000
  C   C2607     1.0  0.68777  0.44495  0.31261  1.0000
  C   C2608     1.0  0.69581  0.43607  0.31928  1.0000
  H   H2597     1.0  0.68464  0.44418  0.34696  1.0000
  H   H2598     1.0  0.66998  0.45949  0.33528  1.0000
  H   H2599     1.0  0.68870  0.44517  0.30301  1.0000
  H   H2600     1.0  0.70288  0.42948  0.31481  1.0000
  C   C2609     1.0  0.69213  0.37387  0.36074  1.0000
  C   C2610     1.0  0.69362  0.38488  0.36240  1.0000
  C   C2611     1.0  0.68193  0.36898  0.36770  1.0000
  S   S928      1.0  0.82870  0.36061  0.37884  1.0000
  H   H2601     1.0  0.68087  0.36034  0.36662  1.0000
  C   C2612     1.0  0.69383  0.39338  0.29443  1.0000
  C   C2613     1.0  0.69532  0.38105  0.30061  1.0000
  C   C2614     1.0  0.68740  0.37385  0.30023  1.0000
  C   C2615     1.0  0.67774  0.37904  0.29400  1.0000
  C   C2616     1.0  0.67607  0.39144  0.28810  1.0000
  C   C2617     1.0  0.68421  0.39853  0.28814  1.0000
  H   H2602     1.0  0.70276  0.37700  0.30541  1.0000
  H   H2603     1.0  0.68870  0.36427  0.30486  1.0000
  H   H2604     1.0  0.66856  0.39557  0.28340  1.0000
  H   H2605     1.0  0.68299  0.40807  0.28340  1.0000
  C   C2618     1.0  0.77321  0.38509  0.35161  1.0000
  C   C2619     1.0  0.76064  0.38996  0.35204  1.0000
  C   C2620     1.0  0.75519  0.38957  0.34273  1.0000
  C   C2621     1.0  0.76226  0.38435  0.33282  1.0000
  C   C2622     1.0  0.77486  0.37946  0.33238  1.0000
  C   C2623     1.0  0.78033  0.37978  0.34177  1.0000
  H   H2606     1.0  0.75510  0.39411  0.35962  1.0000
  H   H2607     1.0  0.74559  0.39360  0.34310  1.0000
  H   H2608     1.0  0.78042  0.37544  0.32472  1.0000
  H   H2609     1.0  0.79005  0.37605  0.34134  1.0000
  C   C2624     1.0  0.85539  0.37349  0.34997  1.0000
  C   C2625     1.0  0.85179  0.38389  0.35512  1.0000
  C   C2626     1.0  0.86063  0.38844  0.35792  1.0000
  C   C2627     1.0  0.87299  0.38228  0.35611  1.0000
  C   C2628     1.0  0.87650  0.37177  0.35116  1.0000
  C   C2629     1.0  0.86779  0.36754  0.34789  1.0000
  H   H2610     1.0  0.84223  0.38860  0.35666  1.0000
  H   H2611     1.0  0.85785  0.39672  0.36152  1.0000
  H   H2612     1.0  0.88597  0.36691  0.34973  1.0000
  H   H2613     1.0  0.87067  0.35950  0.34397  1.0000
  C   C2630     1.0  0.90490  0.29740  0.37093  1.0000
  C   C2631     1.0  0.91347  0.30413  0.37067  1.0000
  C   C2632     1.0  0.91307  0.31605  0.36334  1.0000
  C   C2633     1.0  0.90418  0.32115  0.35620  1.0000
  C   C2634     1.0  0.89548  0.31450  0.35674  1.0000
  C   C2635     1.0  0.89588  0.30265  0.36399  1.0000
  H   H2614     1.0  0.87098  0.01198  0.33530  1.0000
  H   H2615     1.0  0.91977  0.32117  0.36305  1.0000
  H   H2616     1.0  0.88822  0.31863  0.35180  1.0000
  H   H2617     1.0  0.88927  0.29752  0.36410  1.0000
  C   C2636     1.0  0.84277  0.30761  0.36691  1.0000
  C   C2637     1.0  0.87771  0.32957  0.37856  1.0000
  C   C2638     1.0  0.65500  0.46434  0.28488  1.0000
  C   C2639     1.0  0.88482  0.13041  0.30726  1.0000
  C   C2640     1.0  0.82810  0.32692  0.36795  1.0000
  C   C2641     1.0  0.83717  0.31920  0.36107  1.0000
  S   S929      1.0  0.90523  0.28256  0.38010  1.0000
  H   H2618     1.0  0.89038  0.21559  0.32518  1.0000
  H   H2619     1.0  0.82399  0.33591  0.36341  1.0000
  H   H2620     1.0  0.83985  0.32227  0.35127  1.0000
  C   C2642     1.0  0.97193  0.39119  0.34100  1.0000
  C   C2643     1.0  0.97404  0.38710  0.33017  1.0000
  C   C2644     1.0  0.96578  0.38105  0.32845  1.0000
  C   C2645     1.0  0.95532  0.37898  0.33754  1.0000
  C   C2646     1.0  0.95304  0.38318  0.34837  1.0000
  C   C2647     1.0  0.96129  0.38937  0.35003  1.0000
  H   H2621     1.0  0.98190  0.38881  0.32296  1.0000
  H   H2622     1.0  0.96753  0.37798  0.31998  1.0000
  H   H2623     1.0  0.94494  0.38173  0.35541  1.0000
  H   H2624     1.0  0.95953  0.39261  0.35841  1.0000
  C   C2648     1.0  0.86211  0.21501  0.36345  1.0000
  C   C2649     1.0  0.87394  0.21059  0.36586  1.0000
  H   H2625     1.0  0.85486  0.24167  0.37404  1.0000
  H   H2626     1.0  0.76281  0.35486  0.34167  1.0000
  C   C2650     1.0  0.89938  0.15170  0.36932  1.0000
  C   C2651     1.0  0.87659  0.01450  0.35051  1.0000
  H   H2627     1.0  0.96718  0.36289  0.37117  1.0000
  C   C2652     1.0  0.97374  0.36105  0.36287  1.0000
  H   H2628     1.0  0.99219  0.15658  0.36098  1.0000
  C   C2653     1.0  0.97666  0.12129  0.36669  1.0000
  C   C2654     1.0  0.87353  0.13412  0.35073  1.0000
  C   C2655     1.0  0.87931  0.12171  0.35119  1.0000
  C   C2656     1.0  0.87259  0.11299  0.35164  1.0000
  C   C2657     1.0  0.85990  0.11653  0.35228  1.0000
  C   C2658     1.0  0.85408  0.12888  0.35220  1.0000
  C   C2659     1.0  0.86089  0.13769  0.35118  1.0000
  H   H2629     1.0  0.88902  0.11880  0.35118  1.0000
  H   H2630     1.0  0.87715  0.10346  0.35189  1.0000
  H   H2631     1.0  0.84423  0.13164  0.35292  1.0000
  H   H2632     1.0  0.85629  0.14718  0.35112  1.0000
  C   C2660     1.0  0.92304  0.09090  0.34464  1.0000
  C   C2661     1.0  0.91270  0.08597  0.35123  1.0000
  C   C2662     1.0  0.90608  0.08171  0.34521  1.0000
  C   C2663     1.0  0.90994  0.08213  0.33261  1.0000
  C   C2664     1.0  0.92011  0.08732  0.32603  1.0000
  C   C2665     1.0  0.92659  0.09175  0.33198  1.0000
  H   H2633     1.0  0.90991  0.08524  0.36104  1.0000
  H   H2634     1.0  0.89828  0.07773  0.35041  1.0000
  H   H2635     1.0  0.92301  0.08792  0.31629  1.0000
  H   H2636     1.0  0.93457  0.09550  0.32684  1.0000
  C   C2666     1.0  0.93178  0.16166  0.34106  1.0000
  C   C2667     1.0  0.93397  0.17358  0.33721  1.0000
  C   C2668     1.0  0.92644  0.18277  0.33020  1.0000
  C   C2669     1.0  0.91650  0.18006  0.32748  1.0000
  C   C2670     1.0  0.91423  0.16818  0.33151  1.0000
  C   C2671     1.0  0.92200  0.15893  0.33810  1.0000
  H   H2637     1.0  0.94162  0.17566  0.33944  1.0000
  H   H2638     1.0  0.92817  0.19197  0.32711  1.0000
  H   H2639     1.0  0.90656  0.16604  0.32944  1.0000
  H   H2640     1.0  0.92024  0.14975  0.34110  1.0000
  C   C2672     1.0  0.93298  0.12677  0.29399  1.0000
  C   C2673     1.0  0.92994  0.13155  0.28241  1.0000
  C   C2674     1.0  0.92080  0.12773  0.27924  1.0000
  C   C2675     1.0  0.91493  0.11870  0.28747  1.0000
  C   C2676     1.0  0.91819  0.11369  0.29890  1.0000
  C   C2677     1.0  0.92702  0.11781  0.30225  1.0000
  H   H2641     1.0  0.93485  0.13806  0.27572  1.0000
  H   H2642     1.0  0.91862  0.13144  0.27027  1.0000
  H   H2643     1.0  0.91387  0.10653  0.30517  1.0000
  H   H2644     1.0  0.92934  0.11394  0.31113  1.0000
  C   C2678     1.0  0.84761  0.11437  0.28271  1.0000
  C   C2679     1.0  0.85765  0.10916  0.28836  1.0000
  C   C2680     1.0  0.85755  0.09834  0.29742  1.0000
  C   C2681     1.0  0.84750  0.09267  0.30066  1.0000
  C   C2682     1.0  0.83754  0.09782  0.29490  1.0000
  C   C2683     1.0  0.83753  0.10876  0.28601  1.0000
  H   H2645     1.0  0.86546  0.11347  0.28582  1.0000
  H   H2646     1.0  0.86536  0.09423  0.30169  1.0000
  H   H2647     1.0  0.82977  0.09343  0.29742  1.0000
  H   H2648     1.0  0.82977  0.11280  0.28164  1.0000
  C   C2684     1.0  0.86377  0.17998  0.29413  1.0000
  C   C2685     1.0  0.86121  0.18717  0.28294  1.0000
  C   C2686     1.0  0.86744  0.18349  0.27192  1.0000
  C   C2687     1.0  0.87594  0.17232  0.27199  1.0000
  C   C2688     1.0  0.87845  0.16496  0.28321  1.0000
  C   C2689     1.0  0.87245  0.16885  0.29427  1.0000
  H   H2649     1.0  0.85443  0.19571  0.28277  1.0000
  H   H2650     1.0  0.86552  0.18926  0.26331  1.0000
  H   H2651     1.0  0.88517  0.15640  0.28330  1.0000
  H   H2652     1.0  0.87431  0.16316  0.30291  1.0000
  C   C2690     1.0  0.83959  0.01975  0.34428  1.0000
  C   C2691     1.0  0.84464  0.02969  0.33660  1.0000
  C   C2692     1.0  0.85004  0.03660  0.34123  1.0000
  C   C2693     1.0  0.85057  0.03360  0.35363  1.0000
  C   C2694     1.0  0.84565  0.02357  0.36131  1.0000
  C   C2695     1.0  0.84020  0.01668  0.35668  1.0000
  H   H2653     1.0  0.84427  0.03216  0.32699  1.0000
  H   H2654     1.0  0.85382  0.04424  0.33516  1.0000
  H   H2655     1.0  0.84603  0.02114  0.37092  1.0000
  H   H2656     1.0  0.83627  0.00913  0.36275  1.0000
  C   C2696     1.0  0.86006  0.13279  0.20955  1.0000
  C   C2697     1.0  0.86828  0.13170  0.21707  1.0000
  C   C2698     1.0  0.87892  0.12239  0.21689  1.0000
  C   C2699     1.0  0.88107  0.11411  0.20918  1.0000
  C   C2700     1.0  0.81553  0.04268  0.33724  1.0000
  H   H2657     1.0  0.86650  0.13821  0.22284  1.0000
  H   H2658     1.0  0.88927  0.10688  0.20892  1.0000
  H   H2659     1.0  0.66513  0.36045  0.27012  1.0000
  H   H2660     1.0  0.96227  0.13471  0.35895  1.0000
  H   H2661     1.0  0.89276  0.30613  0.33370  1.0000
  H   H2662     1.0  0.88022  0.13582  0.29994  1.0000
  C   C2701     1.0  0.65421  0.39060  0.23724  1.0000
  S   S930      1.0  0.64575  0.48512  0.33387  1.0000
  H   H2663     1.0  0.86019  0.99702  0.33631  1.0000
  H   H2664     1.0  0.85194  0.14012  0.20973  1.0000
  N   N216      1.0  0.98382  0.14132  0.36957  1.0000
  H   H2665     1.0  0.68609  0.38868  0.25508  1.0000
  H   H2666     1.0  0.61500  0.35149  0.23465  1.0000
  H   H2667     1.0  0.88324  0.20810  0.34022  1.0000
  C   C2702     1.0  0.82599  0.06240  0.33483  1.0000
  C   C2703     1.0  0.60028  0.37515  0.24019  1.0000
  C   C2704     1.0  0.59753  0.37548  0.25274  1.0000
  C   C2705     1.0  0.60568  0.37872  0.25795  1.0000
  C   C2706     1.0  0.61678  0.38164  0.25069  1.0000
  C   C2707     1.0  0.61954  0.38126  0.23816  1.0000
  C   C2708     1.0  0.61137  0.37806  0.23294  1.0000
  H   H2668     1.0  0.58900  0.37325  0.25848  1.0000
  H   H2669     1.0  0.60337  0.37895  0.26758  1.0000
  H   H2670     1.0  0.62802  0.38353  0.23238  1.0000
  H   H2671     1.0  0.61366  0.37788  0.22329  1.0000
  H   H2672     1.0  0.60117  0.44563  0.36872  1.0000
  N   N217      1.0  0.66025  0.42540  0.33595  1.0000
  C   C2709     1.0  0.64810  0.42722  0.34172  1.0000
  C   C2710     1.0  0.66922  0.42143  0.34266  1.0000
  C   C2711     1.0  0.64467  0.42505  0.35453  1.0000
  C   C2712     1.0  0.66612  0.41916  0.35547  1.0000
  C   C2713     1.0  0.65377  0.42097  0.36143  1.0000
  C   C2714     1.0  0.66354  0.42830  0.32251  1.0000
  H   H2673     1.0  0.64098  0.43063  0.33640  1.0000
  H   H2674     1.0  0.67886  0.42009  0.33815  1.0000
  C   C2715     1.0  0.91809  0.12010  0.36744  1.0000
  H   H2675     1.0  0.85330  0.98953  0.35118  1.0000
  N   N218      1.0  0.92394  0.07911  0.29437  1.0000
  H   H2676     1.0  0.66161  0.43844  0.31911  1.0000
  H   H2677     1.0  0.67347  0.42471  0.31898  1.0000
  H   H2678     1.0  0.65816  0.42423  0.31861  1.0000
  N   N219      1.0  0.66665  0.37263  0.33428  1.0000
  C   C2716     1.0  0.66339  0.36471  0.34513  1.0000
  C   C2717     1.0  0.66083  0.37446  0.32489  1.0000
  C   C2718     1.0  0.65408  0.35839  0.34679  1.0000
  C   C2719     1.0  0.65161  0.36816  0.32617  1.0000
  C   C2720     1.0  0.64822  0.36008  0.33720  1.0000
  C   C2721     1.0  0.67685  0.37867  0.33258  1.0000
  H   H2679     1.0  0.66794  0.36329  0.35259  1.0000
  H   H2680     1.0  0.66329  0.38079  0.31632  1.0000
  H   H2681     1.0  0.65126  0.35238  0.35552  1.0000
  H   H2682     1.0  0.64708  0.36957  0.31866  1.0000
  H   H2683     1.0  0.64087  0.35536  0.33841  1.0000
  H   H2684     1.0  0.68576  0.37201  0.33097  1.0000
  H   H2685     1.0  0.67695  0.38659  0.32461  1.0000
  H   H2686     1.0  0.67621  0.38212  0.34086  1.0000
  C   C2722     1.0  0.60485  0.41943  0.35240  1.0000
  C   C2723     1.0  0.60208  0.40860  0.36029  1.0000
  H   H2687     1.0  0.60793  0.42580  0.35572  1.0000
  H   H2688     1.0  0.60314  0.40639  0.36971  1.0000
  H   H2689     1.0  0.61998  0.33038  0.22527  1.0000
  C   C2724     1.0  0.88432  0.32966  0.32927  1.0000
  C   C2725     1.0  0.67886  0.38443  0.25481  1.0000
  C   C2726     1.0  0.92964  0.40610  0.34147  1.0000
  C   C2727     1.0  0.81672  0.04602  0.34755  1.0000
  H   H2690     1.0  0.94257  0.06131  0.31336  1.0000
  H   H2691     1.0  0.59389  0.41053  0.32140  1.0000
  N   N220      1.0  0.59960  0.41403  0.33609  1.0000
  C   C2728     1.0  0.59905  0.41656  0.32313  1.0000
  N   N221      1.0  0.60417  0.33849  0.23720  1.0000
  C   C2729     1.0  0.99343  0.13169  0.33816  1.0000
  H   H2692     1.0  0.92195  0.13804  0.36390  1.0000
  H   H2693     1.0  0.59360  0.39710  0.34055  1.0000
  H   H2694     1.0  0.87934  0.02311  0.34561  1.0000
  H   H2695     1.0  0.59438  0.42622  0.32008  1.0000
  C   C2730     1.0  0.61138  0.34410  0.24199  1.0000
  C   C2731     1.0  0.86457  0.32479  0.33456  1.0000
  N   N222      1.0  0.88434  0.22649  0.33866  1.0000
  S   S931      1.0  0.62900  0.36636  0.37021  1.0000
  H   H2696     1.0  0.87355  0.99568  0.37878  1.0000
  C   C2732     1.0  0.89058  0.11109  0.32092  1.0000
  C   C2733     1.0  0.89154  0.13567  0.31210  1.0000
  C   C2734     1.0  0.89732  0.11660  0.32547  1.0000
  C   C2735     1.0  0.90499  0.13439  0.32569  1.0000
  H   H2697     1.0  0.67917  0.44343  0.27328  1.0000
  C   C2736     1.0  0.86217  0.12447  0.20191  1.0000
  H   H2698     1.0  0.93780  0.40839  0.34247  1.0000
  N   N223      1.0  0.92227  0.16637  0.29302  1.0000
  C   C2737     1.0  0.92675  0.16178  0.28259  1.0000
  C   C2738     1.0  0.91056  0.17323  0.29521  1.0000
  C   C2739     1.0  0.91947  0.16411  0.27397  1.0000
  C   C2740     1.0  0.90305  0.17581  0.28675  1.0000
  C   C2741     1.0  0.90757  0.17121  0.27606  1.0000
  C   C2742     1.0  0.92984  0.16358  0.30216  1.0000
  H   H2699     1.0  0.93599  0.15623  0.28093  1.0000
  H   H2700     1.0  0.90699  0.17682  0.30349  1.0000
  H   H2701     1.0  0.92300  0.16040  0.26573  1.0000
  H   H2702     1.0  0.89380  0.18134  0.28846  1.0000
  H   H2703     1.0  0.90186  0.17313  0.26939  1.0000
  H   H2704     1.0  0.93970  0.15999  0.29837  1.0000
  H   H2705     1.0  0.92931  0.17198  0.30537  1.0000
  H   H2706     1.0  0.92665  0.15646  0.31011  1.0000
  H   H2707     1.0  0.91405  0.13453  0.31925  1.0000
  H   H2708     1.0  0.85096  0.04597  0.19227  1.0000
  H   H2709     1.0  0.65288  0.47097  0.29064  1.0000
  S   S932      1.0  0.63443  0.48061  0.31242  1.0000
  C   C2743     1.0  0.98797  0.15199  0.37032  1.0000
  H   H2710     1.0  0.89034  0.15573  0.36665  1.0000
  C   C2744     1.0  0.85896  0.33729  0.33277  1.0000
  C   C2745     1.0  0.86627  0.34603  0.32908  1.0000
  H   H2711     1.0  0.84902  0.34021  0.33434  1.0000
  H   H2712     1.0  0.86202  0.35575  0.32770  1.0000
  C   C2746     1.0  0.59164  0.34048  0.24097  1.0000
  C   C2747     1.0  0.58471  0.33556  0.23602  1.0000
  C   C2748     1.0  0.59069  0.32851  0.22723  1.0000
  H   H2713     1.0  0.58688  0.34622  0.24757  1.0000
  H   H2714     1.0  0.57476  0.33749  0.23873  1.0000
  H   H2715     1.0  0.58543  0.32489  0.22306  1.0000
  C   C2749     1.0  0.67455  0.38645  0.37753  1.0000
  H   H2716     1.0  0.60570  0.34840  0.24977  1.0000
  Fe  Fe465     1.0  0.91809  0.35357  0.37425  1.0000
  C   C2750     1.0  0.86220  0.99141  0.34525  1.0000
  H   H2717     1.0  0.91126  0.08481  0.28244  1.0000
  S   S933      1.0  0.83689  0.10083  0.18783  1.0000
  H   H2718     1.0  0.95696  0.34934  0.35108  1.0000
  C   C2751     1.0  0.82509  0.05922  0.32432  1.0000
  C   C2752     1.0  0.63080  0.44269  0.37996  1.0000
  H   H2719     1.0  0.67292  0.39829  0.23983  1.0000
  S   S934      1.0  0.85123  0.12623  0.19284  1.0000
  H   H2720     1.0  0.65219  0.37024  0.25471  1.0000
  N   N224      1.0  0.82174  0.05589  0.34625  1.0000
  N   N225      1.0  0.91985  0.39831  0.33015  1.0000
  C   C2753     1.0  0.90912  0.39977  0.33877  1.0000
  H   H2721     1.0  0.82125  0.06930  0.35602  1.0000
  C   C2754     1.0  0.90842  0.40438  0.34899  1.0000
  H   H2722     1.0  0.90005  0.22651  0.34503  1.0000
  H   H2723     1.0  0.92729  0.09546  0.28131  1.0000
  C   C2755     1.0  0.92062  0.39337  0.31950  1.0000
  H   H2724     1.0  0.90103  0.39724  0.33789  1.0000
  C   C2756     1.0  0.81979  0.04931  0.32556  1.0000
  H   H2725     1.0  0.89993  0.40535  0.35587  1.0000
  H   H2726     1.0  0.90025  0.14392  0.32660  1.0000
  H   H2727     1.0  0.84872  0.16180  0.31125  1.0000
  H   H2728     1.0  0.92774  0.38471  0.31951  1.0000
  H   H2729     1.0  0.91178  0.39122  0.31955  1.0000
  H   H2730     1.0  0.92315  0.40011  0.31089  1.0000
  N   N226      1.0  0.84754  0.14975  0.30069  1.0000
  C   C2757     1.0  0.84761  0.13795  0.30050  1.0000
  C   C2758     1.0  0.85001  0.14325  0.32157  1.0000
  C   C2759     1.0  0.84874  0.12852  0.31090  1.0000
  C   C2760     1.0  0.84994  0.13121  0.32150  1.0000
  H   H2731     1.0  0.84663  0.13582  0.29231  1.0000
  H   H2732     1.0  0.84855  0.11920  0.31077  1.0000
  H   H2733     1.0  0.85067  0.12399  0.32968  1.0000
  H   H2734     1.0  0.83944  0.15850  0.28519  1.0000
  H   H2735     1.0  0.84383  0.16875  0.29165  1.0000
  N   N227      1.0  0.74361  0.35899  0.34951  1.0000
  C   C2761     1.0  0.75579  0.35760  0.34937  1.0000
  C   C2762     1.0  0.73474  0.36281  0.35903  1.0000
  H   H2736     1.0  0.76904  0.35919  0.35867  1.0000
  C   C2763     1.0  0.73800  0.36556  0.36864  1.0000
  H   H2737     1.0  0.92766  0.11563  0.36488  1.0000
  C   C2764     1.0  0.66071  0.44716  0.27041  1.0000
  H   H2738     1.0  0.87952  0.11370  0.30776  1.0000
  H   H2739     1.0  0.72506  0.36391  0.35917  1.0000
  H   H2740     1.0  0.75311  0.36649  0.37581  1.0000
  H   H2741     1.0  0.87928  0.20192  0.36371  1.0000
  H   H2742     1.0  0.86728  0.22833  0.33380  1.0000
  H   H2743     1.0  0.82871  0.06432  0.31529  1.0000
  H   H2744     1.0  0.88948  0.11381  0.37732  1.0000
  H   H2745     1.0  0.89043  0.10143  0.32435  1.0000
  N   N228      1.0  0.64599  0.46238  0.28045  1.0000
  C   C2765     1.0  0.91164  0.08055  0.29219  1.0000
  C   C2766     1.0  0.64877  0.45415  0.27304  1.0000
  C   C2767     1.0  0.63333  0.46929  0.28350  1.0000
  H   H2746     1.0  0.96876  0.15238  0.36153  1.0000
  H   H2747     1.0  0.64163  0.45248  0.26959  1.0000
  H   H2748     1.0  0.90620  0.15651  0.36231  1.0000
  Fe  Fe466     1.0  0.57644  0.37487  0.19353  1.0000
  H   H2749     1.0  0.81369  0.08057  0.18690  1.0000
  N   N229      1.0  0.74153  0.42417  0.33894  1.0000
  C   C2768     1.0  0.75292  0.42125  0.34169  1.0000
  C   C2769     1.0  0.74014  0.42221  0.32831  1.0000
  C   C2770     1.0  0.76334  0.41646  0.33354  1.0000
  C   C2771     1.0  0.75034  0.41732  0.32001  1.0000
  C   C2772     1.0  0.76200  0.41445  0.32266  1.0000
  C   C2773     1.0  0.73060  0.42875  0.34772  1.0000
  H   H2750     1.0  0.75402  0.42238  0.35030  1.0000
  H   H2751     1.0  0.73105  0.42431  0.32628  1.0000
  H   H2752     1.0  0.77232  0.41383  0.33590  1.0000
  H   H2753     1.0  0.74921  0.41546  0.31173  1.0000
  H   H2754     1.0  0.76993  0.41028  0.31649  1.0000
  H   H2755     1.0  0.72403  0.43609  0.34286  1.0000
  H   H2756     1.0  0.72580  0.42115  0.35289  1.0000
  H   H2757     1.0  0.73296  0.43272  0.35430  1.0000
  N   N230      1.0  0.85243  0.11330  0.23951  1.0000
  C   C2774     1.0  0.85424  0.10615  0.23124  1.0000
  C   C2775     1.0  0.84203  0.12227  0.24110  1.0000
  C   C2776     1.0  0.84563  0.10812  0.22403  1.0000
  C   C2777     1.0  0.83328  0.12456  0.23398  1.0000
  C   C2778     1.0  0.83517  0.11749  0.22532  1.0000
  C   C2779     1.0  0.86157  0.11141  0.24683  1.0000
  H   H2758     1.0  0.86255  0.09913  0.22988  1.0000
  H   H2759     1.0  0.84059  0.12784  0.24778  1.0000
  H   H2760     1.0  0.84731  0.10278  0.21712  1.0000
  H   H2761     1.0  0.82519  0.13187  0.23505  1.0000
  H   H2762     1.0  0.82867  0.11937  0.21946  1.0000
  H   H2763     1.0  0.87051  0.10568  0.24314  1.0000
  H   H2764     1.0  0.86349  0.12040  0.24661  1.0000
  H   H2765     1.0  0.85810  0.10704  0.25650  1.0000
  C   C2780     1.0  0.75041  0.36418  0.36856  1.0000
  H   H2766     1.0  0.62658  0.46439  0.28269  1.0000
  Fe  Fe467     1.0  0.62918  0.37874  0.38218  1.0000
  H   H2767     1.0  0.88800  0.21381  0.37301  1.0000
  H   H2768     1.0  0.86998  0.25729  0.34902  1.0000
  C   C2781     1.0  0.65986  0.37412  0.25449  1.0000
  H   H2769     1.0  0.59600  0.39200  0.36201  1.0000
  C   C2782     1.0  0.84652  0.15940  0.28959  1.0000
  H   H2770     1.0  0.89202  0.14524  0.30847  1.0000
  C   C2783     1.0  0.91877  0.40754  0.35034  1.0000
  C   C2784     1.0  0.84880  0.15246  0.31103  1.0000
  C   C2785     1.0  0.88944  0.21455  0.33519  1.0000
  C   C2786     1.0  0.61010  0.33165  0.22853  1.0000
  C   C2787     1.0  0.59665  0.40350  0.34384  1.0000
  H   H2771     1.0  0.92260  0.06291  0.30840  1.0000
  C   C2788     1.0  0.88258  0.30794  0.33511  1.0000
  H   H2772     1.0  0.90645  0.12926  0.33497  1.0000
  C   C2789     1.0  0.66990  0.44890  0.27510  1.0000
  C   C2790     1.0  0.89372  0.13169  0.37397  1.0000
  H   H2773     1.0  0.68237  0.36950  0.27009  1.0000
  H   H2774     1.0  0.90883  0.07159  0.29451  1.0000
  H   H2775     1.0  0.65128  0.41926  0.37138  1.0000
  Fe  Fe468     1.0  0.88773  0.27677  0.38149  1.0000
  H   H2776     1.0  0.81387  0.04047  0.35655  1.0000
  H   H2777     1.0  0.89885  0.15355  0.37839  1.0000
  C   C2791     1.0  0.94193  0.08731  0.29099  1.0000
  H   H2778     1.0  0.63504  0.42672  0.35908  1.0000
  H   H2779     1.0  0.73093  0.36883  0.37604  1.0000
  H   H2780     1.0  0.89424  0.32681  0.32819  1.0000
  H   H2781     1.0  0.99225  0.11032  0.37420  1.0000
  C   C2792     1.0  0.87903  0.34222  0.32740  1.0000
  H   H2782     1.0  0.66267  0.44020  0.26506  1.0000
  C   C2793     1.0  0.88438  0.11802  0.31168  1.0000
  C   C2794     1.0  0.88599  0.24266  0.34716  1.0000
  H   H2783     1.0  0.67325  0.41615  0.36074  1.0000
  C   C2795     1.0  0.87272  0.11506  0.20182  1.0000
  C   C2796     1.0  0.93944  0.06867  0.30610  1.0000
  H   H2784     1.0  0.65959  0.39442  0.22816  1.0000
  H   H2785     1.0  0.90238  0.11103  0.33241  1.0000
  H   H2786     1.0  0.85084  0.14552  0.32977  1.0000
  H   H2787     1.0  0.93860  0.40003  0.32468  1.0000
  H   H2788     1.0  0.95488  0.07727  0.30242  1.0000
  H   H2789     1.0  0.85887  0.31800  0.33743  1.0000
  C   C2797     1.0  0.67139  0.38980  0.24623  1.0000
  H   H2790     1.0  0.89863  0.21025  0.33738  1.0000
  C   C2798     1.0  0.94630  0.07766  0.30000  1.0000
  C   C2799     1.0  0.93070  0.08784  0.28822  1.0000
  C   C2800     1.0  0.87712  0.01006  0.36284  1.0000
  C   C2801     1.0  0.91479  0.13276  0.36686  1.0000
  H   H2791     1.0  0.87897  0.30354  0.34475  1.0000
  H   H2792     1.0  0.85668  0.34561  0.36128  1.0000
  C   C2802     1.0  0.89100  0.23143  0.34352  1.0000
  N   N231      1.0  0.87708  0.32113  0.33284  1.0000
  C   C2803     1.0  0.86746  0.24378  0.34068  1.0000
  H   H2793     1.0  0.88020  0.30349  0.32892  1.0000
  C   C2804     1.0  0.66708  0.45764  0.28227  1.0000
  H   H2794     1.0  0.85548  0.15872  0.28292  1.0000
  N   N232      1.0  0.89758  0.12879  0.32117  1.0000
  C   C2805     1.0  0.87414  0.24884  0.34575  1.0000
  H   H2795     1.0  0.60596  0.43036  0.33408  1.0000
  H   H2796     1.0  0.60851  0.41480  0.31744  1.0000
  H   H2797     1.0  0.61915  0.33713  0.24526  1.0000
  H   H2798     1.0  0.87450  0.10852  0.19608  1.0000
  C   C2806     1.0  0.59795  0.40057  0.35601  1.0000
  C   C2807     1.0  0.75937  0.36006  0.35893  1.0000
  H   H2799     1.0  0.66494  0.37181  0.38104  1.0000
  C   C2808     1.0  0.67676  0.37367  0.26327  1.0000
  C   C2809     1.0  0.87885  0.21734  0.37119  1.0000
  C   C2810     1.0  0.60364  0.42198  0.34021  1.0000
  C   C2811     1.0  0.66714  0.36852  0.26321  1.0000
  S   S935      1.0  0.59555  0.33118  0.19629  1.0000
  N   N233      1.0  0.66216  0.38453  0.24604  1.0000
  C   C2812     1.0  0.99055  0.35671  0.34157  1.0000
  S   S936      1.0  0.63519  0.39665  0.37460  1.0000
  C   C2813     1.0  0.61561  0.45449  0.36806  1.0000
  N   N234      1.0  0.97112  0.35507  0.35547  1.0000
  H   H2800     1.0  0.82300  0.06531  0.18759  1.0000
  H   H2801     1.0  0.89102  0.24624  0.35162  1.0000
  C   C2814     1.0  0.92817  0.06959  0.30319  1.0000
  C   C2815     1.0  0.87272  0.23250  0.33720  1.0000
  C   C2816     1.0  0.93003  0.40142  0.33139  1.0000
  H   H2802     1.0  0.68636  0.39942  0.37234  1.0000
  H   H2803     1.0  0.60815  0.32126  0.21643  1.0000
  H   H2804     1.0  0.85808  0.24827  0.33996  1.0000
  Fe  Fe469     1.0  0.81280  0.35260  0.37977  1.0000
  H   H2805     1.0  0.94704  0.09450  0.28635  1.0000
  H   H2806     1.0  0.84602  0.22963  0.36497  1.0000
  C   C2817     1.0  0.85523  0.22618  0.36665  1.0000
  C   C2818     1.0  0.74021  0.35623  0.33939  1.0000
  C   C2819     1.0  0.86051  0.33940  0.36884  1.0000
  N   N235      1.0  0.90270  0.13843  0.36990  1.0000
  H   H2807     1.0  0.98568  0.13639  0.33391  1.0000
  C   C2820     1.0  0.86022  0.23304  0.37179  1.0000
  H   H2808     1.0  0.63224  0.47854  0.27737  1.0000
  Fe  Fe470     1.0  0.86412  0.28376  0.37234  1.0000
  S   S937      1.0  0.87923  0.23717  0.37991  1.0000
  H   H2809     1.0  0.73007  0.35841  0.34020  1.0000
  C   C2821     1.0  0.90896  0.11322  0.37121  1.0000
  C   C2822     1.0  0.67297  0.37543  0.37590  1.0000
  C   C2823     1.0  0.95963  0.35061  0.35913  1.0000
  Fe  Fe471     1.0  0.60389  0.37361  0.18806  1.0000
  H   H2810     1.0  0.98014  0.15864  0.37447  1.0000
  C   C2824     1.0  0.61412  0.43384  0.37945  1.0000
  S   S938      1.0  0.98908  0.10993  0.33569  1.0000
  C   C2825     1.0  0.87295  0.33765  0.36880  1.0000
  H   H2811     1.0  0.63092  0.47031  0.29318  1.0000
  H   H2812     1.0  0.98665  0.37033  0.36530  1.0000
  H   H2813     1.0  0.55346  0.36167  0.18997  1.0000
  H   H2814     1.0  0.91140  0.10341  0.37152  1.0000
  C   C2826     1.0  0.99033  0.12968  0.37313  1.0000
  H   H2815     1.0  0.84331  0.33460  0.37871  1.0000
  H   H2816     1.0  0.96065  0.34172  0.36587  1.0000
  C   C2827     1.0  0.86849  0.99309  0.36313  1.0000
  C   C2828     1.0  0.60945  0.44474  0.37185  1.0000
  H   H2817     1.0  0.61198  0.46284  0.36210  1.0000
  C   C2829     1.0  0.82435  0.32294  0.38063  1.0000
  H   H2818     1.0  0.81688  0.05545  0.36555  1.0000
  H   H2819     1.0  0.87893  0.34246  0.36118  1.0000
  H   H2820     1.0  0.88743  0.32800  0.37850  1.0000
  C   C2830     1.0  0.84951  0.04869  0.18298  1.0000
  H   H2821     1.0  0.95191  0.35736  0.36329  1.0000
  H   H2822     1.0  0.83279  0.05539  0.35838  1.0000
  C   C2831     1.0  0.87317  0.99922  0.36919  1.0000
  C   C2832     1.0  0.83897  0.30363  0.37956  1.0000
  C   C2833     1.0  0.99319  0.36293  0.34899  1.0000
  H   H2823     1.0  0.97416  0.11351  0.36512  1.0000
  C   C2834     1.0  0.97379  0.14316  0.36463  1.0000
  H   H2824     1.0  0.88038  0.01517  0.36749  1.0000
  H   H2825     1.0  0.92047  0.30010  0.37604  1.0000
  S   S939      1.0  0.56104  0.38531  0.18337  1.0000
  H   H2826     1.0  0.99506  0.14930  0.37597  1.0000
  Fe  Fe472     1.0  0.87402  0.25699  0.38272  1.0000
  H   H2827     1.0  0.87396  0.36803  0.38260  1.0000
  Fe  Fe473     1.0  0.61919  0.40361  0.38862  1.0000
  Fe  Fe474     1.0  0.63770  0.99667  0.57360  1.0000
  S   S940      1.0  0.63014  0.01728  0.56999  1.0000
  H   H2828     1.0  0.63530  0.34236  0.44272  1.0000
  H   H2829     1.0  0.88926  0.25838  0.43166  1.0000
  C   C2835     1.0  0.84515  0.39016  0.39969  1.0000
  Fe  Fe475     1.0  0.84420  0.40209  0.55142  1.0000
  S   S941      1.0  0.86418  0.39268  0.54831  1.0000
  S   S942      1.0  0.83485  0.42140  0.55387  1.0000
  Fe  Fe476     1.0  0.83580  0.37856  0.55372  1.0000
  S   S943      1.0  0.85488  0.36721  0.55156  1.0000
  S   S944      1.0  0.82068  0.36947  0.55455  1.0000
  Fe  Fe477     1.0  0.85763  0.37784  0.56407  1.0000
  H   H2830     1.0  0.80129  0.33517  0.41469  1.0000
  Fe  Fe478     1.0  0.85936  0.38290  0.53607  1.0000
  S   S945      1.0  0.86802  0.38056  0.51634  1.0000
  S   S946      1.0  0.83795  0.38768  0.56750  1.0000
  S   S947      1.0  0.83998  0.39386  0.53791  1.0000
  Fe  Fe479     1.0  0.86639  0.32869  0.44988  1.0000
  S   S948      1.0  0.85966  0.34580  0.43684  1.0000
  S   S949      1.0  0.87558  0.31209  0.44124  1.0000
  Fe  Fe480     1.0  0.86018  0.34242  0.47124  1.0000
  S   S950      1.0  0.85281  0.36034  0.45956  1.0000
  S   S951      1.0  0.86075  0.34075  0.49125  1.0000
  Fe  Fe481     1.0  0.84400  0.34924  0.45255  1.0000
  S   S952      1.0  0.82459  0.35587  0.44993  1.0000
  Fe  Fe482     1.0  0.86922  0.35502  0.44506  1.0000
  S   S953      1.0  0.87998  0.36891  0.43294  1.0000
  S   S954      1.0  0.84996  0.33148  0.46536  1.0000
  S   S955      1.0  0.87734  0.33773  0.45704  1.0000
  Fe  Fe483     1.0  0.86345  0.27588  0.39962  1.0000
  S   S956      1.0  0.85337  0.28163  0.41766  1.0000
  S   S957      1.0  0.81631  0.38653  0.39768  1.0000
  C   C2836     1.0  0.56459  0.36488  0.55634  1.0000
  S   S958      1.0  0.88118  0.26191  0.39683  1.0000
  S   S959      1.0  0.79870  0.36793  0.38692  1.0000
  H   H2831     1.0  0.83976  0.32354  0.39924  1.0000
  H   H2832     1.0  0.83518  0.45293  0.57480  1.0000
  C   C2837     1.0  0.65183  0.04259  0.57224  1.0000
  H   H2833     1.0  0.82680  0.30797  0.39614  1.0000
  Fe  Fe484     1.0  0.62409  0.38125  0.40884  1.0000
  S   S960      1.0  0.61692  0.37348  0.42882  1.0000
  H   H2834     1.0  0.79268  0.35020  0.42893  1.0000
  C   C2838     1.0  0.80254  0.34996  0.42813  1.0000
  S   S961      1.0  0.62965  0.39937  0.40341  1.0000
  H   H2835     1.0  0.85081  0.30936  0.39790  1.0000
  Fe  Fe485     1.0  0.64521  0.36353  0.48608  1.0000
  S   S962      1.0  0.64472  0.37672  0.49743  1.0000
  S   S963      1.0  0.65040  0.36948  0.46538  1.0000
  Fe  Fe486     1.0  0.64079  0.34313  0.50858  1.0000
  S   S964      1.0  0.63978  0.35465  0.52171  1.0000
  S   S965      1.0  0.63845  0.32357  0.51547  1.0000
  Fe  Fe487     1.0  0.62858  0.36938  0.50981  1.0000
  S   S966      1.0  0.61262  0.38117  0.51998  1.0000
  Fe  Fe488     1.0  0.65600  0.36083  0.50829  1.0000
  S   S967      1.0  0.67213  0.36399  0.51355  1.0000
  S   S968      1.0  0.62802  0.35738  0.49769  1.0000
  S   S969      1.0  0.65802  0.34812  0.49593  1.0000
  S   S970      1.0  0.66139  0.29489  0.56137  1.0000
  C   C2839     1.0  0.65782  0.35597  0.42307  1.0000
  H   H2836     1.0  0.54059  0.36516  0.58034  1.0000
  S   S971      1.0  0.58932  0.34424  0.56549  1.0000
  H   H2837     1.0  0.55867  0.39448  0.55933  1.0000
  S   S972      1.0  0.68682  0.33560  0.56386  1.0000
  C   C2840     1.0  0.64405  0.31604  0.52881  1.0000
  C   C2841     1.0  0.65101  0.32143  0.53323  1.0000
  C   C2842     1.0  0.65575  0.31515  0.54368  1.0000
  C   C2843     1.0  0.65357  0.30346  0.54974  1.0000
  C   C2844     1.0  0.64629  0.29821  0.54558  1.0000
  C   C2845     1.0  0.64166  0.30445  0.53503  1.0000
  H   H2838     1.0  0.65309  0.33026  0.52838  1.0000
  H   H2839     1.0  0.66141  0.31921  0.54686  1.0000
  H   H2840     1.0  0.64467  0.28913  0.55016  1.0000
  H   H2841     1.0  0.63629  0.30023  0.53163  1.0000
  C   C2846     1.0  0.67506  0.35691  0.52821  1.0000
  C   C2847     1.0  0.68472  0.35951  0.53160  1.0000
  C   C2848     1.0  0.68787  0.35348  0.54291  1.0000
  C   C2849     1.0  0.68146  0.34471  0.55082  1.0000
  C   C2850     1.0  0.67156  0.34236  0.54763  1.0000
  C   C2851     1.0  0.66827  0.34855  0.53637  1.0000
  H   H2842     1.0  0.68999  0.36599  0.52532  1.0000
  H   H2843     1.0  0.69559  0.35524  0.54529  1.0000
  H   H2844     1.0  0.66661  0.33555  0.55374  1.0000
  H   H2845     1.0  0.66081  0.34651  0.53385  1.0000
  C   C2852     1.0  0.60580  0.37118  0.53262  1.0000
  C   C2853     1.0  0.60501  0.35975  0.53134  1.0000
  C   C2854     1.0  0.59978  0.35160  0.54147  1.0000
  C   C2855     1.0  0.59584  0.35462  0.55300  1.0000
  C   C2856     1.0  0.59681  0.36598  0.55434  1.0000
  C   C2857     1.0  0.60158  0.37436  0.54409  1.0000
  H   H2846     1.0  0.60823  0.35728  0.52248  1.0000
  H   H2847     1.0  0.59877  0.34297  0.54034  1.0000
  H   H2848     1.0  0.59388  0.36834  0.56323  1.0000
  H   H2849     1.0  0.60226  0.38319  0.54510  1.0000
  C   C2858     1.0  0.62540  0.37385  0.43925  1.0000
  C   C2859     1.0  0.63614  0.37849  0.43513  1.0000
  C   C2860     1.0  0.64335  0.37773  0.44342  1.0000
  C   C2861     1.0  0.63988  0.37236  0.45588  1.0000
  C   C2862     1.0  0.62880  0.36830  0.46012  1.0000
  C   C2863     1.0  0.62160  0.36901  0.45179  1.0000
  H   H2850     1.0  0.63914  0.38226  0.42549  1.0000
  H   H2851     1.0  0.65190  0.38091  0.44010  1.0000
  H   H2852     1.0  0.62602  0.36420  0.46971  1.0000
  H   H2853     1.0  0.61323  0.36550  0.45505  1.0000
  C   C2864     1.0  0.66610  0.37942  0.55258  1.0000
  C   C2865     1.0  0.64723  0.35111  0.42716  1.0000
  H   H2854     1.0  0.66429  0.38604  0.55860  1.0000
  C   C2866     1.0  0.81506  0.31928  0.41972  1.0000
  H   H2855     1.0  0.88803  0.28154  0.44219  1.0000
  C   C2867     1.0  0.81879  0.33254  0.43459  1.0000
  H   H2856     1.0  0.62486  0.38050  0.55814  1.0000
  H   H2857     1.0  0.54853  0.11225  0.57822  1.0000
  C   C2868     1.0  0.86253  0.37239  0.41080  1.0000
  C   C2869     1.0  0.82965  0.31119  0.38638  1.0000
  H   H2858     1.0  0.87371  0.31704  0.39577  1.0000
  C   C2870     1.0  0.86778  0.30603  0.43375  1.0000
  C   C2871     1.0  0.87335  0.30391  0.42192  1.0000
  C   C2872     1.0  0.86887  0.29669  0.41677  1.0000
  C   C2873     1.0  0.85868  0.29160  0.42336  1.0000
  C   C2874     1.0  0.85282  0.29413  0.43498  1.0000
  C   C2875     1.0  0.85734  0.30130  0.44016  1.0000
  H   H2859     1.0  0.88153  0.30738  0.41697  1.0000
  H   H2860     1.0  0.87360  0.29468  0.40791  1.0000
  H   H2861     1.0  0.84503  0.29010  0.44023  1.0000
  H   H2862     1.0  0.85317  0.30256  0.44941  1.0000
  C   C2876     1.0  0.89157  0.36216  0.42196  1.0000
  C   C2877     1.0  0.89587  0.36942  0.41060  1.0000
  C   C2878     1.0  0.90477  0.36397  0.40160  1.0000
  C   C2879     1.0  0.90966  0.35132  0.40413  1.0000
  C   C2880     1.0  0.90542  0.34411  0.41552  1.0000
  C   C2881     1.0  0.89622  0.34948  0.42433  1.0000
  H   H2863     1.0  0.89224  0.37922  0.40871  1.0000
  H   H2864     1.0  0.61589  0.33841  0.57079  1.0000
  H   H2865     1.0  0.90913  0.33432  0.41746  1.0000
  H   H2866     1.0  0.89289  0.34380  0.43302  1.0000
  C   C2882     1.0  0.82294  0.36430  0.43519  1.0000
  C   C2883     1.0  0.81381  0.37501  0.43411  1.0000
  C   C2884     1.0  0.81181  0.38168  0.42255  1.0000
  C   C2885     1.0  0.81858  0.37742  0.41199  1.0000
  C   C2886     1.0  0.82758  0.36652  0.41301  1.0000
  C   C2887     1.0  0.82990  0.36006  0.42462  1.0000
  H   H2867     1.0  0.80833  0.37826  0.44224  1.0000
  H   H2868     1.0  0.80492  0.39013  0.42178  1.0000
  H   H2869     1.0  0.83296  0.36331  0.40484  1.0000
  H   H2870     1.0  0.83688  0.35170  0.42541  1.0000
  C   C2888     1.0  0.86475  0.36981  0.50981  1.0000
  C   C2889     1.0  0.86369  0.37304  0.49746  1.0000
  C   C2890     1.0  0.86225  0.36435  0.49167  1.0000
  C   C2891     1.0  0.86204  0.35226  0.49814  1.0000
  C   C2892     1.0  0.86303  0.34907  0.51049  1.0000
  C   C2893     1.0  0.86429  0.35779  0.51632  1.0000
  H   H2871     1.0  0.86413  0.38228  0.49231  1.0000
  H   H2872     1.0  0.86146  0.36697  0.48218  1.0000
  H   H2873     1.0  0.86295  0.33974  0.51557  1.0000
  H   H2874     1.0  0.86531  0.35511  0.52575  1.0000
  C   C2894     1.0  0.84229  0.42995  0.55905  1.0000
  C   C2895     1.0  0.83515  0.43899  0.56556  1.0000
  H   H2875     1.0  0.80732  0.43275  0.55511  1.0000
  C   C2896     1.0  0.60667  0.31170  0.55180  1.0000
  C   C2897     1.0  0.86074  0.43530  0.56059  1.0000
  C   C2898     1.0  0.85512  0.42800  0.55672  1.0000
  H   H2876     1.0  0.82524  0.44062  0.56734  1.0000
  H   H2877     1.0  0.57090  0.35874  0.55071  1.0000
  C   C2899     1.0  0.86690  0.48414  0.56569  1.0000
  H   H2878     1.0  0.86072  0.42109  0.55166  1.0000
  S   S973      1.0  0.92103  0.34441  0.39313  1.0000
  H   H2879     1.0  0.80932  0.42347  0.56994  1.0000
  H   H2880     1.0  0.87649  0.27039  0.43644  1.0000
  N   N236      1.0  0.55587  0.36062  0.56599  1.0000
  H   H2881     1.0  0.57098  0.10692  0.57027  1.0000
  H   H2882     1.0  0.60280  0.02040  0.57885  1.0000
  H   H2883     1.0  0.81347  0.31425  0.41381  1.0000
  H   H2884     1.0  0.54238  0.38672  0.57645  1.0000
  H   H2885     1.0  0.65009  0.03789  0.55606  1.0000
  H   H2886     1.0  0.83209  0.40826  0.57984  1.0000
  S   S974      1.0  0.87053  0.29086  0.38512  1.0000
  H   H2887     1.0  0.65976  0.01603  0.56211  1.0000
  C   C2900     1.0  0.54772  0.36843  0.57289  1.0000
  C   C2901     1.0  0.56574  0.37711  0.55378  1.0000
  S   S975      1.0  0.86446  0.36830  0.58164  1.0000
  N   N237      1.0  0.86441  0.37555  0.39829  1.0000
  S   S976      1.0  0.68638  0.36576  0.57577  1.0000
  H   H2888     1.0  0.62635  0.38279  0.53583  1.0000
  H   H2889     1.0  0.81632  0.41372  0.54728  1.0000
  H   H2890     1.0  0.87260  0.47573  0.56304  1.0000
  C   C2902     1.0  0.80792  0.41061  0.55227  1.0000
  C   C2903     1.0  0.84078  0.44597  0.56982  1.0000
  C   C2904     1.0  0.88877  0.36379  0.46057  1.0000
  H   H2891     1.0  0.80575  0.35647  0.41958  1.0000
  C   C2905     1.0  0.80962  0.37545  0.57677  1.0000
  N   N238      1.0  0.83443  0.35644  0.52471  1.0000
  C   C2906     1.0  0.83435  0.36864  0.52299  1.0000
  C   C2907     1.0  0.83280  0.35197  0.51558  1.0000
  C   C2908     1.0  0.83297  0.37666  0.51178  1.0000
  C   C2909     1.0  0.83139  0.35972  0.50425  1.0000
  C   C2910     1.0  0.83151  0.37214  0.50235  1.0000
  C   C2911     1.0  0.83591  0.34818  0.53652  1.0000
  H   H2892     1.0  0.83572  0.37217  0.53019  1.0000
  H   H2893     1.0  0.83298  0.34228  0.51687  1.0000
  H   H2894     1.0  0.83337  0.38623  0.51035  1.0000
  H   H2895     1.0  0.83062  0.35603  0.49687  1.0000
  H   H2896     1.0  0.83073  0.37818  0.49351  1.0000
  H   H2897     1.0  0.84086  0.33878  0.53532  1.0000
  H   H2898     1.0  0.84136  0.35146  0.54110  1.0000
  H   H2899     1.0  0.82674  0.34780  0.54269  1.0000
  N   N239      1.0  0.61676  0.32282  0.56413  1.0000
  H   H2900     1.0  0.79322  0.38783  0.55500  1.0000
  C   C2912     1.0  0.61932  0.32537  0.55159  1.0000
  H   H2901     1.0  0.55065  0.34457  0.57842  1.0000
  C   C2913     1.0  0.61434  0.31983  0.54524  1.0000
  H   H2902     1.0  0.82964  0.30494  0.42611  1.0000
  H   H2903     1.0  0.59789  0.30312  0.56981  1.0000
  H   H2904     1.0  0.60655  0.39626  0.43715  1.0000
  H   H2905     1.0  0.62515  0.33180  0.54639  1.0000
  N   N240      1.0  0.60386  0.41104  0.42181  1.0000
  H   H2906     1.0  0.61640  0.32189  0.53529  1.0000
  H   H2907     1.0  0.60253  0.42703  0.40738  1.0000
  Fe  Fe489     1.0  0.64510  0.39064  0.39008  1.0000
  C   C2914     1.0  0.55493  0.34772  0.56862  1.0000
  H   H2908     1.0  0.81203  0.39549  0.54317  1.0000
  N   N241      1.0  0.68123  0.30708  0.52653  1.0000
  C   C2915     1.0  0.68057  0.31762  0.51760  1.0000
  C   C2916     1.0  0.68638  0.30599  0.53623  1.0000
  C   C2917     1.0  0.68523  0.32740  0.51821  1.0000
  C   C2918     1.0  0.69112  0.31561  0.53711  1.0000
  C   C2919     1.0  0.69070  0.32627  0.52793  1.0000
  C   C2920     1.0  0.67676  0.29675  0.52543  1.0000
  H   H2909     1.0  0.67623  0.31860  0.51007  1.0000
  H   H2910     1.0  0.68659  0.29778  0.54348  1.0000
  H   H2911     1.0  0.68445  0.33590  0.51129  1.0000
  H   H2912     1.0  0.69493  0.31491  0.54495  1.0000
  H   H2913     1.0  0.69433  0.33379  0.52853  1.0000
  H   H2914     1.0  0.68397  0.29123  0.51941  1.0000
  H   H2915     1.0  0.67422  0.29067  0.53455  1.0000
  H   H2916     1.0  0.66832  0.30008  0.52158  1.0000
  H   H2917     1.0  0.64351  0.37910  0.56555  1.0000
  C   C2921     1.0  0.62172  0.32908  0.57057  1.0000
  C   C2922     1.0  0.64373  0.34582  0.43959  1.0000
  C   C2923     1.0  0.84961  0.31897  0.39880  1.0000
  C   C2924     1.0  0.59459  0.40632  0.41895  1.0000
  H   H2918     1.0  0.83305  0.31690  0.43949  1.0000
  S   S977      1.0  0.61215  0.38621  0.39504  1.0000
  H   H2919     1.0  0.79453  0.43296  0.56803  1.0000
  H   H2920     1.0  0.85048  0.37550  0.42800  1.0000
  H   H2921     1.0  0.59688  0.39609  0.42082  1.0000
  H   H2922     1.0  0.86525  0.39371  0.58029  1.0000
  H   H2923     1.0  0.87877  0.36544  0.46093  1.0000
  S   S978      1.0  0.60651  0.42160  0.38369  1.0000
  S   S979      1.0  0.86083  0.45372  0.57143  1.0000
  H   H2924     1.0  0.87978  0.26823  0.42118  1.0000
  H   H2925     1.0  0.80965  0.34920  0.56874  1.0000
  C   C2925     1.0  0.63361  0.38091  0.55170  1.0000
  H   H2926     1.0  0.67290  0.35941  0.42838  1.0000
  H   H2927     1.0  0.85182  0.31881  0.40761  1.0000
  S   S980      1.0  0.64054  0.37198  0.39667  1.0000
  Fe  Fe490     1.0  0.68438  0.34640  0.57817  1.0000
  C   C2926     1.0  0.82412  0.31410  0.42660  1.0000
  C   C2927     1.0  0.78942  0.41246  0.56743  1.0000
  H   H2928     1.0  0.80320  0.35323  0.43608  1.0000
  H   H2929     1.0  0.57294  0.38033  0.54634  1.0000
  C   C2928     1.0  0.64679  0.33977  0.46072  1.0000
  H   H2930     1.0  0.56422  0.34167  0.56691  1.0000
  H   H2931     1.0  0.78311  0.41704  0.57444  1.0000
  C   C2929     1.0  0.60918  0.40471  0.43154  1.0000
  C   C2930     1.0  0.79494  0.39605  0.55649  1.0000
  H   H2932     1.0  0.60281  0.30730  0.54700  1.0000
  C   C2931     1.0  0.81213  0.36676  0.56956  1.0000
  C   C2932     1.0  0.61601  0.42628  0.41735  1.0000
  C   C2933     1.0  0.54860  0.38071  0.57062  1.0000
  H   H2933     1.0  0.87066  0.43397  0.55847  1.0000
  C   C2934     1.0  0.65605  0.38206  0.53551  1.0000
  C   C2935     1.0  0.89095  0.34948  0.48012  1.0000
  C   C2936     1.0  0.60692  0.42187  0.41495  1.0000
  H   H2934     1.0  0.66046  0.36040  0.41350  1.0000
  H   H2935     1.0  0.89359  0.35607  0.45587  1.0000
  C   C2937     1.0  0.64571  0.38278  0.53104  1.0000
  H   H2936     1.0  0.60675  0.31325  0.58058  1.0000
  C   C2938     1.0  0.89379  0.35603  0.49709  1.0000
  H   H2937     1.0  0.62856  0.42434  0.38927  1.0000
  H   H2938     1.0  0.66478  0.38248  0.52908  1.0000
  H   H2939     1.0  0.86924  0.36541  0.41522  1.0000
  C   C2939     1.0  0.85193  0.37808  0.41807  1.0000
  C   C2940     1.0  0.66481  0.35541  0.43141  1.0000
  C   C2941     1.0  0.80285  0.42698  0.56360  1.0000
  H   H2940     1.0  0.63661  0.34124  0.46362  1.0000
  N   N242      1.0  0.65518  0.38069  0.54780  1.0000
  H   H2941     1.0  0.62900  0.42285  0.42886  1.0000
  C   C2942     1.0  0.80554  0.40032  0.54988  1.0000
  C   C2943     1.0  0.85359  0.44430  0.56716  1.0000
  H   H2942     1.0  0.58540  0.40942  0.42458  1.0000
  N   N243      1.0  0.79985  0.41659  0.56088  1.0000
  C   C2944     1.0  0.78680  0.40215  0.56532  1.0000
  H   H2943     1.0  0.66848  0.36996  0.55807  1.0000
  H   H2944     1.0  0.62276  0.40356  0.44173  1.0000
  C   C2945     1.0  0.55774  0.38504  0.56104  1.0000
  H   H2945     1.0  0.89419  0.37518  0.49375  1.0000
  H   H2946     1.0  0.83479  0.39133  0.41797  1.0000
  H   H2947     1.0  0.62189  0.32393  0.58015  1.0000
  H   H2948     1.0  0.64716  0.05211  0.56988  1.0000
  H   H2949     1.0  0.77861  0.39880  0.57063  1.0000
  C   C2946     1.0  0.60395  0.30932  0.56458  1.0000
  H   H2950     1.0  0.64983  0.34395  0.46671  1.0000
  H   H2951     1.0  0.85009  0.48008  0.56467  1.0000
  C   C2947     1.0  0.84319  0.38702  0.41246  1.0000
  H   H2952     1.0  0.67279  0.29096  0.58189  1.0000
  C   C2948     1.0  0.66105  0.35004  0.44378  1.0000
  H   H2953     1.0  0.82031  0.33762  0.44048  1.0000
  H   H2954     1.0  0.89205  0.33769  0.49792  1.0000
  H   H2955     1.0  0.89176  0.37948  0.47230  1.0000
  H   H2956     1.0  0.67421  0.38114  0.54514  1.0000
  H   H2957     1.0  0.88937  0.34236  0.47658  1.0000
  Fe  Fe491     1.0  0.64991  0.28356  0.57686  1.0000
  N   N244      1.0  0.89097  0.36104  0.47301  1.0000
  C   C2949     1.0  0.62181  0.41964  0.42700  1.0000
  C   C2950     1.0  0.61831  0.40883  0.43421  1.0000
  N   N245      1.0  0.65054  0.34547  0.44774  1.0000
  C   C2951     1.0  0.80811  0.33111  0.42032  1.0000
  H   H2958     1.0  0.61898  0.04248  0.57121  1.0000
  C   C2952     1.0  0.89245  0.34678  0.49221  1.0000
  H   H2959     1.0  0.64649  0.38367  0.52130  1.0000
  C   C2953     1.0  0.89219  0.37020  0.47775  1.0000
  H   H2960     1.0  0.61994  0.23133  0.57742  1.0000
  C   C2954     1.0  0.86990  0.32341  0.38830  1.0000
  H   H2961     1.0  0.59423  0.40952  0.40907  1.0000
  H   H2962     1.0  0.89446  0.35421  0.50661  1.0000
  C   C2955     1.0  0.80770  0.35592  0.57431  1.0000
  H   H2963     1.0  0.61441  0.11178  0.57995  1.0000
  H   H2964     1.0  0.64151  0.35180  0.42084  1.0000
  C   C2956     1.0  0.89367  0.36783  0.48984  1.0000
  C   C2957     1.0  0.63443  0.38221  0.53920  1.0000
  C   C2958     1.0  0.62232  0.03810  0.57954  1.0000
  H   H2965     1.0  0.61866  0.43468  0.41164  1.0000
  N   N246      1.0  0.80992  0.33753  0.42780  1.0000
  H   H2966     1.0  0.65081  0.32976  0.46233  1.0000
  C   C2959     1.0  0.60906  0.31503  0.57064  1.0000
  H   H2967     1.0  0.66631  0.34999  0.45029  1.0000
  S   S981      1.0  0.63763  0.27134  0.57679  1.0000
  C   C2960     1.0  0.64416  0.38013  0.55585  1.0000
  H   H2968     1.0  0.89220  0.37205  0.45473  1.0000
  C   C2961     1.0  0.82604  0.32078  0.43408  1.0000
  N   N247      1.0  0.89254  0.27645  0.42483  1.0000
  C   C2962     1.0  0.89362  0.28261  0.43295  1.0000
  C   C2963     1.0  0.89947  0.27800  0.41313  1.0000
  C   C2964     1.0  0.90143  0.29094  0.42926  1.0000
  C   C2965     1.0  0.90741  0.28623  0.40916  1.0000
  C   C2966     1.0  0.90832  0.29279  0.41726  1.0000
  C   C2967     1.0  0.88416  0.26790  0.42876  1.0000
  H   H2969     1.0  0.81292  0.38389  0.57310  1.0000
  H   H2970     1.0  0.89875  0.27302  0.40671  1.0000
  H   H2971     1.0  0.90180  0.29622  0.43557  1.0000
  H   H2972     1.0  0.91272  0.28758  0.39980  1.0000
  H   H2973     1.0  0.91425  0.29939  0.41422  1.0000
  H   H2974     1.0  0.54932  0.34654  0.56276  1.0000
  C   C2968     1.0  0.65352  0.03464  0.56446  1.0000
  H   H2975     1.0  0.63134  0.32983  0.56589  1.0000
  C   C2969     1.0  0.87582  0.36992  0.39077  1.0000
  H   H2976     1.0  0.63315  0.24359  0.58053  1.0000
  H   H2977     1.0  0.88040  0.36109  0.39598  1.0000
  H   H2978     1.0  0.90806  0.36959  0.39283  1.0000
  H   H2979     1.0  0.68009  0.31058  0.57369  1.0000
  H   H2980     1.0  0.84822  0.41754  0.58205  1.0000
  H   H2981     1.0  0.63550  0.14593  0.57791  1.0000
  C   C2970     1.0  0.85423  0.48657  0.56661  1.0000
  C   C2971     1.0  0.85593  0.38437  0.39271  1.0000
  H   H2982     1.0  0.60754  0.00499  0.57683  1.0000
  C   C2972     1.0  0.62820  0.02562  0.58137  1.0000
  H   H2983     1.0  0.88232  0.37626  0.38758  1.0000
  H   H2984     1.0  0.85745  0.38694  0.38281  1.0000
  C   C2973     1.0  0.65902  0.02226  0.56794  1.0000
  S   S982      1.0  0.66346  0.39486  0.38744  1.0000
  S   S983      1.0  0.81385  0.33287  0.38954  1.0000
  S   S984      1.0  0.85547  0.26955  0.38708  1.0000
  H   H2985     1.0  0.83825  0.39689  0.39524  1.0000
  N   N248      1.0  0.85765  0.32542  0.38842  1.0000
  H   H2986     1.0  0.67255  0.00047  0.57463  1.0000
  C   C2974     1.0  0.56747  0.10797  0.57966  1.0000
  N   N249      1.0  0.66290  0.01796  0.57878  1.0000
  H   H2987     1.0  0.59385  0.12574  0.58109  1.0000
  C   C2975     1.0  0.62484  0.43277  0.38346  1.0000
  S   S985      1.0  0.59141  0.10136  0.58166  1.0000
  H   H2988     1.0  0.84314  0.29467  0.38416  1.0000
  Fe  Fe492     1.0  0.81459  0.37675  0.38407  1.0000
  C   C2976     1.0  0.61307  0.12084  0.58177  1.0000
  C   C2977     1.0  0.60150  0.12867  0.58243  1.0000
  H   H2989     1.0  0.63911  0.44186  0.38302  1.0000
  C   C2978     1.0  0.66796  0.00483  0.58262  1.0000
  Fe  Fe493     1.0  0.89633  0.38061  0.73796  1.0000
  S   S986      1.0  0.88873  0.36746  0.75479  1.0000
  S   S987      1.0  0.88519  0.38931  0.72287  1.0000
  Fe  Fe494     1.0  0.91822  0.38020  0.74883  1.0000
  S   S988      1.0  0.91246  0.36688  0.76601  1.0000
  S   S989      1.0  0.93547  0.38744  0.74564  1.0000
  Fe  Fe495     1.0  0.90825  0.35728  0.75379  1.0000
  S   S990      1.0  0.91282  0.33677  0.75689  1.0000
  Fe  Fe496     1.0  0.89353  0.37826  0.76564  1.0000
  C   C2979     1.0  0.68634  0.30315  0.60216  1.0000
  S   S991      1.0  0.91575  0.36952  0.73624  1.0000
  S   S992      1.0  0.89943  0.39248  0.74915  1.0000
  Fe  Fe497     1.0  0.75541  0.39579  0.61336  1.0000
  S   S993      1.0  0.76302  0.37977  0.62714  1.0000
  S   S994      1.0  0.73579  0.39793  0.61079  1.0000
  Fe  Fe498     1.0  0.77952  0.40570  0.60612  1.0000
  S   S995      1.0  0.78897  0.38985  0.61865  1.0000
  H   H2990     1.0  0.93387  0.34396  0.75975  1.0000
  Fe  Fe499     1.0  0.78006  0.37833  0.61245  1.0000
  Fe  Fe500     1.0  0.77114  0.39292  0.63213  1.0000
  S   S996      1.0  0.77236  0.39199  0.65140  1.0000
  H   H2991     1.0  0.53326  0.32405  0.63629  1.0000
  S   S997      1.0  0.76185  0.40942  0.61995  1.0000
  H   H2992     1.0  0.88557  0.41293  0.66429  1.0000
  H   H2993     1.0  0.65485  0.11073  0.61220  1.0000
  C   C2980     1.0  0.58540  0.11337  0.78035  1.0000
  S   S998      1.0  0.86518  0.45044  0.62949  1.0000
  Fe  Fe501     1.0  0.85644  0.39002  0.64267  1.0000
  S   S999      1.0  0.83616  0.39520  0.65005  1.0000
  S   S1000     1.0  0.86362  0.39668  0.62226  1.0000
  Fe  Fe502     1.0  0.86190  0.37841  0.66856  1.0000
  S   S1001     1.0  0.84188  0.38185  0.67779  1.0000
  S   S1002     1.0  0.87743  0.37000  0.67906  1.0000
  Fe  Fe503     1.0  0.83862  0.37634  0.66186  1.0000
  S   S1003     1.0  0.82456  0.36532  0.66369  1.0000
  Fe  Fe504     1.0  0.84104  0.40029  0.66516  1.0000
  S   S1004     1.0  0.83316  0.41790  0.67147  1.0000
  S   S1005     1.0  0.85882  0.37070  0.65380  1.0000
  S   S1006     1.0  0.86107  0.39726  0.65668  1.0000
  C   C2981     1.0  0.95649  0.39103  0.77267  1.0000
  C   C2982     1.0  0.60473  0.01488  0.60160  1.0000
  S   S1007     1.0  0.63102  0.26797  0.60711  1.0000
  H   H2994     1.0  0.60139  0.26071  0.60322  1.0000
  C   C2983     1.0  0.54740  0.34062  0.63058  1.0000
  H   H2995     1.0  0.57913  0.14373  0.65644  1.0000
  Fe  Fe505     1.0  0.64388  0.28048  0.60434  1.0000
  S   S1008     1.0  0.64752  0.28478  0.62072  1.0000
  C   C2984     1.0  0.61162  0.38066  0.59571  1.0000
  H   H2996     1.0  0.59323  0.12995  0.62345  1.0000
  S   S1009     1.0  0.63776  0.10083  0.60640  1.0000
  H   H2997     1.0  0.84737  0.37796  0.71285  1.0000
  Fe  Fe506     1.0  0.69424  0.35893  0.59293  1.0000
  S   S1010     1.0  0.54042  0.37110  0.60315  1.0000
  C   C2985     1.0  0.94024  0.34564  0.76420  1.0000
  C   C2986     1.0  0.87961  0.40526  0.77840  1.0000
  H   H2998     1.0  0.58149  0.10865  0.76053  1.0000
  Fe  Fe507     1.0  0.58006  0.34191  0.61016  1.0000
  S   S1011     1.0  0.58341  0.32528  0.62489  1.0000
  H   H2999     1.0  0.69169  0.27920  0.61930  1.0000
  S   S1012     1.0  0.57161  0.36049  0.61428  1.0000
  C   C2987     1.0  0.73192  0.37012  0.59717  1.0000
  H   H3000     1.0  0.60876  0.07528  0.75943  1.0000
  H   H3001     1.0  0.65303  0.12955  0.61935  1.0000
  C   C2988     1.0  0.93303  0.33091  0.78271  1.0000
  H   H3002     1.0  0.55128  0.33210  0.62692  1.0000
  H   H3003     1.0  0.63015  0.40051  0.59192  1.0000
  Fe  Fe508     1.0  0.67457  0.34329  0.60547  1.0000
  S   S1013     1.0  0.66730  0.33019  0.62243  1.0000
  S   S1014     1.0  0.67568  0.36236  0.60573  1.0000
  S   S1015     1.0  0.83592  0.46884  0.62012  1.0000
  H   H3004     1.0  0.85611  0.47793  0.62543  1.0000
  S   S1016     1.0  0.51607  0.14202  0.61702  1.0000
  Fe  Fe509     1.0  0.51955  0.11735  0.64658  1.0000
  S   S1017     1.0  0.53582  0.12340  0.63322  1.0000
  S   S1018     1.0  0.52291  0.10363  0.66392  1.0000
  Fe  Fe510     1.0  0.52371  0.14214  0.63289  1.0000
  S   S1019     1.0  0.53167  0.15598  0.63704  1.0000
  Fe  Fe511     1.0  0.52654  0.12251  0.61889  1.0000
  S   S1020     1.0  0.53414  0.11512  0.60177  1.0000
  S   S1021     1.0  0.50759  0.13609  0.64681  1.0000
  S   S1022     1.0  0.51129  0.11438  0.63228  1.0000
  Fe  Fe512     1.0  0.57229  0.14170  0.69773  1.0000
  S   S1023     1.0  0.56662  0.12741  0.71430  1.0000
  S   S1024     1.0  0.56383  0.16174  0.69554  1.0000
  Fe  Fe513     1.0  0.59051  0.12337  0.68437  1.0000
  S   S1025     1.0  0.58669  0.10741  0.69971  1.0000
  S   S1026     1.0  0.60334  0.12159  0.66630  1.0000
  Fe  Fe514     1.0  0.56688  0.11693  0.70033  1.0000
  S   S1027     1.0  0.55171  0.10716  0.70225  1.0000
  Fe  Fe515     1.0  0.58696  0.11933  0.71225  1.0000
  S   S1028     1.0  0.59817  0.11067  0.72720  1.0000
  S   S1029     1.0  0.57077  0.13197  0.68413  1.0000
  S   S1030     1.0  0.59250  0.13452  0.69656  1.0000
  Fe  Fe516     1.0  0.59648  0.18362  0.62961  1.0000
  S   S1031     1.0  0.61625  0.18430  0.62152  1.0000
  S   S1032     1.0  0.58747  0.19294  0.64537  1.0000
  Fe  Fe517     1.0  0.59456  0.17116  0.61045  1.0000
  S   S1033     1.0  0.61409  0.17132  0.60042  1.0000
  S   S1034     1.0  0.58429  0.16078  0.60417  1.0000
  Fe  Fe518     1.0  0.61798  0.16513  0.61929  1.0000
  S   S1035     1.0  0.63306  0.14923  0.62441  1.0000
  Fe  Fe519     1.0  0.61038  0.19053  0.60355  1.0000
  N   N250      1.0  0.62347  0.09200  0.66565  1.0000
  S   S1036     1.0  0.59876  0.16390  0.62914  1.0000
  S   S1037     1.0  0.59031  0.19094  0.61178  1.0000
  Fe  Fe520     1.0  0.61558  0.06789  0.60902  1.0000
  S   S1038     1.0  0.59534  0.07618  0.61131  1.0000
  S   S1039     1.0  0.62389  0.04753  0.61050  1.0000
  Fe  Fe521     1.0  0.62193  0.09235  0.60782  1.0000
  S   S1040     1.0  0.60245  0.10270  0.60963  1.0000
  H   H3005     1.0  0.50771  0.11904  0.59639  1.0000
  Fe  Fe522     1.0  0.59827  0.08622  0.62402  1.0000
  S   S1041     1.0  0.58492  0.08945  0.64144  1.0000
  Fe  Fe523     1.0  0.60135  0.09190  0.59677  1.0000
  H   H3006     1.0  0.60345  0.02462  0.59746  1.0000
  S   S1042     1.0  0.61790  0.07655  0.62329  1.0000
  S   S1043     1.0  0.62141  0.08296  0.59337  1.0000
  N   N251      1.0  0.57439  0.12968  0.63175  1.0000
  C   C2989     1.0  0.63278  0.23452  0.58618  1.0000
  S   S1044     1.0  0.60670  0.13385  0.76781  1.0000
  C   C2990     1.0  0.63958  0.21772  0.60215  1.0000
  H   H3007     1.0  0.55010  0.34833  0.62307  1.0000
  C   C2991     1.0  0.63358  0.13558  0.62013  1.0000
  C   C2992     1.0  0.62308  0.13276  0.61854  1.0000
  C   C2993     1.0  0.62404  0.12180  0.61483  1.0000
  C   C2994     1.0  0.63556  0.11391  0.61239  1.0000
  C   C2995     1.0  0.58743  0.13718  0.63978  1.0000
  C   C2996     1.0  0.80090  0.35367  0.58637  1.0000
  H   H3008     1.0  0.61430  0.13905  0.62006  1.0000
  H   H3009     1.0  0.61601  0.11968  0.61348  1.0000
  H   H3010     1.0  0.55877  0.13930  0.65786  1.0000
  C   C2997     1.0  0.88858  0.39759  0.63756  1.0000
  C   C2998     1.0  0.59807  0.11286  0.65930  1.0000
  C   C2999     1.0  0.60459  0.11037  0.64787  1.0000
  C   C3000     1.0  0.60066  0.10305  0.64243  1.0000
  C   C3001     1.0  0.59000  0.09847  0.64825  1.0000
  C   C3002     1.0  0.58335  0.10114  0.65957  1.0000
  C   C3003     1.0  0.58744  0.10823  0.66514  1.0000
  H   H3011     1.0  0.61268  0.11410  0.64321  1.0000
  H   H3012     1.0  0.60592  0.10096  0.63375  1.0000
  H   H3013     1.0  0.57511  0.09760  0.66414  1.0000
  H   H3014     1.0  0.58236  0.11002  0.67400  1.0000
  C   C3004     1.0  0.56970  0.17018  0.68113  1.0000
  C   C3005     1.0  0.56676  0.18300  0.67892  1.0000
  C   C3006     1.0  0.57196  0.18991  0.66773  1.0000
  C   C3007     1.0  0.57995  0.18404  0.65861  1.0000
  C   C3008     1.0  0.58262  0.17120  0.66066  1.0000
  C   C3009     1.0  0.57759  0.16426  0.67197  1.0000
  H   H3015     1.0  0.56067  0.18760  0.68598  1.0000
  H   H3016     1.0  0.56990  0.19984  0.66620  1.0000
  H   H3017     1.0  0.58896  0.16660  0.65377  1.0000
  H   H3018     1.0  0.58005  0.15436  0.67368  1.0000
  C   C3010     1.0  0.60125  0.11802  0.73743  1.0000
  C   C3011     1.0  0.59401  0.12921  0.73999  1.0000
  C   C3012     1.0  0.59599  0.13406  0.74911  1.0000
  C   C3013     1.0  0.60517  0.12777  0.75582  1.0000
  C   C3014     1.0  0.61254  0.11668  0.75311  1.0000
  C   C3015     1.0  0.61065  0.11190  0.74391  1.0000
  H   H3019     1.0  0.58673  0.13403  0.73513  1.0000
  H   H3020     1.0  0.59025  0.14266  0.75110  1.0000
  H   H3021     1.0  0.61968  0.11175  0.75813  1.0000
  H   H3022     1.0  0.61634  0.10325  0.74200  1.0000
  C   C3016     1.0  0.53149  0.10520  0.67381  1.0000
  C   C3017     1.0  0.54081  0.11201  0.66993  1.0000
  C   C3018     1.0  0.54746  0.11256  0.67837  1.0000
  C   C3019     1.0  0.54465  0.10641  0.69071  1.0000
  C   C3020     1.0  0.53543  0.09962  0.69439  1.0000
  C   C3021     1.0  0.52900  0.09894  0.68602  1.0000
  H   H3023     1.0  0.54300  0.11666  0.66044  1.0000
  H   H3024     1.0  0.55466  0.11775  0.67541  1.0000
  H   H3025     1.0  0.53321  0.09481  0.70385  1.0000
  H   H3026     1.0  0.52194  0.09356  0.68911  1.0000
  H   H3027     1.0  0.50118  0.12696  0.60885  1.0000
  C   C3022     1.0  0.57099  0.10725  0.59954  1.0000
  C   C3023     1.0  0.55824  0.11071  0.60395  1.0000
  C   C3024     1.0  0.55012  0.11237  0.59628  1.0000
  H   H3028     1.0  0.49803  0.36560  0.61325  1.0000
  Fe  Fe524     1.0  0.62443  0.28104  0.59101  1.0000
  H   H3029     1.0  0.86875  0.35191  0.70175  1.0000
  H   H3030     1.0  0.55468  0.11159  0.61336  1.0000
  N   N252      1.0  0.68203  0.29251  0.60670  1.0000
  H   H3031     1.0  0.51055  0.32773  0.64246  1.0000
  C   C3025     1.0  0.54615  0.15756  0.62772  1.0000
  C   C3026     1.0  0.55328  0.16392  0.63078  1.0000
  C   C3027     1.0  0.56503  0.16496  0.62359  1.0000
  C   C3028     1.0  0.56959  0.15975  0.61325  1.0000
  C   C3029     1.0  0.56244  0.15341  0.61018  1.0000
  C   C3030     1.0  0.55076  0.15226  0.61744  1.0000
  H   H3032     1.0  0.54974  0.16806  0.63870  1.0000
  H   H3033     1.0  0.57049  0.16990  0.62598  1.0000
  C   C3031     1.0  0.59777  0.29608  0.60205  1.0000
  H   H3034     1.0  0.54525  0.14743  0.61497  1.0000
  H   H3035     1.0  0.58080  0.30296  0.59572  1.0000
  H   H3036     1.0  0.74385  0.34340  0.62048  1.0000
  C   C3032     1.0  0.88336  0.41554  0.64573  1.0000
  H   H3037     1.0  0.85597  0.36410  0.69921  1.0000
  C   C3033     1.0  0.62947  0.08323  0.64778  1.0000
  C   C3034     1.0  0.61402  0.23693  0.61599  1.0000
  H   H3038     1.0  0.59217  0.09109  0.75073  1.0000
  H   H3039     1.0  0.89495  0.38045  0.64957  1.0000
  H   H3040     1.0  0.93054  0.32668  0.77639  1.0000
  C   C3035     1.0  0.80243  0.37341  0.58866  1.0000
  C   C3036     1.0  0.66075  0.31845  0.62140  1.0000
  C   C3037     1.0  0.65835  0.31760  0.61042  1.0000
  C   C3038     1.0  0.65366  0.30761  0.61008  1.0000
  C   C3039     1.0  0.65151  0.29846  0.62070  1.0000
  C   C3040     1.0  0.65341  0.29970  0.63169  1.0000
  C   C3041     1.0  0.65795  0.30964  0.63204  1.0000
  H   H3041     1.0  0.66034  0.32445  0.60217  1.0000
  H   H3042     1.0  0.65210  0.30677  0.60157  1.0000
  H   H3043     1.0  0.65165  0.29274  0.63995  1.0000
  H   H3044     1.0  0.65960  0.31031  0.64059  1.0000
  H   H3045     1.0  0.60843  0.15305  0.58812  1.0000
  C   C3042     1.0  0.90664  0.32927  0.77173  1.0000
  C   C3043     1.0  0.58138  0.31213  0.60943  1.0000
  C   C3044     1.0  0.58831  0.31312  0.61722  1.0000
  C   C3045     1.0  0.59977  0.30528  0.61776  1.0000
  C   C3046     1.0  0.60455  0.29684  0.61008  1.0000
  H   H3046     1.0  0.51106  0.13361  0.59512  1.0000
  S   S1045     1.0  0.69361  0.33919  0.59418  1.0000
  H   H3047     1.0  0.60516  0.30599  0.62377  1.0000
  H   H3048     1.0  0.61357  0.29106  0.61030  1.0000
  H   H3049     1.0  0.67497  0.00320  0.58816  1.0000
  C   C3047     1.0  0.62760  0.39203  0.59226  1.0000
  C   C3048     1.0  0.57288  0.12367  0.62276  1.0000
  H   H3050     1.0  0.83866  0.37916  0.61384  1.0000
  C   C3049     1.0  0.84090  0.41530  0.58983  1.0000
  C   C3050     1.0  0.94748  0.35428  0.75782  1.0000
  Fe  Fe525     1.0  0.58644  0.36661  0.59848  1.0000
  H   H3051     1.0  0.96110  0.36345  0.75871  1.0000
  H   H3052     1.0  0.63184  0.20168  0.60599  1.0000
  H   H3053     1.0  0.64517  0.21384  0.60897  1.0000
  C   C3051     1.0  0.51083  0.34845  0.61179  1.0000
  C   C3052     1.0  0.52331  0.34284  0.60876  1.0000
  C   C3053     1.0  0.53249  0.34971  0.60581  1.0000
  C   C3054     1.0  0.52924  0.36227  0.60584  1.0000
  C   C3055     1.0  0.51676  0.36796  0.60836  1.0000
  C   C3056     1.0  0.50760  0.36109  0.61131  1.0000
  H   H3054     1.0  0.52587  0.33307  0.60900  1.0000
  H   H3055     1.0  0.54204  0.34521  0.60379  1.0000
  H   H3056     1.0  0.51415  0.37771  0.60823  1.0000
  H   H3057     1.0  0.56818  0.07871  0.61228  1.0000
  H   H3058     1.0  0.80814  0.43581  0.58434  1.0000
  C   C3057     1.0  0.94796  0.38332  0.77686  1.0000
  C   C3058     1.0  0.86325  0.37616  0.61426  1.0000
  C   C3059     1.0  0.86384  0.38859  0.61113  1.0000
  C   C3060     1.0  0.86479  0.39478  0.59880  1.0000
  H   H3059     1.0  0.59279  0.21790  0.61253  1.0000
  H   H3060     1.0  0.57095  0.07856  0.63279  1.0000
  H   H3061     1.0  0.86276  0.37120  0.62368  1.0000
  H   H3062     1.0  0.86572  0.40425  0.59619  1.0000
  C   C3061     1.0  0.83283  0.37303  0.61427  1.0000
  C   C3062     1.0  0.85612  0.44175  0.64139  1.0000
  C   C3063     1.0  0.85474  0.44234  0.65361  1.0000
  C   C3064     1.0  0.84714  0.43548  0.66297  1.0000
  C   C3065     1.0  0.84128  0.42783  0.66005  1.0000
  C   C3066     1.0  0.84283  0.42716  0.64786  1.0000
  C   C3067     1.0  0.85006  0.43427  0.63854  1.0000
  H   H3063     1.0  0.85942  0.44816  0.65582  1.0000
  H   H3064     1.0  0.84611  0.43581  0.67245  1.0000
  H   H3065     1.0  0.83848  0.42111  0.64561  1.0000
  H   H3066     1.0  0.85122  0.43365  0.62917  1.0000
  C   C3068     1.0  0.79696  0.42810  0.60135  1.0000
  H   H3067     1.0  0.53204  0.36186  0.63338  1.0000
  C   C3069     1.0  0.81048  0.44198  0.59939  1.0000
  C   C3070     1.0  0.80686  0.44167  0.61198  1.0000
  C   C3071     1.0  0.79845  0.43437  0.61921  1.0000
  C   C3072     1.0  0.79358  0.42756  0.61397  1.0000
  H   H3068     1.0  0.60619  0.25393  0.58985  1.0000
  H   H3069     1.0  0.56184  0.07883  0.65411  1.0000
  C   C3073     1.0  0.52740  0.35425  0.63575  1.0000
  C   C3074     1.0  0.78702  0.38467  0.65440  1.0000
  C   C3075     1.0  0.79754  0.38909  0.64744  1.0000
  C   C3076     1.0  0.80906  0.38357  0.65052  1.0000
  C   C3077     1.0  0.81016  0.37334  0.66027  1.0000
  C   C3078     1.0  0.79967  0.36885  0.66702  1.0000
  C   C3079     1.0  0.78812  0.37465  0.66427  1.0000
  H   H3070     1.0  0.79670  0.39694  0.63989  1.0000
  H   H3071     1.0  0.81709  0.38704  0.64515  1.0000
  H   H3072     1.0  0.80044  0.36092  0.67451  1.0000
  H   H3073     1.0  0.78003  0.37125  0.66972  1.0000
  H   H3074     1.0  0.83946  0.41262  0.62598  1.0000
  C   C3080     1.0  0.71917  0.37250  0.59775  1.0000
  C   C3081     1.0  0.63988  0.22964  0.59511  1.0000
  C   C3082     1.0  0.71712  0.39099  0.60516  1.0000
  C   C3083     1.0  0.72982  0.38838  0.60496  1.0000
  C   C3084     1.0  0.73721  0.37797  0.60074  1.0000
  C   C3085     1.0  0.63199  0.21083  0.60051  1.0000
  C   C3086     1.0  0.52809  0.33317  0.63729  1.0000
  S   S1046     1.0  0.64919  0.23813  0.59781  1.0000
  H   H3075     1.0  0.68895  0.31830  0.58670  1.0000
  Fe  Fe526     1.0  0.56075  0.36255  0.60016  1.0000
  C   C3087     1.0  0.94276  0.38896  0.75665  1.0000
  Fe  Fe527     1.0  0.61882  0.12386  0.78172  1.0000
  C   C3088     1.0  0.60560  0.99440  0.60064  1.0000
  C   C3089     1.0  0.95798  0.39770  0.76055  1.0000
  C   C3090     1.0  0.95132  0.39654  0.75259  1.0000
  H   H3076     1.0  0.96449  0.40370  0.75720  1.0000
  H   H3077     1.0  0.95285  0.40158  0.74317  1.0000
  C   C3091     1.0  0.61317  0.22560  0.62403  1.0000
  H   H3078     1.0  0.68144  0.29209  0.62537  1.0000
  H   H3079     1.0  0.91013  0.31200  0.76639  1.0000
  Fe  Fe528     1.0  0.50096  0.13394  0.63095  1.0000
  H   H3080     1.0  0.79755  0.34524  0.59011  1.0000
  C   C3092     1.0  0.66120  0.02566  0.58650  1.0000
  C   C3093     1.0  0.62084  0.04499  0.58840  1.0000
  H   H3081     1.0  0.88136  0.40452  0.76895  1.0000
  C   C3094     1.0  0.88381  0.38404  0.71025  1.0000
  C   C3095     1.0  0.89085  0.37296  0.70719  1.0000
  C   C3096     1.0  0.88894  0.36892  0.69749  1.0000
  C   C3097     1.0  0.87990  0.37581  0.69080  1.0000
  C   C3098     1.0  0.87296  0.38695  0.69376  1.0000
  C   C3099     1.0  0.87496  0.39105  0.70336  1.0000
  H   H3082     1.0  0.89775  0.36749  0.71232  1.0000
  H   H3083     1.0  0.89444  0.36033  0.69524  1.0000
  H   H3084     1.0  0.86601  0.39241  0.68868  1.0000
  H   H3085     1.0  0.86949  0.39966  0.70559  1.0000
  Fe  Fe529     1.0  0.82909  0.45908  0.60969  1.0000
  H   H3086     1.0  0.88886  0.39315  0.63030  1.0000
  C   C3100     1.0  0.63098  0.02692  0.60101  1.0000
  C   C3101     1.0  0.62520  0.03940  0.59916  1.0000
  S   S1047     1.0  0.96545  0.39294  0.78204  1.0000
  C   C3102     1.0  0.54857  0.08519  0.61674  1.0000
  H   H3087     1.0  0.63442  0.02255  0.60930  1.0000
  C   C3103     1.0  0.64592  0.11675  0.61412  1.0000
  S   S1048     1.0  0.78934  0.35991  0.60836  1.0000
  S   S1049     1.0  0.60429  0.28658  0.59147  1.0000
  N   N253      1.0  0.53397  0.34271  0.63459  1.0000
  H   H3088     1.0  0.87521  0.34680  0.77318  1.0000
  H   H3089     1.0  0.81565  0.40275  0.59796  1.0000
  S   S1050     1.0  0.83274  0.47323  0.59215  1.0000
  C   C3104     1.0  0.51526  0.33515  0.64092  1.0000
  C   C3105     1.0  0.63252  0.02009  0.59215  1.0000
  C   C3106     1.0  0.84041  0.41778  0.60111  1.0000
  S   S1051     1.0  0.57470  0.37064  0.58462  1.0000
  H   H3090     1.0  0.82516  0.35870  0.59622  1.0000
  C   C3107     1.0  0.50848  0.34690  0.64198  1.0000
  H   H3091     1.0  0.86348  0.36035  0.60756  1.0000
  C   C3108     1.0  0.58608  0.30355  0.60190  1.0000
  C   C3109     1.0  0.55477  0.11101  0.58416  1.0000
  C   C3110     1.0  0.86460  0.38880  0.58974  1.0000
  H   H3092     1.0  0.68989  0.30681  0.60790  1.0000
  N   N254      1.0  0.62461  0.35291  0.62148  1.0000
  C   C3111     1.0  0.61224  0.35519  0.62193  1.0000
  C   C3112     1.0  0.63146  0.34118  0.62229  1.0000
  C   C3113     1.0  0.60649  0.34560  0.62300  1.0000
  C   C3114     1.0  0.62600  0.33137  0.62336  1.0000
  C   C3115     1.0  0.61344  0.33363  0.62368  1.0000
  C   C3116     1.0  0.63051  0.36292  0.62078  1.0000
  H   H3093     1.0  0.60676  0.36447  0.62137  1.0000
  H   H3094     1.0  0.64120  0.33936  0.62217  1.0000
  H   H3095     1.0  0.63145  0.32207  0.62402  1.0000
  H   H3096     1.0  0.63174  0.36277  0.63001  1.0000
  H   H3097     1.0  0.63968  0.36199  0.61440  1.0000
  H   H3098     1.0  0.62498  0.37206  0.61724  1.0000
  C   C3117     1.0  0.81774  0.35745  0.61565  1.0000
  C   C3118     1.0  0.82525  0.36156  0.60439  1.0000
  C   C3119     1.0  0.80968  0.35697  0.63766  1.0000
  H   H3099     1.0  0.81178  0.35146  0.61605  1.0000
  C   C3120     1.0  0.67672  0.29439  0.58749  1.0000
  H   H3100     1.0  0.81439  0.35468  0.64545  1.0000
  H   H3101     1.0  0.80146  0.36447  0.63920  1.0000
  N   N255      1.0  0.52815  0.14334  0.67630  1.0000
  C   C3121     1.0  0.52812  0.13580  0.68766  1.0000
  C   C3122     1.0  0.53424  0.15283  0.67260  1.0000
  C   C3123     1.0  0.53418  0.13774  0.69571  1.0000
  C   C3124     1.0  0.54034  0.15507  0.68047  1.0000
  C   C3125     1.0  0.54023  0.14749  0.69211  1.0000
  C   C3126     1.0  0.52205  0.14107  0.66780  1.0000
  H   H3102     1.0  0.52361  0.12806  0.69050  1.0000
  H   H3103     1.0  0.53438  0.15869  0.66351  1.0000
  H   H3104     1.0  0.53439  0.13155  0.70460  1.0000
  H   H3105     1.0  0.54495  0.14907  0.69831  1.0000
  H   H3106     1.0  0.51623  0.13414  0.67232  1.0000
  H   H3107     1.0  0.51606  0.14970  0.66386  1.0000
  H   H3108     1.0  0.52903  0.13762  0.66013  1.0000
  H   H3109     1.0  0.63717  0.01058  0.59365  1.0000
  C   C3127     1.0  0.88667  0.40858  0.65673  1.0000
  C   C3128     1.0  0.60927  0.99834  0.61864  1.0000
  H   H3110     1.0  0.56321  0.12616  0.62163  1.0000
  C   C3129     1.0  0.90235  0.42570  0.78220  1.0000
  C   C3130     1.0  0.68268  0.28571  0.61925  1.0000
  S   S1052     1.0  0.65873  0.27017  0.59167  1.0000
  C   C3131     1.0  0.80543  0.43534  0.59409  1.0000
  H   H3111     1.0  0.53250  0.09199  0.64406  1.0000
  H   H3112     1.0  0.89526  0.43223  0.77787  1.0000
  H   H3113     1.0  0.85347  0.35025  0.71050  1.0000
  C   C3132     1.0  0.86366  0.37003  0.60511  1.0000
  H   H3114     1.0  0.62909  0.07633  0.64322  1.0000
  C   C3133     1.0  0.71183  0.38314  0.60156  1.0000
  C   C3134     1.0  0.63326  0.37094  0.58998  1.0000
  S   S1053     1.0  0.66535  0.34897  0.58966  1.0000
  C   C3135     1.0  0.85552  0.37783  0.72752  1.0000
  H   H3115     1.0  0.86598  0.37557  0.74111  1.0000
  C   C3136     1.0  0.63665  0.10110  0.64749  1.0000
  H   H3116     1.0  0.71130  0.39907  0.60828  1.0000
  H   H3117     1.0  0.61149  0.99504  0.62765  1.0000
  C   C3137     1.0  0.90816  0.41483  0.77815  1.0000
  H   H3118     1.0  0.54517  0.16260  0.67761  1.0000
  N   N256      1.0  0.59179  0.10287  0.77463  1.0000
  C   C3138     1.0  0.58847  0.10165  0.76460  1.0000
  H   H3119     1.0  0.55513  0.09501  0.65105  1.0000
  N   N257      1.0  0.60717  0.17082  0.66877  1.0000
  C   C3139     1.0  0.61356  0.17313  0.65689  1.0000
  C   C3140     1.0  0.60664  0.15903  0.67495  1.0000
  C   C3141     1.0  0.61942  0.16348  0.65082  1.0000
  C   C3142     1.0  0.61221  0.14919  0.66906  1.0000
  C   C3143     1.0  0.61858  0.15147  0.65690  1.0000
  C   C3144     1.0  0.60131  0.18098  0.67512  1.0000
  H   H3120     1.0  0.61400  0.18247  0.65198  1.0000
  H   H3121     1.0  0.60166  0.15722  0.68440  1.0000
  H   H3122     1.0  0.62457  0.16527  0.64145  1.0000
  H   H3123     1.0  0.61158  0.13986  0.67387  1.0000
  H   H3124     1.0  0.62287  0.14396  0.65217  1.0000
  H   H3125     1.0  0.59283  0.17904  0.68194  1.0000
  H   H3126     1.0  0.60778  0.18244  0.67990  1.0000
  H   H3127     1.0  0.59839  0.18962  0.66857  1.0000
  N   N258      1.0  0.71662  0.36267  0.62813  1.0000
  C   C3145     1.0  0.72479  0.35279  0.62422  1.0000
  C   C3146     1.0  0.72055  0.37077  0.63213  1.0000
  C   C3147     1.0  0.73733  0.35099  0.62400  1.0000
  C   C3148     1.0  0.73301  0.36926  0.63202  1.0000
  C   C3149     1.0  0.74144  0.35932  0.62789  1.0000
  C   C3150     1.0  0.70350  0.36433  0.62843  1.0000
  H   H3128     1.0  0.72171  0.34652  0.62079  1.0000
  H   H3129     1.0  0.71415  0.37875  0.63500  1.0000
  S   S1054     1.0  0.77232  0.39371  0.59831  1.0000
  H   H3130     1.0  0.73615  0.37605  0.63466  1.0000
  H   H3131     1.0  0.87667  0.42503  0.77404  1.0000
  H   H3132     1.0  0.69898  0.37423  0.62686  1.0000
  H   H3133     1.0  0.70216  0.36073  0.62098  1.0000
  H   H3134     1.0  0.69887  0.35946  0.63740  1.0000
  N   N259      1.0  0.88445  0.41003  0.63630  1.0000
  H   H3135     1.0  0.92152  0.39802  0.78083  1.0000
  H   H3136     1.0  0.89327  0.39033  0.66666  1.0000
  C   C3151     1.0  0.59861  0.22330  0.61371  1.0000
  C   C3152     1.0  0.60074  0.09410  0.77961  1.0000
  C   C3153     1.0  0.60537  0.21877  0.62289  1.0000
  S   S1055     1.0  0.86038  0.47004  0.59735  1.0000
  C   C3154     1.0  0.60808  0.25338  0.59892  1.0000
  C   C3155     1.0  0.65567  0.03809  0.58335  1.0000
  H   H3137     1.0  0.81696  0.44753  0.59369  1.0000
  H   H3138     1.0  0.52943  0.09222  0.62365  1.0000
  H   H3139     1.0  0.94660  0.35936  0.74862  1.0000
  H   H3140     1.0  0.90568  0.41288  0.77057  1.0000
  S   S1056     1.0  0.59587  0.34770  0.59559  1.0000
  C   C3156     1.0  0.51457  0.35652  0.63944  1.0000
  H   H3141     1.0  0.64170  0.10829  0.64263  1.0000
  C   C3157     1.0  0.56486  0.13213  0.64133  1.0000
  H   H3142     1.0  0.61685  0.09988  0.68162  1.0000
  H   H3143     1.0  0.61745  0.25521  0.59708  1.0000
  H   H3144     1.0  0.59643  0.13868  0.63933  1.0000
  C   C3158     1.0  0.85976  0.35675  0.70647  1.0000
  C   C3159     1.0  0.60745  0.01085  0.61328  1.0000
  C   C3160     1.0  0.55368  0.08575  0.65153  1.0000
  C   C3161     1.0  0.56029  0.08137  0.61932  1.0000
  H   H3145     1.0  0.55598  0.13021  0.64201  1.0000
  S   S1057     1.0  0.65215  0.38360  0.58519  1.0000
  C   C3162     1.0  0.56635  0.13732  0.65031  1.0000
  H   H3146     1.0  0.82581  0.37101  0.63368  1.0000
  H   H3147     1.0  0.93438  0.37651  0.77214  1.0000
  H   H3148     1.0  0.60831  0.01740  0.61803  1.0000
  H   H3149     1.0  0.57242  0.31801  0.60917  1.0000
  N   N260      1.0  0.60736  0.24130  0.60700  1.0000
  S   S1058     1.0  0.49962  0.33930  0.61681  1.0000
  H   H3150     1.0  0.60905  0.32613  0.62454  1.0000
  H   H3151     1.0  0.57863  0.12664  0.61357  1.0000
  H   H3152     1.0  0.83067  0.42780  0.62125  1.0000
  C   C3163     1.0  0.87691  0.41686  0.78129  1.0000
  H   H3153     1.0  0.54558  0.08400  0.65901  1.0000
  N   N261      1.0  0.81795  0.36089  0.62600  1.0000
  C   C3164     1.0  0.82543  0.36851  0.62544  1.0000
  H   H3154     1.0  0.57556  0.11354  0.62579  1.0000
  C   C3165     1.0  0.90655  0.31681  0.77386  1.0000
  C   C3166     1.0  0.86439  0.37150  0.73439  1.0000
  C   C3167     1.0  0.89102  0.39591  0.65805  1.0000
  H   H3155     1.0  0.90204  0.34508  0.77988  1.0000
  C   C3168     1.0  0.89201  0.39035  0.64842  1.0000
  C   C3169     1.0  0.67746  0.28798  0.59947  1.0000
  C   C3170     1.0  0.50370  0.12821  0.59872  1.0000
  C   C3171     1.0  0.88022  0.41735  0.62517  1.0000
  C   C3172     1.0  0.82280  0.40676  0.59884  1.0000
  C   C3173     1.0  0.57559  0.10590  0.58737  1.0000
  C   C3174     1.0  0.87169  0.36028  0.73210  1.0000
  C   C3175     1.0  0.59447  0.09168  0.75902  1.0000
  H   H3156     1.0  0.84746  0.42192  0.60193  1.0000
  H   H3157     1.0  0.87028  0.41769  0.62642  1.0000
  H   H3158     1.0  0.88163  0.42691  0.62311  1.0000
  H   H3159     1.0  0.88521  0.41329  0.61707  1.0000
  C   C3176     1.0  0.83196  0.40989  0.58866  1.0000
  H   H3160     1.0  0.74698  0.37583  0.60045  1.0000
  H   H3161     1.0  0.57724  0.10556  0.60556  1.0000
  C   C3177     1.0  0.94877  0.34199  0.78169  1.0000
  C   C3178     1.0  0.59967  0.23468  0.60583  1.0000
  H   H3162     1.0  0.49850  0.34861  0.64444  1.0000
  N   N262      1.0  0.83128  0.41491  0.61099  1.0000
  C   C3179     1.0  0.86414  0.37635  0.59284  1.0000
  H   H3163     1.0  0.64114  0.09238  0.63210  1.0000
  S   S1059     1.0  0.81251  0.45023  0.61910  1.0000
  H   H3164     1.0  0.85012  0.38676  0.72897  1.0000
  H   H3165     1.0  0.87891  0.35552  0.73711  1.0000
  C   C3180     1.0  0.90205  0.33543  0.78145  1.0000
  H   H3166     1.0  0.62029  0.24208  0.61677  1.0000
  C   C3181     1.0  0.58559  0.13209  0.63092  1.0000
  H   H3167     1.0  0.62068  0.08334  0.68455  1.0000
  C   C3182     1.0  0.54035  0.08891  0.63719  1.0000
  C   C3183     1.0  0.94092  0.38246  0.76891  1.0000
  H   H3168     1.0  0.59088  0.14648  0.58531  1.0000
  H   H3169     1.0  0.60684  0.09184  0.67909  1.0000
  Fe  Fe530     1.0  0.85436  0.45702  0.61472  1.0000
  C   C3184     1.0  0.57773  0.13986  0.64949  1.0000
  H   H3170     1.0  0.55167  0.33986  0.63835  1.0000
  S   S1060     1.0  0.84724  0.44613  0.60583  1.0000
  H   H3171     1.0  0.59670  0.34740  0.62332  1.0000
  C   C3185     1.0  0.60981  0.14394  0.58640  1.0000
  H   H3172     1.0  0.80650  0.34867  0.63774  1.0000
  C   C3186     1.0  0.64491  0.12742  0.61815  1.0000
  H   H3173     1.0  0.78708  0.42202  0.61968  1.0000
  H   H3174     1.0  0.87968  0.42534  0.64488  1.0000
  C   C3187     1.0  0.53852  0.08897  0.62571  1.0000
  H   H3175     1.0  0.81526  0.40718  0.61781  1.0000
  H   H3176     1.0  0.79562  0.43404  0.62891  1.0000
  H   H3177     1.0  0.54731  0.08561  0.60766  1.0000
  H   H3178     1.0  0.82283  0.41567  0.62976  1.0000
  C   C3188     1.0  0.83280  0.36944  0.60371  1.0000
  C   C3189     1.0  0.56179  0.08142  0.63090  1.0000
  N   N263      1.0  0.55187  0.08510  0.63968  1.0000
  N   N264      1.0  0.80122  0.42946  0.65573  1.0000
  C   C3190     1.0  0.78978  0.43356  0.65303  1.0000
  C   C3191     1.0  0.80488  0.41749  0.66140  1.0000
  C   C3192     1.0  0.78168  0.42557  0.65603  1.0000
  C   C3193     1.0  0.79697  0.40930  0.66464  1.0000
  C   C3194     1.0  0.78530  0.41339  0.66192  1.0000
  C   C3195     1.0  0.80986  0.43773  0.65207  1.0000
  H   H3179     1.0  0.78697  0.44297  0.64828  1.0000
  H   H3180     1.0  0.81397  0.41421  0.66345  1.0000
  H   H3181     1.0  0.77269  0.42875  0.65370  1.0000
  H   H3182     1.0  0.79991  0.39979  0.66911  1.0000
  H   H3183     1.0  0.77910  0.40710  0.66426  1.0000
  H   H3184     1.0  0.81710  0.43536  0.64405  1.0000
  H   H3185     1.0  0.80526  0.44751  0.64937  1.0000
  H   H3186     1.0  0.81429  0.43696  0.65974  1.0000
  H   H3187     1.0  0.63035  0.10789  0.66411  1.0000
  H   H3188     1.0  0.75119  0.35826  0.62740  1.0000
  H   H3189     1.0  0.87591  0.34696  0.72095  1.0000
  H   H3190     1.0  0.80033  0.38023  0.59415  1.0000
  C   C3196     1.0  0.63158  0.14047  0.58688  1.0000
  C   C3197     1.0  0.95561  0.35660  0.76351  1.0000
  H   H3191     1.0  0.50934  0.36576  0.63992  1.0000
  C   C3198     1.0  0.63022  0.10081  0.65964  1.0000
  H   H3192     1.0  0.61756  0.07642  0.66455  1.0000
  C   C3199     1.0  0.61668  0.09172  0.67836  1.0000
  H   H3193     1.0  0.60466  0.20992  0.62898  1.0000
  C   C3200     1.0  0.63627  0.09223  0.64155  1.0000
  H   H3194     1.0  0.56590  0.14945  0.60213  1.0000
  C   C3201     1.0  0.62304  0.08329  0.65987  1.0000
  C   C3202     1.0  0.60824  0.99005  0.61235  1.0000
  N   N265      1.0  0.86141  0.36191  0.71605  1.0000
  C   C3203     1.0  0.85409  0.37284  0.71836  1.0000
  C   C3204     1.0  0.87001  0.35555  0.72288  1.0000
  S   S1061     1.0  0.56817  0.34341  0.59723  1.0000
  H   H3195     1.0  0.61637  0.05461  0.58688  1.0000
  H   H3196     1.0  0.59452  0.23801  0.59860  1.0000
  C   C3205     1.0  0.82260  0.40934  0.61003  1.0000
  H   H3197     1.0  0.70204  0.38521  0.60197  1.0000
  H   H3198     1.0  0.99265  0.38241  0.78182  1.0000
  C   C3206     1.0  0.62068  0.37040  0.59286  1.0000
  S   S1062     1.0  0.79110  0.41954  0.59442  1.0000
  C   C3207     1.0  0.60384  0.08289  0.76384  1.0000
  H   H3199     1.0  0.67399  0.27958  0.60310  1.0000
  Fe  Fe531     1.0  0.85123  0.46045  0.58884  1.0000
  H   H3200     1.0  0.60826  0.39935  0.59764  1.0000
  C   C3208     1.0  0.59984  0.14029  0.58478  1.0000
  Fe  Fe532     1.0  0.66784  0.36764  0.58875  1.0000
  Fe  Fe533     1.0  0.84166  0.48165  0.60231  1.0000
  H   H3201     1.0  0.66381  0.02215  0.59532  1.0000
  C   C3209     1.0  0.85096  0.48318  0.63265  1.0000
  C   C3210     1.0  0.62482  0.21572  0.59164  1.0000
  N   N266      1.0  0.60407  0.00665  0.59535  1.0000
  H   H3202     1.0  0.67519  0.28048  0.62321  1.0000
  C   C3211     1.0  0.63672  0.38183  0.58966  1.0000
  Fe  Fe534     1.0  0.64505  0.25891  0.59295  1.0000
  H   H3203     1.0  0.68541  0.12791  0.77583  1.0000
  C   C3212     1.0  0.61518  0.39139  0.59544  1.0000
  C   C3213     1.0  0.83100  0.41784  0.62262  1.0000
  S   S1063     1.0  0.63672  0.11074  0.77723  1.0000
  C   C3214     1.0  0.62535  0.22754  0.58440  1.0000
  S   S1064     1.0  0.71292  0.36127  0.59473  1.0000
  H   H3204     1.0  0.84802  0.47658  0.64123  1.0000
  C   C3215     1.0  0.95620  0.35050  0.77556  1.0000
  H   H3205     1.0  0.83871  0.37266  0.59503  1.0000
  C   C3216     1.0  0.87075  0.48494  0.63516  1.0000
  N   N267      1.0  0.94105  0.33954  0.77595  1.0000
  H   H3206     1.0  0.86828  0.36594  0.78106  1.0000
  H   H3207     1.0  0.61869  0.22205  0.63095  1.0000
  S   S1065     1.0  0.63585  0.29451  0.58954  1.0000
  S   S1066     1.0  0.59579  0.38056  0.60040  1.0000
  H   H3208     1.0  0.64022  0.36305  0.58777  1.0000
  H   H3209     1.0  0.61801  0.36205  0.59305  1.0000
  H   H3210     1.0  0.59162  0.01073  0.58356  1.0000
  H   H3211     1.0  0.63891  0.13266  0.58992  1.0000
  H   H3212     1.0  0.66047  0.00006  0.58822  1.0000
  C   C3217     1.0  0.60129  0.01092  0.58308  1.0000
  S   S1067     1.0  0.61493  0.20749  0.58951  1.0000
  H   H3213     1.0  0.65393  0.04409  0.58968  1.0000
  H   H3214     1.0  0.96221  0.35247  0.78025  1.0000
  H   H3215     1.0  0.58192  0.12149  0.77354  1.0000
  H   H3216     1.0  0.73774  0.36198  0.59417  1.0000
  H   H3217     1.0  0.62870  0.14630  0.59381  1.0000
  C   C3218     1.0  0.79816  0.36248  0.59348  1.0000
  H   H3218     1.0  0.61426  0.07731  0.77810  1.0000
  Fe  Fe535     1.0  0.58310  0.35113  0.58293  1.0000
  H   H3219     1.0  0.87446  0.47555  0.63397  1.0000
  N   N268      1.0  0.62112  0.13618  0.58582  1.0000
  C   C3219     1.0  0.68577  0.30974  0.59021  1.0000
  C   C3220     1.0  0.62283  0.12475  0.58353  1.0000
  C   C3221     1.0  0.60696  0.08405  0.77425  1.0000
  H   H3220     1.0  0.88808  0.48750  0.63682  1.0000
  H   H3221     1.0  0.63177  0.11854  0.58312  1.0000
  C   C3222     1.0  0.68082  0.30538  0.58289  1.0000
  Fe  Fe536     1.0  0.95780  0.37539  0.82758  1.0000
  S   S1068     1.0  0.97287  0.38466  0.81537  1.0000
  S   S1069     1.0  0.94442  0.38267  0.84322  1.0000
  Fe  Fe537     1.0  0.96454  0.35465  0.81414  1.0000
  S   S1070     1.0  0.98047  0.36190  0.80110  1.0000
  S   S1071     1.0  0.95849  0.33918  0.81071  1.0000
  Fe  Fe538     1.0  0.98460  0.36562  0.81759  1.0000
  Fe  Fe539     1.0  0.96719  0.38005  0.80020  1.0000
  C   C3223     1.0  0.86719  0.26915  0.83766  1.0000
  S   S1072     1.0  0.96976  0.35654  0.83078  1.0000
  S   S1073     1.0  0.95110  0.37265  0.81231  1.0000
  Fe  Fe540     1.0  0.87388  0.43098  0.81605  1.0000
  S   S1074     1.0  0.85979  0.42802  0.83357  1.0000
  S   S1075     1.0  0.87201  0.43238  0.79692  1.0000
  Fe  Fe541     1.0  0.89294  0.43261  0.82879  1.0000
  S   S1076     1.0  0.88069  0.42988  0.84749  1.0000
  S   S1077     1.0  0.91254  0.43449  0.82394  1.0000
  Fe  Fe542     1.0  0.87565  0.41529  0.84130  1.0000
  S   S1078     1.0  0.87655  0.39617  0.85303  1.0000
  Fe  Fe543     1.0  0.86599  0.44288  0.83818  1.0000
  S   S1079     1.0  0.85222  0.45940  0.84406  1.0000
  S   S1080     1.0  0.88919  0.41708  0.82336  1.0000
  S   S1081     1.0  0.87882  0.44680  0.81989  1.0000
  Fe  Fe544     1.0  0.88627  0.31720  0.82583  1.0000
  S   S1082     1.0  0.86670  0.32104  0.83612  1.0000
  S   S1083     1.0  0.89033  0.30856  0.80961  1.0000
  Fe  Fe545     1.0  0.89597  0.32438  0.84422  1.0000
  S   S1084     1.0  0.87725  0.32839  0.85621  1.0000
  S   S1085     1.0  0.91098  0.32837  0.85052  1.0000
  Fe  Fe546     1.0  0.87455  0.31118  0.85272  1.0000
  S   S1086     1.0  0.86787  0.29593  0.86783  1.0000
  Fe  Fe547     1.0  0.87140  0.33788  0.83850  1.0000
  S   S1087     1.0  0.86032  0.35719  0.83446  1.0000
  S   S1088     1.0  0.89393  0.30629  0.84229  1.0000
  S   S1089     1.0  0.89029  0.33484  0.82663  1.0000
  H   H3222     1.0  0.69040  0.07437  0.80883  1.0000
  S   S1090     1.0  0.63640  0.14047  0.96737  1.0000
  Fe  Fe548     1.0  0.85628  0.15910  0.95134  1.0000
  S   S1091     1.0  0.85908  0.15056  0.93543  1.0000
  S   S1092     1.0  0.86552  0.17392  0.95105  1.0000
  Fe  Fe549     1.0  0.83922  0.14288  0.96832  1.0000
  S   S1093     1.0  0.83992  0.13307  0.95362  1.0000
  C   C3224     1.0  0.97403  0.37370  0.85212  1.0000
  Fe  Fe550     1.0  0.86015  0.13274  0.94918  1.0000
  S   S1094     1.0  0.87432  0.11556  0.94675  1.0000
  Fe  Fe551     1.0  0.83869  0.15168  0.94093  1.0000
  S   S1095     1.0  0.82965  0.16029  0.92475  1.0000
  S   S1096     1.0  0.85955  0.14118  0.96466  1.0000
  S   S1097     1.0  0.83583  0.16165  0.95600  1.0000
  Fe  Fe552     1.0  0.84100  0.24043  0.87258  1.0000
  S   S1098     1.0  0.84189  0.22537  0.86320  1.0000
  S   S1099     1.0  0.83643  0.26063  0.86354  1.0000
  Fe  Fe553     1.0  0.84894  0.22245  0.89495  1.0000
  S   S1100     1.0  0.85120  0.20591  0.88740  1.0000
  S   S1101     1.0  0.85324  0.22331  0.91241  1.0000
  Fe  Fe554     1.0  0.85956  0.21704  0.86957  1.0000
  S   S1102     1.0  0.87680  0.21077  0.85657  1.0000
  Fe  Fe555     1.0  0.83329  0.21548  0.88179  1.0000
  S   S1103     1.0  0.81960  0.20310  0.88761  1.0000
  S   S1104     1.0  0.85926  0.23250  0.87767  1.0000
  S   S1105     1.0  0.83043  0.23148  0.89063  1.0000
  Fe  Fe556     1.0  0.89354  0.14387  0.85820  1.0000
  S   S1106     1.0  0.88918  0.14236  0.87850  1.0000
  S   S1107     1.0  0.87707  0.15237  0.84950  1.0000
  Fe  Fe557     1.0  0.92115  0.13442  0.85717  1.0000
  S   S1108     1.0  0.91869  0.13170  0.87753  1.0000
  S   S1109     1.0  0.94082  0.12949  0.84688  1.0000
  Fe  Fe558     1.0  0.90229  0.12424  0.87885  1.0000
  S   S1110     1.0  0.89837  0.10747  0.89302  1.0000
  Fe  Fe559     1.0  0.90592  0.15000  0.87522  1.0000
  S   S1111     1.0  0.90596  0.16362  0.88583  1.0000
  S   S1112     1.0  0.90574  0.12508  0.85866  1.0000
  S   S1113     1.0  0.90923  0.15333  0.85475  1.0000
  Fe  Fe560     1.0  0.79876  0.13956  0.88572  1.0000
  S   S1114     1.0  0.80066  0.12429  0.87625  1.0000
  S   S1115     1.0  0.79703  0.13598  0.90627  1.0000
  Fe  Fe561     1.0  0.80300  0.15831  0.86156  1.0000
  S   S1116     1.0  0.80490  0.14460  0.85029  1.0000
  S   S1117     1.0  0.80781  0.17679  0.85195  1.0000
  Fe  Fe562     1.0  0.78866  0.13833  0.86421  1.0000
  S   S1118     1.0  0.77112  0.13720  0.85894  1.0000
  Fe  Fe563     1.0  0.81659  0.13194  0.86316  1.0000
  S   S1119     1.0  0.83621  0.12190  0.85735  1.0000
  S   S1120     1.0  0.78589  0.15328  0.87461  1.0000
  S   S1121     1.0  0.81540  0.14590  0.87363  1.0000
  H   H3223     1.0  0.78081  0.18931  0.89557  1.0000
  Fe  Fe564     1.0  0.72658  0.10070  0.84628  1.0000
  S   S1122     1.0  0.71597  0.11880  0.83774  1.0000
  S   S1123     1.0  0.74593  0.09810  0.84976  1.0000
  Fe  Fe565     1.0  0.70414  0.08820  0.85172  1.0000
  S   S1124     1.0  0.69188  0.10569  0.84428  1.0000
  S   S1125     1.0  0.69626  0.07103  0.86071  1.0000
  Fe  Fe566     1.0  0.70836  0.10793  0.82910  1.0000
  S   S1126     1.0  0.70661  0.11476  0.80940  1.0000
  Fe  Fe567     1.0  0.70064  0.11471  0.85359  1.0000
  S   S1127     1.0  0.69055  0.12838  0.86513  1.0000
  S   S1128     1.0  0.72048  0.08995  0.83600  1.0000
  S   S1129     1.0  0.71130  0.09708  0.86269  1.0000
  Fe  Fe568     1.0  0.63655  0.01812  0.85268  1.0000
  S   S1130     1.0  0.61920  0.02490  0.86552  1.0000
  Fe  Fe569     1.0  0.64632  0.04197  0.84894  1.0000
  S   S1131     1.0  0.62933  0.05030  0.86113  1.0000
  S   S1132     1.0  0.65898  0.05534  0.83882  1.0000
  Fe  Fe570     1.0  0.63130  0.03171  0.87341  1.0000
  S   S1133     1.0  0.62827  0.02998  0.89372  1.0000
  Fe  Fe571     1.0  0.61909  0.04276  0.85199  1.0000
  S   S1134     1.0  0.60233  0.05457  0.84560  1.0000
  S   S1135     1.0  0.64897  0.02341  0.86183  1.0000
  S   S1136     1.0  0.63580  0.03589  0.83858  1.0000
  Fe  Fe572     1.0  0.62112  0.11828  0.91531  1.0000
  S   S1137     1.0  0.62776  0.09851  0.92373  1.0000
  S   S1138     1.0  0.61226  0.13260  0.92715  1.0000
  Fe  Fe573     1.0  0.63151  0.11380  0.88871  1.0000
  S   S1139     1.0  0.63893  0.09382  0.89548  1.0000
  S   S1140     1.0  0.63836  0.12028  0.86824  1.0000
  Fe  Fe574     1.0  0.62104  0.09430  0.90903  1.0000
  S   S1141     1.0  0.61008  0.07970  0.91293  1.0000
  Fe  Fe575     1.0  0.64490  0.10006  0.90923  1.0000
  S   S1142     1.0  0.66420  0.09530  0.91190  1.0000
  S   S1143     1.0  0.61294  0.11406  0.90151  1.0000
  S   S1144     1.0  0.63870  0.12004  0.90168  1.0000
  Fe  Fe576     1.0  0.61990  0.11758  0.80937  1.0000
  S   S1145     1.0  0.63759  0.10368  0.80673  1.0000
  S   S1146     1.0  0.60983  0.12001  0.82853  1.0000
  Fe  Fe577     1.0  0.62918  0.09813  0.79425  1.0000
  H   H3224     1.0  0.93081  0.15307  0.87288  1.0000
  H   H3225     1.0  0.92789  0.40034  0.80953  1.0000
  S   S1147     1.0  0.61094  0.11079  0.79822  1.0000
  C   C3225     1.0  0.68471  0.12327  0.78537  1.0000
  C   C3226     1.0  0.63037  0.11931  0.85764  1.0000
  C   C3227     1.0  0.61756  0.12102  0.86038  1.0000
  C   C3228     1.0  0.61139  0.12111  0.85139  1.0000
  C   C3229     1.0  0.61796  0.11949  0.83963  1.0000
  C   C3230     1.0  0.63081  0.11746  0.83701  1.0000
  C   C3231     1.0  0.63697  0.11736  0.84600  1.0000
  H   H3226     1.0  0.61237  0.12259  0.86931  1.0000
  H   H3227     1.0  0.60145  0.12265  0.85349  1.0000
  H   H3228     1.0  0.63596  0.11611  0.82801  1.0000
  H   H3229     1.0  0.64690  0.11583  0.84388  1.0000
  C   C3232     1.0  0.60814  0.06154  0.83056  1.0000
  C   C3233     1.0  0.61468  0.05431  0.82200  1.0000
  C   C3234     1.0  0.62112  0.05965  0.81057  1.0000
  C   C3235     1.0  0.62126  0.07215  0.80787  1.0000
  C   C3236     1.0  0.61468  0.07936  0.81643  1.0000
  C   C3237     1.0  0.60789  0.07411  0.82765  1.0000
  H   H3230     1.0  0.61498  0.04453  0.82432  1.0000
  H   H3231     1.0  0.62628  0.05402  0.80402  1.0000
  H   H3232     1.0  0.61502  0.08890  0.81462  1.0000
  H   H3233     1.0  0.60289  0.07970  0.83427  1.0000
  C   C3238     1.0  0.62368  0.04399  0.89869  1.0000
  C   C3239     1.0  0.61430  0.04502  0.90912  1.0000
  C   C3240     1.0  0.61039  0.05598  0.91338  1.0000
  C   C3241     1.0  0.61611  0.06591  0.90756  1.0000
  C   C3242     1.0  0.62576  0.06485  0.89726  1.0000
  C   C3243     1.0  0.62940  0.05396  0.89270  1.0000
  H   H3234     1.0  0.60990  0.03737  0.91384  1.0000
  H   H3235     1.0  0.60291  0.05673  0.92130  1.0000
  H   H3236     1.0  0.63018  0.07248  0.89268  1.0000
  H   H3237     1.0  0.63677  0.05313  0.88473  1.0000
  C   C3244     1.0  0.68581  0.06685  0.85457  1.0000
  C   C3245     1.0  0.68194  0.07397  0.84390  1.0000
  C   C3246     1.0  0.67350  0.07047  0.83938  1.0000
  C   C3247     1.0  0.66886  0.05981  0.84542  1.0000
  C   C3248     1.0  0.67254  0.05283  0.85622  1.0000
  C   C3249     1.0  0.68102  0.05631  0.86073  1.0000
  H   H3238     1.0  0.68550  0.08213  0.83911  1.0000
  H   H3239     1.0  0.67055  0.07608  0.83117  1.0000
  H   H3240     1.0  0.66909  0.04459  0.86094  1.0000
  H   H3241     1.0  0.68396  0.05075  0.86898  1.0000
  C   C3250     1.0  0.69394  0.11562  0.80320  1.0000
  H   H3242     1.0  0.93316  0.17704  0.85869  1.0000
  C   C3251     1.0  0.84683  0.14326  0.82597  1.0000
  C   C3252     1.0  0.67392  0.11937  0.79206  1.0000
  H   H3243     1.0  0.86159  0.27743  0.83329  1.0000
  C   C3253     1.0  0.69462  0.12138  0.79087  1.0000
  C   C3254     1.0  0.86158  0.11138  0.88372  1.0000
  H   H3244     1.0  0.66038  0.14354  0.79812  1.0000
  H   H3245     1.0  0.58540  0.00735  0.82179  1.0000
  C   C3255     1.0  0.68342  0.11930  0.87827  1.0000
  C   C3256     1.0  0.67278  0.11591  0.87807  1.0000
  C   C3257     1.0  0.66713  0.10831  0.88836  1.0000
  C   C3258     1.0  0.67208  0.10402  0.89887  1.0000
  C   C3259     1.0  0.68292  0.10718  0.89900  1.0000
  C   C3260     1.0  0.68862  0.11486  0.88865  1.0000
  H   H3246     1.0  0.66888  0.11912  0.86997  1.0000
  H   H3247     1.0  0.65898  0.10568  0.88804  1.0000
  H   H3248     1.0  0.68682  0.10379  0.90709  1.0000
  H   H3249     1.0  0.69701  0.11731  0.88870  1.0000
  C   C3261     1.0  0.86498  0.33495  0.80329  1.0000
  C   C3262     1.0  0.76508  0.12624  0.85520  1.0000
  C   C3263     1.0  0.75387  0.13022  0.85124  1.0000
  C   C3264     1.0  0.74806  0.12182  0.84923  1.0000
  C   C3265     1.0  0.75338  0.10926  0.85115  1.0000
  C   C3266     1.0  0.76475  0.10531  0.85483  1.0000
  C   C3267     1.0  0.77057  0.11372  0.85682  1.0000
  H   H3250     1.0  0.74954  0.13987  0.84986  1.0000
  H   H3251     1.0  0.73940  0.12506  0.84630  1.0000
  H   H3252     1.0  0.76902  0.09564  0.85626  1.0000
  H   H3253     1.0  0.77921  0.11048  0.85979  1.0000
  C   C3268     1.0  0.95060  0.14002  0.84307  1.0000
  C   C3269     1.0  0.96341  0.13567  0.84079  1.0000
  C   C3270     1.0  0.97142  0.14371  0.83855  1.0000
  C   C3271     1.0  0.96665  0.15620  0.83843  1.0000
  C   C3272     1.0  0.95386  0.16063  0.84021  1.0000
  C   C3273     1.0  0.94586  0.15257  0.84261  1.0000
  H   H3254     1.0  0.96715  0.12599  0.84101  1.0000
  H   H3255     1.0  0.98125  0.14020  0.83714  1.0000
  H   H3256     1.0  0.95014  0.17030  0.83995  1.0000
  H   H3257     1.0  0.93604  0.15605  0.84412  1.0000
  C   C3274     1.0  0.86585  0.14349  0.85293  1.0000
  C   C3275     1.0  0.85348  0.14946  0.85397  1.0000
  C   C3276     1.0  0.84442  0.14290  0.85530  1.0000
  C   C3277     1.0  0.84756  0.13025  0.85580  1.0000
  C   C3278     1.0  0.85997  0.12425  0.85478  1.0000
  C   C3279     1.0  0.86909  0.13081  0.85348  1.0000
  H   H3258     1.0  0.85089  0.15926  0.85344  1.0000
  H   H3259     1.0  0.83510  0.14784  0.85526  1.0000
  H   H3260     1.0  0.86256  0.11451  0.85490  1.0000
  H   H3261     1.0  0.87866  0.12615  0.85248  1.0000
  C   C3280     1.0  0.81739  0.19567  0.87717  1.0000
  C   C3281     1.0  0.81300  0.18478  0.88184  1.0000
  C   C3282     1.0  0.81007  0.17904  0.87411  1.0000
  C   C3283     1.0  0.81176  0.18396  0.86155  1.0000
  C   C3284     1.0  0.81656  0.19466  0.85672  1.0000
  C   C3285     1.0  0.81940  0.20051  0.86452  1.0000
  H   H3262     1.0  0.81182  0.18075  0.89149  1.0000
  H   H3263     1.0  0.80623  0.17093  0.87791  1.0000
  H   H3264     1.0  0.81785  0.19854  0.84698  1.0000
  H   H3265     1.0  0.82277  0.20893  0.86081  1.0000
  C   C3286     1.0  0.88646  0.19902  0.86472  1.0000
  C   C3287     1.0  0.88427  0.19692  0.87752  1.0000
  C   C3288     1.0  0.89099  0.18646  0.88409  1.0000
  C   C3289     1.0  0.89981  0.17811  0.87780  1.0000
  C   C3290     1.0  0.90268  0.18077  0.86500  1.0000
  C   C3291     1.0  0.89598  0.19120  0.85844  1.0000
  H   H3266     1.0  0.87726  0.20324  0.88238  1.0000
  H   H3267     1.0  0.88889  0.18456  0.89401  1.0000
  H   H3268     1.0  0.90994  0.17472  0.86010  1.0000
  H   H3269     1.0  0.89786  0.19295  0.84853  1.0000
  C   C3292     1.0  0.86207  0.18736  0.94000  1.0000
  C   C3293     1.0  0.86557  0.19792  0.94033  1.0000
  C   C3294     1.0  0.86279  0.20886  0.93180  1.0000
  C   C3295     1.0  0.85670  0.20926  0.92272  1.0000
  C   C3296     1.0  0.85331  0.19865  0.92223  1.0000
  C   C3297     1.0  0.85591  0.18769  0.93095  1.0000
  H   H3270     1.0  0.87032  0.19771  0.94728  1.0000
  H   H3271     1.0  0.86540  0.21703  0.93223  1.0000
  H   H3272     1.0  0.84846  0.19897  0.91534  1.0000
  H   H3273     1.0  0.85310  0.17957  0.93072  1.0000
  C   C3298     1.0  0.82228  0.15190  0.91942  1.0000
  C   C3299     1.0  0.82036  0.15614  0.90746  1.0000
  C   C3300     1.0  0.81287  0.15108  0.90333  1.0000
  C   C3301     1.0  0.80733  0.14162  0.91108  1.0000
  C   C3302     1.0  0.80957  0.13706  0.92297  1.0000
  C   C3303     1.0  0.81709  0.14216  0.92714  1.0000
  H   H3274     1.0  0.82433  0.16368  0.90148  1.0000
  H   H3275     1.0  0.81088  0.15496  0.89437  1.0000
  H   H3276     1.0  0.80527  0.12975  0.92906  1.0000
  H   H3277     1.0  0.81844  0.13890  0.93646  1.0000
  C   C3304     1.0  0.88008  0.11334  0.93171  1.0000
  C   C3305     1.0  0.87777  0.12281  0.92163  1.0000
  C   C3306     1.0  0.88341  0.12113  0.90969  1.0000
  C   C3307     1.0  0.89114  0.10989  0.90781  1.0000
  C   C3308     1.0  0.89317  0.10035  0.91789  1.0000
  C   C3309     1.0  0.88778  0.10213  0.92981  1.0000
  H   H3278     1.0  0.87182  0.13147  0.92302  1.0000
  H   H3279     1.0  0.88166  0.12849  0.90198  1.0000
  H   H3280     1.0  0.89908  0.09162  0.91649  1.0000
  H   H3281     1.0  0.88960  0.09478  0.93759  1.0000
  C   C3310     1.0  0.62931  0.13837  0.95643  1.0000
  C   C3311     1.0  0.61777  0.14528  0.95450  1.0000
  C   C3312     1.0  0.61268  0.14344  0.94550  1.0000
  C   C3313     1.0  0.61895  0.13454  0.93847  1.0000
  C   C3314     1.0  0.63042  0.12754  0.94049  1.0000
  C   C3315     1.0  0.63562  0.12956  0.94931  1.0000
  H   H3282     1.0  0.61289  0.15222  0.95977  1.0000
  H   H3283     1.0  0.60384  0.14896  0.94396  1.0000
  H   H3284     1.0  0.63531  0.12060  0.93522  1.0000
  H   H3285     1.0  0.64454  0.12414  0.95074  1.0000
  H   H3286     1.0  0.84767  0.10612  0.87832  1.0000
  H   H3287     1.0  0.68682  0.09278  0.79211  1.0000
  H   H3288     1.0  0.85264  0.17737  0.83309  1.0000
  C   C3316     1.0  0.88396  0.46940  0.83546  1.0000
  C   C3317     1.0  0.87462  0.41789  0.79351  1.0000
  C   C3318     1.0  0.86016  0.28616  0.86490  1.0000
  C   C3319     1.0  0.86277  0.27367  0.87034  1.0000
  C   C3320     1.0  0.85566  0.26582  0.86979  1.0000
  C   C3321     1.0  0.84593  0.27029  0.86369  1.0000
  C   C3322     1.0  0.84357  0.28275  0.85784  1.0000
  C   C3323     1.0  0.85070  0.29069  0.85840  1.0000
  H   H3289     1.0  0.87006  0.27013  0.87539  1.0000
  H   H3290     1.0  0.85751  0.25641  0.87451  1.0000
  H   H3291     1.0  0.83604  0.28634  0.85309  1.0000
  H   H3292     1.0  0.84855  0.30037  0.85427  1.0000
  C   C3324     1.0  0.85432  0.46770  0.85380  1.0000
  H   H3293     1.0  0.86661  0.36895  0.80793  1.0000
  C   C3325     1.0  0.82887  0.15916  0.83017  1.0000
  C   C3326     1.0  0.80760  0.18942  0.91867  1.0000
  C   C3327     1.0  0.86448  0.47018  0.86858  1.0000
  C   C3328     1.0  0.86296  0.46297  0.86125  1.0000
  H   H3294     1.0  0.82075  0.12471  0.89438  1.0000
  H   H3295     1.0  0.81677  0.18596  0.91316  1.0000
  H   H3296     1.0  0.87108  0.46643  0.87444  1.0000
  H   H3297     1.0  0.86839  0.45373  0.86144  1.0000
  C   C3329     1.0  0.87197  0.38554  0.84768  1.0000
  C   C3330     1.0  0.86578  0.38928  0.83800  1.0000
  C   C3331     1.0  0.86221  0.38055  0.83398  1.0000
  C   C3332     1.0  0.86506  0.36802  0.83943  1.0000
  C   C3333     1.0  0.87150  0.36429  0.84891  1.0000
  C   C3334     1.0  0.87478  0.37303  0.85312  1.0000
  H   H3298     1.0  0.86351  0.39893  0.83380  1.0000
  H   H3299     1.0  0.85722  0.38354  0.82667  1.0000
  H   H3300     1.0  0.87368  0.35469  0.85323  1.0000
  H   H3301     1.0  0.87953  0.37007  0.86063  1.0000
  C   C3335     1.0  0.94518  0.33620  0.82163  1.0000
  C   C3336     1.0  0.93754  0.32978  0.81942  1.0000
  C   C3337     1.0  0.92683  0.32754  0.82813  1.0000
  C   C3338     1.0  0.92403  0.33133  0.83924  1.0000
  C   C3339     1.0  0.93174  0.33763  0.84147  1.0000
  C   C3340     1.0  0.94216  0.34026  0.83260  1.0000
  H   H3302     1.0  0.93989  0.32650  0.81102  1.0000
  H   H3303     1.0  0.92092  0.32260  0.82642  1.0000
  H   H3304     1.0  0.92964  0.34050  0.85009  1.0000
  H   H3305     1.0  0.94801  0.34519  0.83439  1.0000
  C   C3341     1.0  0.93574  0.39722  0.83796  1.0000
  C   C3342     1.0  0.94029  0.40464  0.82682  1.0000
  C   C3343     1.0  0.93331  0.41629  0.82272  1.0000
  C   C3344     1.0  0.92157  0.42030  0.82951  1.0000
  C   C3345     1.0  0.91691  0.41276  0.84050  1.0000
  C   C3346     1.0  0.92413  0.40137  0.84487  1.0000
  H   H3306     1.0  0.94926  0.40153  0.82144  1.0000
  H   H3307     1.0  0.93693  0.42210  0.81421  1.0000
  H   H3308     1.0  0.90786  0.41584  0.84580  1.0000
  H   H3309     1.0  0.92066  0.39578  0.85359  1.0000
  C   C3347     1.0  0.82728  0.11605  0.89273  1.0000
  H   H3310     1.0  0.85597  0.12836  0.90520  1.0000
  C   C3348     1.0  0.86357  0.25795  0.84003  1.0000
  H   H3311     1.0  0.86636  0.16846  0.97688  1.0000
  H   H3312     1.0  0.60395  0.14156  0.98243  1.0000
  C   C3349     1.0  0.61617  0.99598  0.85078  1.0000
  C   C3350     1.0  0.95717  0.16279  0.86683  1.0000
  C   C3351     1.0  0.84723  0.47961  0.85376  1.0000
  H   H3313     1.0  0.89390  0.33383  0.80076  1.0000
  N   N269      1.0  0.83991  0.11689  0.89198  1.0000
  C   C3352     1.0  0.85420  0.12356  0.89920  1.0000
  H   H3314     1.0  0.59910  0.00233  0.82788  1.0000
  C   C3353     1.0  0.67297  0.13513  0.83626  1.0000
  N   N270      1.0  0.79834  0.18429  0.91634  1.0000
  H   H3315     1.0  0.92950  0.39034  0.79957  1.0000
  H   H3316     1.0  0.87334  0.11810  0.89076  1.0000
  C   C3354     1.0  0.64510  0.99138  0.88059  1.0000
  N   N271      1.0  0.85636  0.17458  0.89015  1.0000
  C   C3355     1.0  0.86821  0.17224  0.88363  1.0000
  C   C3356     1.0  0.84672  0.17733  0.88442  1.0000
  C   C3357     1.0  0.87066  0.17312  0.87097  1.0000
  C   C3358     1.0  0.84884  0.17817  0.87178  1.0000
  C   C3359     1.0  0.86091  0.17613  0.86503  1.0000
  C   C3360     1.0  0.85400  0.17356  0.90343  1.0000
  H   H3317     1.0  0.87585  0.16975  0.88819  1.0000
  H   H3318     1.0  0.83733  0.17903  0.88960  1.0000
  H   H3319     1.0  0.88006  0.17142  0.86576  1.0000
  H   H3320     1.0  0.84118  0.18041  0.86726  1.0000
  H   H3321     1.0  0.86275  0.17676  0.85522  1.0000
  H   H3322     1.0  0.85418  0.16383  0.90827  1.0000
  H   H3323     1.0  0.86095  0.17701  0.90587  1.0000
  H   H3324     1.0  0.84484  0.17914  0.90684  1.0000
  N   N272      1.0  0.60450  0.12491  0.97772  1.0000
  S   S1148     1.0  0.63003  0.07867  0.79398  1.0000
  N   N273      1.0  0.61439  0.08418  0.85877  1.0000
  C   C3361     1.0  0.61672  0.08987  0.86660  1.0000
  C   C3362     1.0  0.60603  0.07676  0.86293  1.0000
  C   C3363     1.0  0.61067  0.08812  0.87894  1.0000
  C   C3364     1.0  0.59998  0.07461  0.87526  1.0000
  C   C3365     1.0  0.60229  0.08039  0.88329  1.0000
  C   C3366     1.0  0.62047  0.08637  0.84576  1.0000
  H   H3325     1.0  0.62327  0.09582  0.86333  1.0000
  H   H3326     1.0  0.60407  0.07235  0.85672  1.0000
  H   H3327     1.0  0.61253  0.09260  0.88518  1.0000
  H   H3328     1.0  0.59357  0.06848  0.87855  1.0000
  H   H3329     1.0  0.59770  0.07880  0.89291  1.0000
  H   H3330     1.0  0.61402  0.09306  0.84028  1.0000
  H   H3331     1.0  0.62879  0.09017  0.84407  1.0000
  H   H3332     1.0  0.62341  0.07766  0.84239  1.0000
  H   H3333     1.0  0.90081  0.43634  0.79543  1.0000
  C   C3367     1.0  0.85754  0.48221  0.86833  1.0000
  H   H3334     1.0  0.64658  0.15025  0.80773  1.0000
  S   S1149     1.0  0.88255  0.38015  0.78447  1.0000
  C   C3368     1.0  0.63763  0.99988  0.88753  1.0000
  H   H3335     1.0  0.59967  0.11565  0.95434  1.0000
  H   H3336     1.0  0.96865  0.38098  0.85724  1.0000
  H   H3337     1.0  0.64167  0.00539  0.89099  1.0000
  H   H3338     1.0  0.64718  0.06701  0.81484  1.0000
  H   H3339     1.0  0.65405  0.08285  0.79068  1.0000
  H   H3340     1.0  0.85695  0.37650  0.79707  1.0000
  N   N274      1.0  0.94482  0.16324  0.86900  1.0000
  H   H3341     1.0  0.59794  0.99259  0.85395  1.0000
  S   S1150     1.0  0.62593  0.13229  0.79331  1.0000
  H   H3342     1.0  0.61901  0.00820  0.89497  1.0000
  H   H3343     1.0  0.84543  0.17132  0.97363  1.0000
  C   C3369     1.0  0.89751  0.32904  0.79331  1.0000
  H   H3344     1.0  0.85520  0.25761  0.83767  1.0000
  C   C3370     1.0  0.67023  0.08890  0.79023  1.0000
  Fe  Fe578     1.0  0.64323  0.11786  0.79015  1.0000
  H   H3345     1.0  0.86773  0.47405  0.82144  1.0000
  H   H3346     1.0  0.65195  0.06125  0.80089  1.0000
  H   H3347     1.0  0.58989  0.13026  0.96807  1.0000
  C   C3371     1.0  0.61559  0.10835  0.96243  1.0000
  H   H3348     1.0  0.96799  0.36712  0.85370  1.0000
  H   H3349     1.0  0.61299  0.00426  0.85440  1.0000
  C   C3372     1.0  0.90167  0.31055  0.78556  1.0000
  H   H3350     1.0  0.88656  0.23957  0.85373  1.0000
  H   H3351     1.0  0.84053  0.48333  0.84801  1.0000
  H   H3352     1.0  0.67843  0.13982  0.80528  1.0000
  N   N275      1.0  0.65331  0.13891  0.90841  1.0000
  C   C3373     1.0  0.66014  0.13856  0.89682  1.0000
  C   C3374     1.0  0.64133  0.14517  0.91015  1.0000
  C   C3375     1.0  0.65498  0.14445  0.88657  1.0000
  C   C3376     1.0  0.63584  0.15115  0.90012  1.0000
  C   C3377     1.0  0.64272  0.15073  0.88826  1.0000
  C   C3378     1.0  0.88441  0.25925  0.84676  1.0000
  C   C3379     1.0  0.65858  0.13167  0.91898  1.0000
  H   H3353     1.0  0.63582  0.14532  0.91931  1.0000
  H   H3354     1.0  0.66041  0.14384  0.87743  1.0000
  H   H3355     1.0  0.62621  0.15574  0.90162  1.0000
  H   H3356     1.0  0.63849  0.15504  0.88042  1.0000
  N   N276      1.0  0.87741  0.26971  0.84117  1.0000
  H   H3357     1.0  0.59179  0.11636  0.78407  1.0000
  C   C3380     1.0  0.78299  0.17316  0.91004  1.0000
  N   N277      1.0  0.66695  0.07754  0.88025  1.0000
  C   C3381     1.0  0.65861  0.07139  0.87957  1.0000
  C   C3382     1.0  0.66903  0.08794  0.87170  1.0000
  C   C3383     1.0  0.65188  0.07583  0.87030  1.0000
  C   C3384     1.0  0.66228  0.09277  0.86249  1.0000
  C   C3385     1.0  0.65369  0.08665  0.86178  1.0000
  C   C3386     1.0  0.67422  0.07251  0.88976  1.0000
  H   H3358     1.0  0.65726  0.06292  0.88611  1.0000
  H   H3359     1.0  0.67616  0.09238  0.87182  1.0000
  H   H3360     1.0  0.64551  0.07077  0.86961  1.0000
  H   H3361     1.0  0.66391  0.10108  0.85582  1.0000
  H   H3362     1.0  0.64867  0.09013  0.85445  1.0000
  H   H3363     1.0  0.89175  0.46871  0.82742  1.0000
  N   N278      1.0  0.90514  0.37380  0.84307  1.0000
  C   C3387     1.0  0.90177  0.38378  0.83424  1.0000
  C   C3388     1.0  0.90548  0.36223  0.84196  1.0000
  C   C3389     1.0  0.89797  0.38237  0.82428  1.0000
  C   C3390     1.0  0.90199  0.36046  0.83202  1.0000
  C   C3391     1.0  0.89802  0.37061  0.82323  1.0000
  C   C3392     1.0  0.90881  0.37548  0.85357  1.0000
  H   H3364     1.0  0.90151  0.39293  0.83519  1.0000
  H   H3365     1.0  0.90823  0.35429  0.84892  1.0000
  H   H3366     1.0  0.89467  0.39036  0.81765  1.0000
  H   H3367     1.0  0.90218  0.35125  0.83135  1.0000
  H   H3368     1.0  0.89485  0.36937  0.81571  1.0000
  H   H3369     1.0  0.90351  0.38431  0.85618  1.0000
  H   H3370     1.0  0.90684  0.36808  0.86175  1.0000
  H   H3371     1.0  0.91881  0.37544  0.85124  1.0000
  N   N279      1.0  0.89941  0.14027  0.92050  1.0000
  C   C3393     1.0  0.89540  0.15258  0.92025  1.0000
  C   C3394     1.0  0.89816  0.13190  0.93141  1.0000
  C   C3395     1.0  0.88989  0.15679  0.93111  1.0000
  C   C3396     1.0  0.89265  0.13579  0.94243  1.0000
  C   C3397     1.0  0.88854  0.14832  0.94226  1.0000
  C   C3398     1.0  0.90516  0.13616  0.90897  1.0000
  H   H3372     1.0  0.89640  0.15922  0.91161  1.0000
  H   H3373     1.0  0.90113  0.12212  0.93167  1.0000
  H   H3374     1.0  0.88657  0.16656  0.93090  1.0000
  H   H3375     1.0  0.89130  0.12908  0.95101  1.0000
  H   H3376     1.0  0.88415  0.15144  0.95073  1.0000
  H   H3377     1.0  0.89887  0.13991  0.90246  1.0000
  H   H3378     1.0  0.91385  0.13947  0.90472  1.0000
  H   H3379     1.0  0.90724  0.12598  0.91029  1.0000
  N   N280      1.0  0.86232  0.35689  0.79957  1.0000
  H   H3380     1.0  0.65922  0.05355  0.81357  1.0000
  C   C3399     1.0  0.96130  0.14070  0.87004  1.0000
  C   C3400     1.0  0.86979  0.33529  0.79083  1.0000
  C   C3401     1.0  0.94871  0.14124  0.87221  1.0000
  H   H3381     1.0  0.67778  0.13314  0.84369  1.0000
  H   H3382     1.0  0.63064  0.10370  0.97169  1.0000
  C   C3402     1.0  0.65523  0.06273  0.80846  1.0000
  H   H3383     1.0  0.68947  0.13534  0.82203  1.0000
  H   H3384     1.0  0.87695  0.38764  0.80731  1.0000
  C   C3403     1.0  0.85891  0.36816  0.80431  1.0000
  H   H3385     1.0  0.66483  0.11025  0.80967  1.0000
  H   H3386     1.0  0.65508  0.13500  0.84824  1.0000
  S   S1151     1.0  0.97620  0.16628  0.83739  1.0000
  C   C3404     1.0  0.62876  0.99188  0.84648  1.0000
  N   N281      1.0  0.74437  0.11771  0.88177  1.0000
  C   C3405     1.0  0.74175  0.10707  0.88111  1.0000
  C   C3406     1.0  0.73669  0.12878  0.87861  1.0000
  C   C3407     1.0  0.73134  0.10735  0.87698  1.0000
  C   C3408     1.0  0.72621  0.12939  0.87439  1.0000
  C   C3409     1.0  0.72357  0.11859  0.87354  1.0000
  C   C3410     1.0  0.75523  0.11717  0.88633  1.0000
  H   H3387     1.0  0.74794  0.09831  0.88336  1.0000
  H   H3388     1.0  0.73889  0.13723  0.87892  1.0000
  H   H3389     1.0  0.72962  0.09893  0.87595  1.0000
  H   H3390     1.0  0.72034  0.13818  0.87149  1.0000
  H   H3391     1.0  0.71569  0.11897  0.86993  1.0000
  H   H3392     1.0  0.76306  0.11001  0.88300  1.0000
  H   H3393     1.0  0.75844  0.12599  0.88290  1.0000
  H   H3394     1.0  0.75309  0.11510  0.89650  1.0000
  H   H3395     1.0  0.82823  0.14088  0.82947  1.0000
  H   H3396     1.0  0.80557  0.19962  0.91603  1.0000
  H   H3397     1.0  0.90142  0.30096  0.78706  1.0000
  H   H3398     1.0  0.85093  0.13386  0.82504  1.0000
  C   C3411     1.0  0.83407  0.14719  0.82852  1.0000
  H   H3399     1.0  0.66864  0.13120  0.91707  1.0000
  C   C3412     1.0  0.85424  0.15137  0.82520  1.0000
  N   N282      1.0  0.83677  0.26802  0.89597  1.0000
  C   C3413     1.0  0.84081  0.27861  0.89415  1.0000
  C   C3414     1.0  0.84308  0.25703  0.90149  1.0000
  C   C3415     1.0  0.85164  0.27832  0.89759  1.0000
  C   C3416     1.0  0.85395  0.25640  0.90501  1.0000
  C   C3417     1.0  0.85826  0.26712  0.90300  1.0000
  C   C3418     1.0  0.82536  0.26855  0.89239  1.0000
  H   H3400     1.0  0.83593  0.28731  0.88962  1.0000
  H   H3401     1.0  0.83985  0.24862  0.90305  1.0000
  H   H3402     1.0  0.85510  0.28667  0.89562  1.0000
  H   H3403     1.0  0.85903  0.24759  0.90917  1.0000
  H   H3404     1.0  0.86680  0.26674  0.90547  1.0000
  H   H3405     1.0  0.81734  0.27054  0.89991  1.0000
  H   H3406     1.0  0.82427  0.27572  0.88393  1.0000
  H   H3407     1.0  0.82545  0.25974  0.89016  1.0000
  C   C3419     1.0  0.87058  0.24726  0.84582  1.0000
  H   H3408     1.0  0.97598  0.37796  0.84219  1.0000
  H   H3409     1.0  0.65433  0.13576  0.92719  1.0000
  H   H3410     1.0  0.65500  0.99035  0.87873  1.0000
  C   C3420     1.0  0.66025  0.13621  0.83881  1.0000
  H   H3411     1.0  0.62005  0.10213  0.95623  1.0000
  H   H3412     1.0  0.65038  0.13392  0.80824  1.0000
  H   H3413     1.0  0.58639  0.99489  0.83512  1.0000
  C   C3421     1.0  0.61975  0.99456  0.88504  1.0000
  H   H3414     1.0  0.96775  0.13197  0.86983  1.0000
  H   H3415     1.0  0.88832  0.28246  0.82993  1.0000
  H   H3416     1.0  0.97538  0.15129  0.86508  1.0000
  H   H3417     1.0  0.66956  0.13349  0.89546  1.0000
  C   C3422     1.0  0.62152  0.10922  0.97110  1.0000
  C   C3423     1.0  0.86732  0.48181  0.82523  1.0000
  H   H3418     1.0  0.89257  0.25968  0.84944  1.0000
  C   C3424     1.0  0.68322  0.11142  0.81003  1.0000
  H   H3419     1.0  0.77741  0.16857  0.90730  1.0000
  H   H3420     1.0  0.82466  0.10840  0.90035  1.0000
  H   H3421     1.0  0.85849  0.17720  0.81696  1.0000
  H   H3422     1.0  0.86914  0.10684  0.87750  1.0000
  H   H3423     1.0  0.81896  0.16233  0.83225  1.0000
  H   H3424     1.0  0.80114  0.16810  0.93030  1.0000
  N   N283      1.0  0.84904  0.16300  0.82713  1.0000
  C   C3425     1.0  0.90547  0.42803  0.79206  1.0000
  H   H3425     1.0  0.94537  0.13292  0.87362  1.0000
  N   N284      1.0  0.66419  0.07070  0.80370  1.0000
  C   C3426     1.0  0.66210  0.08086  0.79459  1.0000
  C   C3427     1.0  0.67424  0.06832  0.80875  1.0000
  C   C3428     1.0  0.92948  0.39991  0.79974  1.0000
  C   C3429     1.0  0.68254  0.07620  0.80466  1.0000
  H   H3426     1.0  0.82408  0.48215  0.87549  1.0000
  H   H3427     1.0  0.60984  0.99593  0.88650  1.0000
  C   C3430     1.0  0.88109  0.24788  0.84920  1.0000
  H   H3428     1.0  0.67584  0.06036  0.81610  1.0000
  C   C3431     1.0  0.84944  0.11101  0.88426  1.0000
  H   H3429     1.0  0.68219  0.06530  0.88677  1.0000
  C   C3432     1.0  0.84215  0.12301  0.89950  1.0000
  C   C3433     1.0  0.86394  0.11775  0.89119  1.0000
  H   H3430     1.0  0.83460  0.12748  0.90579  1.0000
  H   H3431     1.0  0.82622  0.11453  0.88402  1.0000
  H   H3432     1.0  0.94025  0.18274  0.86752  1.0000
  H   H3433     1.0  0.67780  0.07976  0.89153  1.0000
  H   H3434     1.0  0.88758  0.46875  0.84364  1.0000
  N   N285      1.0  0.66074  0.13995  0.81725  1.0000
  H   H3435     1.0  0.85776  0.34553  0.81726  1.0000
  C   C3434     1.0  0.93612  0.17510  0.86752  1.0000
  H   H3436     1.0  0.66853  0.06860  0.89860  1.0000
  C   C3435     1.0  0.67952  0.13648  0.82412  1.0000
  C   C3436     1.0  0.84897  0.48688  0.86083  1.0000
  H   H3437     1.0  0.64437  0.13941  0.83116  1.0000
  C   C3437     1.0  0.79634  0.17299  0.92295  1.0000
  H   H3438     1.0  0.80813  0.18667  0.92850  1.0000
  C   C3438     1.0  0.60411  0.11591  0.96141  1.0000
  N   N286      1.0  0.98558  0.36753  0.85613  1.0000
  C   C3439     1.0  0.87965  0.39472  0.78777  1.0000
  H   H3439     1.0  0.93868  0.40193  0.79493  1.0000
  H   H3440     1.0  0.83700  0.47934  0.89033  1.0000
  C   C3440     1.0  0.79257  0.19028  0.90684  1.0000
  C   C3441     1.0  0.78859  0.16730  0.91996  1.0000
  H   H3441     1.0  0.79445  0.19907  0.90133  1.0000
  H   H3442     1.0  0.78738  0.15815  0.92495  1.0000
  H   H3443     1.0  0.86415  0.14814  0.82355  1.0000
  C   C3442     1.0  0.89715  0.31661  0.79532  1.0000
  N   N287      1.0  0.87488  0.48085  0.83289  1.0000
  C   C3443     1.0  0.86132  0.34589  0.80754  1.0000
  C   C3444     1.0  0.68051  0.08653  0.79532  1.0000
  C   C3445     1.0  0.67321  0.13898  0.81467  1.0000
  H   H3444     1.0  0.87328  0.28940  0.83753  1.0000
  C   C3446     1.0  0.87476  0.40733  0.80287  1.0000
  C   C3447     1.0  0.67315  0.11333  0.80444  1.0000
  C   C3448     1.0  0.99277  0.39695  0.79010  1.0000
  H   H3445     1.0  0.87281  0.40810  0.81233  1.0000
  C   C3449     1.0  0.78489  0.18478  0.90348  1.0000
  H   H3446     1.0  0.70284  0.12461  0.78553  1.0000
  C   C3450     1.0  0.99111  0.37361  0.86105  1.0000
  S   S1152     1.0  0.64000  0.99956  0.84725  1.0000
  C   C3451     1.0  0.88117  0.28148  0.83855  1.0000
  H   H3447     1.0  0.57839  0.98974  0.81685  1.0000
  H   H3448     1.0  0.87965  0.46134  0.83750  1.0000
  C   C3452     1.0  0.62488  0.00145  0.88978  1.0000
  C   C3453     1.0  0.99118  0.35598  0.85419  1.0000
  C   C3454     1.0  0.60764  0.98931  0.85052  1.0000
  N   N288      1.0  0.91998  0.40872  0.79380  1.0000
  H   H3449     1.0  0.86785  0.23852  0.84778  1.0000
  C   C3455     1.0  0.83653  0.16698  0.82948  1.0000
  H   H3450     1.0  0.86597  0.16624  0.82852  1.0000
  H   H3451     1.0  0.92786  0.17495  0.87513  1.0000
  C   C3456     1.0  0.94054  0.15266  0.87167  1.0000
  C   C3457     1.0  0.96558  0.15152  0.86744  1.0000
  H   H3452     1.0  0.91687  0.42137  0.80529  1.0000
  C   C3458     1.0  0.85692  0.17139  0.82634  1.0000
  H   H3453     1.0  0.83234  0.17616  0.83110  1.0000
  C   C3459     1.0  0.82949  0.48731  0.88955  1.0000
  H   H3454     1.0  0.85061  0.36810  0.81187  1.0000
  C   C3460     1.0  0.59867  0.12420  0.96916  1.0000
  H   H3455     1.0  0.96068  0.17117  0.86398  1.0000
  H   H3456     1.0  0.65706  0.12213  0.92113  1.0000
  H   H3457     1.0  0.88484  0.28222  0.84621  1.0000
  H   H3458     1.0  0.57763  0.11090  0.78789  1.0000
  H   H3459     1.0  0.68264  0.10692  0.81959  1.0000
  H   H3460     1.0  0.98712  0.35139  0.84973  1.0000
  C   C3461     1.0  0.87711  0.39576  0.80001  1.0000
  H   H3461     1.0  0.93765  0.32328  0.78921  1.0000
  C   C3462     1.0  0.91445  0.41944  0.79770  1.0000
  C   C3463     1.0  0.61585  0.11766  0.97865  1.0000
  C   C3464     1.0  0.65425  0.13866  0.82912  1.0000
  H   H3462     1.0  0.86445  0.32620  0.80964  1.0000
  C   C3465     1.0  0.65421  0.14205  0.80737  1.0000
  N   N289      1.0  0.59632  0.99018  0.81821  1.0000
  C   C3466     1.0  0.86717  0.35728  0.78734  1.0000
  S   S1153     1.0  0.66182  0.12290  0.78426  1.0000
  H   H3463     1.0  0.94920  0.33741  0.79109  1.0000
  H   H3464     1.0  0.98695  0.38295  0.86214  1.0000
  H   H3465     1.0  0.60325  0.09488  0.78769  1.0000
  H   H3466     1.0  0.61510  0.98821  0.81877  1.0000
  C   C3467     1.0  0.59157  0.99916  0.82611  1.0000
  H   H3467     1.0  0.87307  0.32680  0.78752  1.0000
  H   H3468     1.0  0.98430  0.40264  0.78757  1.0000
  H   H3469     1.0  0.92445  0.33580  0.78797  1.0000
  H   H3470     1.0  0.94680  0.37802  0.78617  1.0000
  C   C3468     1.0  0.87099  0.34650  0.78280  1.0000
  H   H3471     1.0  0.82530  0.16631  0.98183  1.0000
  C   C3469     1.0  0.91704  0.40642  0.78406  1.0000
  H   H3472     1.0  0.66849  0.09701  0.78306  1.0000
  H   H3473     1.0  0.99521  0.40965  0.79943  1.0000
  Fe  Fe579     1.0  0.72897  0.60313  0.09448  1.0000
  S   S1154     1.0  0.71261  0.61549  0.10378  1.0000
  S   S1155     1.0  0.74694  0.61001  0.08556  1.0000
  Fe  Fe580     1.0  0.71319  0.58403  0.09698  1.0000
  S   S1156     1.0  0.69621  0.59495  0.10683  1.0000
  S   S1157     1.0  0.71218  0.56668  0.09184  1.0000
  Fe  Fe581     1.0  0.70179  0.61108  0.09263  1.0000
  S   S1158     1.0  0.68809  0.62450  0.08225  1.0000
  Fe  Fe582     1.0  0.70879  0.59803  0.11686  1.0000
  S   S1159     1.0  0.70447  0.59565  0.13730  1.0000
  S   S1160     1.0  0.71825  0.60010  0.08220  1.0000
  S   S1161     1.0  0.72566  0.58571  0.10823  1.0000
  Fe  Fe583     1.0  0.65773  0.53004  0.10810  1.0000
  S   S1162     1.0  0.64573  0.54324  0.09581  1.0000
  S   S1163     1.0  0.66865  0.53862  0.11603  1.0000
  Fe  Fe584     1.0  0.64609  0.50820  0.10919  1.0000
  S   S1164     1.0  0.63344  0.52021  0.09723  1.0000
  H   H3474     1.0  0.61631  0.63113  0.17897  1.0000
  Fe  Fe585     1.0  0.64987  0.52777  0.08613  1.0000
  S   S1165     1.0  0.65251  0.52968  0.06593  1.0000
  Fe  Fe586     1.0  0.63073  0.53419  0.10831  1.0000
  S   S1166     1.0  0.61129  0.54362  0.11463  1.0000
  S   S1167     1.0  0.66305  0.51496  0.09741  1.0000
  S   S1168     1.0  0.64223  0.52178  0.12127  1.0000
  Fe  Fe587     1.0  0.61406  0.60771  0.16768  1.0000
  S   S1169     1.0  0.61930  0.58737  0.16891  1.0000
  Fe  Fe588     1.0  0.62631  0.61261  0.14033  1.0000
  S   S1170     1.0  0.63268  0.59267  0.13962  1.0000
  S   S1171     1.0  0.62979  0.62607  0.12242  1.0000
  Fe  Fe589     1.0  0.61388  0.59111  0.15091  1.0000
  S   S1172     1.0  0.59997  0.58267  0.14755  1.0000
  Fe  Fe590     1.0  0.63754  0.59097  0.15760  1.0000
  S   S1173     1.0  0.65441  0.57910  0.16387  1.0000
  S   S1174     1.0  0.60717  0.61124  0.15047  1.0000
  S   S1175     1.0  0.63280  0.61112  0.15749  1.0000
  Fe  Fe591     1.0  0.62267  0.59568  0.05147  1.0000
  S   S1176     1.0  0.60947  0.61381  0.05056  1.0000
  S   S1177     1.0  0.61753  0.57979  0.04788  1.0000
  Fe  Fe592     1.0  0.64288  0.60537  0.05573  1.0000
  S   S1178     1.0  0.63163  0.62463  0.05471  1.0000
  S   S1179     1.0  0.66129  0.59662  0.06070  1.0000
  Fe  Fe593     1.0  0.61629  0.61536  0.06642  1.0000
  S   S1180     1.0  0.60346  0.61922  0.08402  1.0000
  Fe  Fe594     1.0  0.62576  0.62143  0.03883  1.0000
  S   S1181     1.0  0.62521  0.63397  0.02008  1.0000
  S   S1182     1.0  0.62790  0.59639  0.06844  1.0000
  S   S1183     1.0  0.63860  0.60304  0.03881  1.0000
  S   S1184     1.0  0.98114  0.64288  0.12750  1.0000
  Fe  Fe595     1.0  0.86633  0.73587  0.07643  1.0000
  S   S1185     1.0  0.85571  0.72748  0.09462  1.0000
  S   S1186     1.0  0.87341  0.75351  0.07344  1.0000
  Fe  Fe596     1.0  0.86991  0.71240  0.06585  1.0000
  S   S1187     1.0  0.85975  0.70272  0.08356  1.0000
  S   S1188     1.0  0.87963  0.69934  0.05287  1.0000
  Fe  Fe597     1.0  0.84650  0.72071  0.08357  1.0000
  S   S1189     1.0  0.82615  0.72125  0.08829  1.0000
  Fe  Fe598     1.0  0.86997  0.71034  0.09260  1.0000
  S   S1190     1.0  0.88051  0.69903  0.10686  1.0000
  S   S1191     1.0  0.85598  0.73037  0.06522  1.0000
  S   S1192     1.0  0.88117  0.71888  0.07499  1.0000
  Fe  Fe599     1.0  0.88416  0.64600  0.00771  1.0000
  S   S1193     1.0  0.90352  0.63838  0.01060  1.0000
  Fe  Fe600     1.0  0.85820  0.64255  0.01494  1.0000
  S   S1194     1.0  0.84471  0.63097  0.02599  1.0000
  Fe  Fe601     1.0  0.86345  0.66799  0.00932  1.0000
  S   S1195     1.0  0.85630  0.68624  0.01534  1.0000
  S   S1196     1.0  0.87420  0.63565  0.00091  1.0000
  S   S1197     1.0  0.86869  0.65088  0.02311  1.0000
  Fe  Fe602     1.0  0.92283  0.63290  0.07389  1.0000
  S   S1198     1.0  0.91823  0.62298  0.09355  1.0000
  S   S1199     1.0  0.92543  0.62340  0.05850  1.0000
  Fe  Fe603     1.0  0.92493  0.65524  0.08102  1.0000
  S   S1200     1.0  0.91974  0.64766  0.10115  1.0000
  S   S1201     1.0  0.92948  0.67370  0.07572  1.0000
  Fe  Fe604     1.0  0.93301  0.63061  0.09670  1.0000
  S   S1202     1.0  0.94785  0.61972  0.10742  1.0000
  Fe  Fe605     1.0  0.90552  0.64101  0.09606  1.0000
  S   S1203     1.0  0.88591  0.64280  0.10699  1.0000
  S   S1204     1.0  0.93886  0.63865  0.07669  1.0000
  S   S1205     1.0  0.90942  0.65050  0.07625  1.0000
  Fe  Fe606     1.0  0.79988  0.63561  0.09778  1.0000
  S   S1206     1.0  0.79226  0.65583  0.09224  1.0000
  S   S1207     1.0  0.78616  0.62304  0.10750  1.0000
  Fe  Fe607     1.0  0.82676  0.63921  0.08815  1.0000
  S   S1208     1.0  0.82087  0.65948  0.08148  1.0000
  S   S1209     1.0  0.84740  0.63198  0.08301  1.0000
  Fe  Fe608     1.0  0.80732  0.65876  0.09933  1.0000
  S   S1210     1.0  0.80299  0.67385  0.10968  1.0000
  Fe  Fe609     1.0  0.80651  0.65469  0.07505  1.0000
  S   S1211     1.0  0.80249  0.66441  0.05670  1.0000
  S   S1212     1.0  0.81387  0.63861  0.10668  1.0000
  S   S1213     1.0  0.81348  0.63435  0.07991  1.0000
  Fe  Fe610     1.0  0.98262  0.85039  0.12084  1.0000
  S   S1214     1.0  0.97012  0.84450  0.11257  1.0000
  Fe  Fe611     1.0  0.96134  0.86736  0.13397  1.0000
  S   S1215     1.0  0.94719  0.86338  0.12658  1.0000
  S   S1216     1.0  0.95618  0.88068  0.14634  1.0000
  Fe  Fe612     1.0  0.95723  0.84381  0.13094  1.0000
  S   S1217     1.0  0.94502  0.83046  0.14130  1.0000
  Fe  Fe613     1.0  0.96115  0.86448  0.10891  1.0000
  S   S1218     1.0  0.95747  0.87359  0.09021  1.0000
  S   S1219     1.0  0.97053  0.84771  0.13972  1.0000
  S   S1220     1.0  0.97451  0.87049  0.11578  1.0000
  C   C3470     1.0  0.70987  0.55545  0.12369  1.0000
  H   H3475     1.0  0.90476  0.88758  0.08286  1.0000
  H   H3476     1.0  0.66949  0.54760  0.13818  1.0000
  Fe  Fe614     1.0  0.86990  0.93279  0.11001  1.0000
  S   S1221     1.0  0.88986  0.93019  0.11003  1.0000
  S   S1222     1.0  0.85735  0.95167  0.10729  1.0000
  Fe  Fe615     1.0  0.87081  0.90488  0.11732  1.0000
  S   S1223     1.0  0.89069  0.90043  0.11818  1.0000
  S   S1224     1.0  0.86126  0.88889  0.12458  1.0000
  Fe  Fe616     1.0  0.88580  0.91632  0.12737  1.0000
  S   S1225     1.0  0.89339  0.91523  0.14362  1.0000
  Fe  Fe617     1.0  0.89263  0.91465  0.10078  1.0000
  S   S1226     1.0  0.90794  0.91201  0.08447  1.0000
  S   S1227     1.0  0.86569  0.91973  0.12801  1.0000
  S   S1228     1.0  0.87294  0.91823  0.09917  1.0000
  Fe  Fe618     1.0  0.90211  0.80848  0.11577  1.0000
  S   S1229     1.0  0.89213  0.81066  0.10079  1.0000
  S   S1230     1.0  0.92278  0.80544  0.11236  1.0000
  Fe  Fe619     1.0  0.87883  0.81261  0.13501  1.0000
  S   S1231     1.0  0.86678  0.81528  0.12179  1.0000
  S   S1232     1.0  0.87040  0.81439  0.15463  1.0000
  Fe  Fe620     1.0  0.87994  0.79897  0.11496  1.0000
  S   S1233     1.0  0.87132  0.78383  0.11324  1.0000
  Fe  Fe621     1.0  0.87978  0.82659  0.10869  1.0000
  S   S1234     1.0  0.87438  0.84519  0.09679  1.0000
  S   S1235     1.0  0.89104  0.79546  0.12941  1.0000
  S   S1236     1.0  0.89067  0.82528  0.12240  1.0000
  H   H3477     1.0  0.91644  0.78989  0.13805  1.0000
  C   C3471     1.0  0.86567  0.87682  0.11667  1.0000
  C   C3472     1.0  0.86535  0.86480  0.12337  1.0000
  C   C3473     1.0  0.86822  0.85504  0.11732  1.0000
  C   C3474     1.0  0.87112  0.85729  0.10450  1.0000
  C   C3475     1.0  0.87142  0.86932  0.09778  1.0000
  C   C3476     1.0  0.86888  0.87905  0.10386  1.0000
  H   H3478     1.0  0.86272  0.86303  0.13327  1.0000
  H   H3479     1.0  0.86780  0.84584  0.12259  1.0000
  H   H3480     1.0  0.87351  0.87114  0.08787  1.0000
  H   H3481     1.0  0.86890  0.88834  0.09863  1.0000
  H   H3482     1.0  0.79119  0.69646  0.07777  1.0000
  C   C3477     1.0  0.84096  0.63573  0.98981  1.0000
  H   H3483     1.0  0.89999  0.63649  0.14182  1.0000
  C   C3478     1.0  0.87862  0.81935  0.16251  1.0000
  C   C3479     1.0  0.89084  0.82033  0.15756  1.0000
  C   C3480     1.0  0.61456  0.56360  0.08452  1.0000
  H   H3484     1.0  0.86556  0.84740  0.16028  1.0000
  H   H3485     1.0  0.84620  0.97694  0.14665  1.0000
  H   H3486     1.0  0.89511  0.81875  0.14846  1.0000
  H   H3487     1.0  0.62563  0.50318  0.13319  1.0000
  H   H3488     1.0  0.89497  0.60480  0.12315  1.0000
  C   C3481     1.0  0.86673  0.89937  0.16780  1.0000
  C   C3482     1.0  0.87281  0.90735  0.15818  1.0000
  C   C3483     1.0  0.88538  0.90664  0.15674  1.0000
  C   C3484     1.0  0.89172  0.89843  0.16540  1.0000
  H   H3489     1.0  0.91678  0.59334  0.12037  1.0000
  H   H3490     1.0  0.89553  0.88413  0.14476  1.0000
  H   H3491     1.0  0.86772  0.91395  0.15188  1.0000
  H   H3492     1.0  0.90141  0.89795  0.16447  1.0000
  H   H3493     1.0  0.57836  0.66510  0.98417  1.0000
  C   C3485     1.0  0.94615  0.87688  0.16051  1.0000
  C   C3486     1.0  0.93761  0.86963  0.16211  1.0000
  C   C3487     1.0  0.92973  0.86683  0.17363  1.0000
  H   H3494     1.0  0.60589  0.58744  0.11077  1.0000
  H   H3495     1.0  0.85049  0.63572  0.99015  1.0000
  H   H3496     1.0  0.92025  0.65417  0.02602  1.0000
  H   H3497     1.0  0.93710  0.86618  0.15450  1.0000
  C   C3488     1.0  0.91424  0.60219  0.12293  1.0000
  H   H3498     1.0  0.85330  0.79609  0.09272  1.0000
  N   N290      1.0  0.61108  0.58016  0.09472  1.0000
  C   C3489     1.0  0.93875  0.82495  0.13210  1.0000
  C   C3490     1.0  0.94622  0.81983  0.12225  1.0000
  C   C3491     1.0  0.94121  0.81408  0.11603  1.0000
  C   C3492     1.0  0.92870  0.81365  0.11947  1.0000
  C   C3493     1.0  0.92120  0.81920  0.12900  1.0000
  C   C3494     1.0  0.92622  0.82476  0.13534  1.0000
  H   H3499     1.0  0.95594  0.81986  0.11975  1.0000
  H   H3500     1.0  0.94710  0.80977  0.10868  1.0000
  H   H3501     1.0  0.91166  0.81870  0.13189  1.0000
  H   H3502     1.0  0.92042  0.82880  0.14286  1.0000
  C   C3495     1.0  0.94352  0.88408  0.08915  1.0000
  C   C3496     1.0  0.94210  0.89146  0.07769  1.0000
  C   C3497     1.0  0.93111  0.89995  0.07642  1.0000
  C   C3498     1.0  0.92143  0.90109  0.08659  1.0000
  C   C3499     1.0  0.92273  0.89358  0.09807  1.0000
  C   C3500     1.0  0.93381  0.88509  0.09936  1.0000
  H   H3503     1.0  0.94955  0.89066  0.06976  1.0000
  H   H3504     1.0  0.93012  0.90570  0.06752  1.0000
  H   H3505     1.0  0.91532  0.89439  0.10596  1.0000
  H   H3506     1.0  0.93479  0.87933  0.10820  1.0000
  H   H3507     1.0  0.71103  0.53894  0.11779  1.0000
  C   C3501     1.0  0.87172  0.96196  0.11561  1.0000
  C   C3502     1.0  0.86091  0.96372  0.11153  1.0000
  H   H3508     1.0  0.71883  0.55685  0.11823  1.0000
  H   H3509     1.0  0.87830  0.95337  0.11566  1.0000
  C   C3503     1.0  0.87516  0.64004  0.10021  1.0000
  C   C3504     1.0  0.87881  0.63684  0.08876  1.0000
  C   C3505     1.0  0.87015  0.63468  0.08350  1.0000
  C   C3506     1.0  0.85775  0.63570  0.08960  1.0000
  C   C3507     1.0  0.85403  0.63915  0.10095  1.0000
  C   C3508     1.0  0.86273  0.64124  0.10627  1.0000
  H   H3510     1.0  0.88833  0.63595  0.08397  1.0000
  H   H3511     1.0  0.87309  0.63227  0.07463  1.0000
  H   H3512     1.0  0.84451  0.63992  0.10575  1.0000
  H   H3513     1.0  0.85981  0.64371  0.11513  1.0000
  C   C3509     1.0  0.81336  0.65561  0.04704  1.0000
  C   C3510     1.0  0.81286  0.64339  0.04815  1.0000
  C   C3511     1.0  0.82245  0.63581  0.04156  1.0000
  C   C3512     1.0  0.83262  0.64041  0.03410  1.0000
  C   C3513     1.0  0.83312  0.65262  0.03307  1.0000
  C   C3514     1.0  0.82342  0.66026  0.03941  1.0000
  H   H3514     1.0  0.80517  0.63971  0.05427  1.0000
  H   H3515     1.0  0.82207  0.62634  0.04246  1.0000
  H   H3516     1.0  0.84106  0.65618  0.02760  1.0000
  H   H3517     1.0  0.82399  0.66962  0.03877  1.0000
  C   C3515     1.0  0.90862  0.63480  0.02445  1.0000
  C   C3516     1.0  0.92022  0.62719  0.02466  1.0000
  C   C3517     1.0  0.92508  0.62396  0.03517  1.0000
  C   C3518     1.0  0.91859  0.62853  0.04561  1.0000
  C   C3519     1.0  0.90693  0.63634  0.04552  1.0000
  C   C3520     1.0  0.90188  0.63941  0.03493  1.0000
  H   H3518     1.0  0.92550  0.62362  0.01664  1.0000
  H   H3519     1.0  0.93402  0.61786  0.03518  1.0000
  H   H3520     1.0  0.90177  0.63979  0.05363  1.0000
  H   H3521     1.0  0.89289  0.64533  0.03484  1.0000
  C   C3521     1.0  0.87202  0.69543  0.04352  1.0000
  C   C3522     1.0  0.87588  0.68369  0.04074  1.0000
  C   C3523     1.0  0.87101  0.68070  0.03228  1.0000
  C   C3524     1.0  0.86223  0.68944  0.02646  1.0000
  C   C3525     1.0  0.85816  0.70107  0.02946  1.0000
  C   C3526     1.0  0.86302  0.70406  0.03796  1.0000
  H   H3522     1.0  0.88278  0.67692  0.04504  1.0000
  H   H3523     1.0  0.87419  0.67170  0.03010  1.0000
  H   H3524     1.0  0.85143  0.70792  0.02493  1.0000
  H   H3525     1.0  0.86015  0.71320  0.03984  1.0000
  C   C3527     1.0  0.82072  0.70750  0.09469  1.0000
  C   C3528     1.0  0.82722  0.69624  0.09156  1.0000
  C   C3529     1.0  0.82184  0.68581  0.09595  1.0000
  C   C3530     1.0  0.81016  0.68656  0.10375  1.0000
  C   C3531     1.0  0.80386  0.69774  0.10699  1.0000
  C   C3532     1.0  0.80901  0.70818  0.10233  1.0000
  H   H3526     1.0  0.83614  0.69570  0.08542  1.0000
  H   H3527     1.0  0.82670  0.67719  0.09343  1.0000
  H   H3528     1.0  0.79485  0.69839  0.11302  1.0000
  H   H3529     1.0  0.80390  0.71683  0.10472  1.0000
  C   C3533     1.0  0.89433  0.69210  0.09835  1.0000
  C   C3534     1.0  0.90520  0.68870  0.10272  1.0000
  C   C3535     1.0  0.91627  0.68363  0.09545  1.0000
  C   C3536     1.0  0.91639  0.68197  0.08388  1.0000
  C   C3537     1.0  0.90549  0.68519  0.07965  1.0000
  C   C3538     1.0  0.89451  0.69032  0.08683  1.0000
  H   H3530     1.0  0.90506  0.69000  0.11167  1.0000
  H   H3531     1.0  0.92464  0.68074  0.09891  1.0000
  H   H3532     1.0  0.90546  0.68358  0.07088  1.0000
  H   H3533     1.0  0.88613  0.69271  0.08349  1.0000
  C   C3539     1.0  0.87264  0.76193  0.08459  1.0000
  C   C3540     1.0  0.86485  0.76020  0.09619  1.0000
  C   C3541     1.0  0.86451  0.76708  0.10472  1.0000
  C   C3542     1.0  0.87213  0.77560  0.10192  1.0000
  C   C3543     1.0  0.88000  0.77727  0.09036  1.0000
  C   C3544     1.0  0.88013  0.77058  0.08171  1.0000
  H   H3534     1.0  0.85898  0.75364  0.09855  1.0000
  H   H3535     1.0  0.85835  0.76570  0.11361  1.0000
  H   H3536     1.0  0.88594  0.78375  0.08804  1.0000
  H   H3537     1.0  0.88618  0.77204  0.07276  1.0000
  C   C3545     1.0  0.97154  0.63588  0.12297  1.0000
  C   C3546     1.0  0.97500  0.62366  0.12166  1.0000
  C   C3547     1.0  0.96753  0.61880  0.11712  1.0000
  C   C3548     1.0  0.95664  0.62612  0.11363  1.0000
  C   C3549     1.0  0.95310  0.63829  0.11509  1.0000
  C   C3550     1.0  0.96045  0.64308  0.11983  1.0000
  H   H3538     1.0  0.65360  0.60432  0.17869  1.0000
  H   H3539     1.0  0.97033  0.60934  0.11613  1.0000
  H   H3540     1.0  0.94472  0.64403  0.11253  1.0000
  H   H3541     1.0  0.95761  0.65251  0.12089  1.0000
  C   C3551     1.0  0.61428  0.63330  0.01228  1.0000
  C   C3552     1.0  0.61643  0.63703  0.99945  1.0000
  C   C3553     1.0  0.60754  0.63733  0.99307  1.0000
  C   C3554     1.0  0.59637  0.63400  0.99947  1.0000
  C   C3555     1.0  0.59425  0.63025  0.01228  1.0000
  C   C3556     1.0  0.60317  0.62985  0.01865  1.0000
  H   H3542     1.0  0.62496  0.63981  0.99445  1.0000
  H   H3543     1.0  0.83833  0.62727  0.99608  1.0000
  H   H3544     1.0  0.58560  0.62774  0.01732  1.0000
  H   H3545     1.0  0.60128  0.62722  0.02853  1.0000
  C   C3557     1.0  0.62222  0.62445  0.11179  1.0000
  C   C3558     1.0  0.62517  0.63031  0.09943  1.0000
  C   C3559     1.0  0.61970  0.62849  0.09076  1.0000
  C   C3560     1.0  0.61070  0.62142  0.09457  1.0000
  C   C3561     1.0  0.60735  0.61602  0.10701  1.0000
  C   C3562     1.0  0.61336  0.61721  0.11553  1.0000
  H   H3546     1.0  0.63181  0.63614  0.09652  1.0000
  H   H3547     1.0  0.62218  0.63286  0.08120  1.0000
  H   H3548     1.0  0.60029  0.61067  0.11001  1.0000
  H   H3549     1.0  0.61106  0.61260  0.12498  1.0000
  C   C3563     1.0  0.62786  0.56604  0.05218  1.0000
  C   C3564     1.0  0.62698  0.55518  0.04961  1.0000
  C   C3565     1.0  0.63486  0.54405  0.05350  1.0000
  C   C3566     1.0  0.64339  0.54373  0.06023  1.0000
  C   C3567     1.0  0.64426  0.55457  0.06281  1.0000
  C   C3568     1.0  0.63665  0.56575  0.05860  1.0000
  H   H3550     1.0  0.62021  0.55537  0.04463  1.0000
  H   H3551     1.0  0.63414  0.53567  0.05152  1.0000
  H   H3552     1.0  0.65094  0.55437  0.06790  1.0000
  H   H3553     1.0  0.63754  0.57409  0.06044  1.0000
  C   C3569     1.0  0.60887  0.55448  0.12361  1.0000
  C   C3570     1.0  0.61859  0.55738  0.12665  1.0000
  C   C3571     1.0  0.61611  0.56620  0.13388  1.0000
  C   C3572     1.0  0.60392  0.57195  0.13812  1.0000
  C   C3573     1.0  0.59433  0.56905  0.13495  1.0000
  C   C3574     1.0  0.59680  0.56043  0.12769  1.0000
  H   H3554     1.0  0.62797  0.55278  0.12354  1.0000
  H   H3555     1.0  0.62356  0.56836  0.13636  1.0000
  H   H3556     1.0  0.59675  0.51162  0.10221  1.0000
  H   H3557     1.0  0.58927  0.55825  0.12535  1.0000
  C   C3575     1.0  0.69879  0.56038  0.09672  1.0000
  C   C3576     1.0  0.69915  0.54940  0.09348  1.0000
  C   C3577     1.0  0.68935  0.54321  0.09845  1.0000
  C   C3578     1.0  0.67908  0.54793  0.10678  1.0000
  C   C3579     1.0  0.67843  0.55925  0.10953  1.0000
  C   C3580     1.0  0.68818  0.56550  0.10445  1.0000
  H   H3558     1.0  0.70731  0.54533  0.08754  1.0000
  H   H3559     1.0  0.69008  0.53439  0.09644  1.0000
  H   H3560     1.0  0.67062  0.56289  0.11608  1.0000
  H   H3561     1.0  0.68772  0.57393  0.10703  1.0000
  C   C3581     1.0  0.68060  0.61691  0.07611  1.0000
  C   C3582     1.0  0.68279  0.60410  0.07881  1.0000
  C   C3583     1.0  0.67649  0.59804  0.07434  1.0000
  C   C3584     1.0  0.66813  0.60473  0.06691  1.0000
  C   C3585     1.0  0.66591  0.61757  0.06414  1.0000
  C   C3586     1.0  0.67215  0.62366  0.06876  1.0000
  H   H3562     1.0  0.68937  0.59879  0.08432  1.0000
  H   H3563     1.0  0.67814  0.58812  0.07666  1.0000
  H   H3564     1.0  0.65952  0.62278  0.05833  1.0000
  H   H3565     1.0  0.67046  0.63359  0.06660  1.0000
  C   C3587     1.0  0.69013  0.59200  0.14476  1.0000
  C   C3588     1.0  0.68889  0.58453  0.15654  1.0000
  C   C3589     1.0  0.67780  0.58078  0.16241  1.0000
  C   C3590     1.0  0.66778  0.58477  0.15669  1.0000
  C   C3591     1.0  0.66881  0.59263  0.14509  1.0000
  C   C3592     1.0  0.68007  0.59611  0.13904  1.0000
  H   H3566     1.0  0.69664  0.58139  0.16099  1.0000
  H   H3567     1.0  0.67703  0.57472  0.17138  1.0000
  H   H3568     1.0  0.66101  0.59583  0.14074  1.0000
  H   H3569     1.0  0.68097  0.60210  0.13006  1.0000
  C   C3593     1.0  0.75845  0.61243  0.09181  1.0000
  C   C3594     1.0  0.76764  0.61849  0.08390  1.0000
  C   C3595     1.0  0.77633  0.62158  0.08849  1.0000
  C   C3596     1.0  0.77605  0.61852  0.10108  1.0000
  C   C3597     1.0  0.76713  0.61208  0.10896  1.0000
  C   C3598     1.0  0.75837  0.60907  0.10438  1.0000
  H   H3570     1.0  0.76789  0.62103  0.07416  1.0000
  H   H3571     1.0  0.78318  0.62643  0.08228  1.0000
  H   H3572     1.0  0.76689  0.60955  0.11870  1.0000
  H   H3573     1.0  0.75150  0.60426  0.11059  1.0000
  H   H3574     1.0  0.88351  0.93774  0.15458  1.0000
  H   H3575     1.0  0.69022  0.53632  0.12964  1.0000
  H   H3576     1.0  0.84930  0.94261  0.13714  1.0000
  C   C3599     1.0  0.85463  0.98433  0.11594  1.0000
  C   C3600     1.0  0.61878  0.60000  0.01699  1.0000
  N   N291      1.0  0.65742  0.61579  0.10216  1.0000
  C   C3601     1.0  0.66137  0.60712  0.11171  1.0000
  C   C3602     1.0  0.65206  0.61271  0.09453  1.0000
  C   C3603     1.0  0.66045  0.59490  0.11353  1.0000
  C   C3604     1.0  0.65090  0.60061  0.09611  1.0000
  C   C3605     1.0  0.65523  0.59164  0.10562  1.0000
  C   C3606     1.0  0.65857  0.62851  0.10040  1.0000
  H   H3577     1.0  0.66528  0.60968  0.11794  1.0000
  H   H3578     1.0  0.64878  0.61960  0.08704  1.0000
  H   H3579     1.0  0.66375  0.58803  0.12102  1.0000
  H   H3580     1.0  0.64690  0.59823  0.08982  1.0000
  H   H3581     1.0  0.65455  0.58218  0.10685  1.0000
  H   H3582     1.0  0.65890  0.63347  0.09071  1.0000
  H   H3583     1.0  0.65070  0.63346  0.10637  1.0000
  H   H3584     1.0  0.66726  0.62880  0.10263  1.0000
  N   N292      1.0  0.93223  0.90470  0.12485  1.0000
  C   C3607     1.0  0.92379  0.91304  0.11878  1.0000
  C   C3608     1.0  0.94368  0.90021  0.11853  1.0000
  C   C3609     1.0  0.92678  0.91713  0.10604  1.0000
  C   C3610     1.0  0.94696  0.90407  0.10579  1.0000
  C   C3611     1.0  0.93845  0.91262  0.09953  1.0000
  C   C3612     1.0  0.92908  0.90036  0.13819  1.0000
  H   H3585     1.0  0.95032  0.89352  0.12333  1.0000
  S   S1237     1.0  0.58470  0.63474  0.99192  1.0000
  H   H3586     1.0  0.95593  0.90019  0.10077  1.0000
  H   H3587     1.0  0.94073  0.91542  0.08961  1.0000
  C   C3613     1.0  0.98046  0.66396  0.09965  1.0000
  C   C3614     1.0  0.82589  0.64643  0.00500  1.0000
  C   C3615     1.0  0.70253  0.56388  0.13071  1.0000
  H   H3588     1.0  0.91961  0.90478  0.14230  1.0000
  H   H3589     1.0  0.84829  0.61713  0.05005  1.0000
  C   C3616     1.0  0.60972  0.49085  0.12998  1.0000
  H   H3590     1.0  0.70585  0.57173  0.13099  1.0000
  H   H3591     1.0  0.88949  0.61904  0.02900  1.0000
  H   H3592     1.0  0.90740  0.82270  0.16107  1.0000
  H   H3593     1.0  0.92974  0.89026  0.14050  1.0000
  C   C3617     1.0  0.87137  0.61482  0.06258  1.0000
  H   H3594     1.0  0.81325  0.67682  0.00317  1.0000
  C   C3618     1.0  0.62058  0.60758  0.99518  1.0000
  H   H3595     1.0  0.95194  0.83781  0.16069  1.0000
  H   H3596     1.0  0.98962  0.65970  0.10198  1.0000
  H   H3597     1.0  0.92329  0.86112  0.17489  1.0000
  C   C3619     1.0  0.65750  0.49646  0.07678  1.0000
  C   C3620     1.0  0.89080  0.61399  0.04801  1.0000
  H   H3598     1.0  0.90252  0.66352  0.01594  1.0000
  H   H3599     1.0  0.96568  0.84801  0.16588  1.0000
  H   H3600     1.0  0.66811  0.55973  0.14569  1.0000
  C   C3621     1.0  0.59064  0.66461  0.99553  1.0000
  H   H3601     1.0  0.57725  0.64030  0.15704  1.0000
  H   H3602     1.0  0.93557  0.90238  0.14257  1.0000
  H   H3603     1.0  0.98325  0.62697  0.08993  1.0000
  N   N293      1.0  0.89392  0.73809  0.09569  1.0000
  C   C3622     1.0  0.89383  0.74655  0.10203  1.0000
  C   C3623     1.0  0.88772  0.72880  0.10120  1.0000
  C   C3624     1.0  0.88698  0.74612  0.11405  1.0000
  C   C3625     1.0  0.88074  0.72811  0.11318  1.0000
  C   C3626     1.0  0.88031  0.73689  0.11960  1.0000
  C   C3627     1.0  0.90112  0.73866  0.08310  1.0000
  H   H3604     1.0  0.89876  0.75391  0.09769  1.0000
  H   H3605     1.0  0.88807  0.72189  0.09631  1.0000
  H   H3606     1.0  0.88654  0.75316  0.11887  1.0000
  H   H3607     1.0  0.87566  0.72082  0.11738  1.0000
  H   H3608     1.0  0.87477  0.73659  0.12882  1.0000
  H   H3609     1.0  0.91057  0.73309  0.08314  1.0000
  H   H3610     1.0  0.89673  0.73516  0.07765  1.0000
  H   H3611     1.0  0.90150  0.74830  0.07827  1.0000
  N   N294      1.0  0.74411  0.63842  0.10228  1.0000
  C   C3628     1.0  0.75187  0.64127  0.10769  1.0000
  C   C3629     1.0  0.74500  0.64204  0.08987  1.0000
  C   C3630     1.0  0.76101  0.64765  0.10060  1.0000
  C   C3631     1.0  0.75403  0.64845  0.08250  1.0000
  C   C3632     1.0  0.76212  0.65121  0.08792  1.0000
  C   C3633     1.0  0.73460  0.63168  0.10980  1.0000
  H   H3612     1.0  0.89383  0.88491  0.09698  1.0000
  H   H3613     1.0  0.73903  0.63951  0.08556  1.0000
  H   H3614     1.0  0.76751  0.64933  0.10489  1.0000
  H   H3615     1.0  0.75501  0.65089  0.07262  1.0000
  H   H3616     1.0  0.76944  0.65579  0.08227  1.0000
  H   H3617     1.0  0.73349  0.62510  0.10492  1.0000
  H   H3618     1.0  0.73716  0.62609  0.11854  1.0000
  H   H3619     1.0  0.72569  0.63817  0.11185  1.0000
  N   N295      1.0  0.87266  0.86259  0.16009  1.0000
  C   C3634     1.0  0.86887  0.87390  0.15311  1.0000
  C   C3635     1.0  0.88462  0.85868  0.16134  1.0000
  C   C3636     1.0  0.87706  0.88176  0.14749  1.0000
  C   C3637     1.0  0.89307  0.86632  0.15578  1.0000
  C   C3638     1.0  0.88920  0.87797  0.14889  1.0000
  C   C3639     1.0  0.86406  0.85434  0.16586  1.0000
  H   H3620     1.0  0.85946  0.87698  0.15186  1.0000
  H   H3621     1.0  0.88764  0.84968  0.16678  1.0000
  H   H3622     1.0  0.87389  0.89082  0.14222  1.0000
  H   H3623     1.0  0.62575  0.61163  0.98640  1.0000
  H   H3624     1.0  0.63417  0.60730  0.00505  1.0000
  H   H3625     1.0  0.66067  0.50420  0.07753  1.0000
  C   C3640     1.0  0.96598  0.66055  0.08950  1.0000
  H   H3626     1.0  0.91254  0.64153  0.13002  1.0000
  N   N296      1.0  0.86691  0.67123  0.09444  1.0000
  C   C3641     1.0  0.85575  0.67079  0.09281  1.0000
  C   C3642     1.0  0.87714  0.66995  0.08522  1.0000
  C   C3643     1.0  0.85462  0.66902  0.08170  1.0000
  C   C3644     1.0  0.87631  0.66840  0.07393  1.0000
  C   C3645     1.0  0.86497  0.66791  0.07219  1.0000
  C   C3646     1.0  0.86781  0.67304  0.10619  1.0000
  H   H3627     1.0  0.84767  0.67165  0.10019  1.0000
  H   H3628     1.0  0.88604  0.66997  0.08660  1.0000
  H   H3629     1.0  0.84583  0.66837  0.08052  1.0000
  H   H3630     1.0  0.88442  0.66753  0.06664  1.0000
  H   H3631     1.0  0.86421  0.66656  0.06353  1.0000
  H   H3632     1.0  0.86479  0.66551  0.11374  1.0000
  H   H3633     1.0  0.87739  0.67303  0.10638  1.0000
  H   H3634     1.0  0.86201  0.68203  0.10791  1.0000
  H   H3635     1.0  0.84411  0.97648  0.10829  1.0000
  C   C3647     1.0  0.82843  0.69379  0.05214  1.0000
  N   N297      1.0  0.85378  0.81295  0.09663  1.0000
  C   C3648     1.0  0.85718  0.80427  0.08965  1.0000
  C   C3649     1.0  0.85892  0.82310  0.09293  1.0000
  C   C3650     1.0  0.86588  0.80565  0.07861  1.0000
  C   C3651     1.0  0.86772  0.82472  0.08199  1.0000
  C   C3652     1.0  0.87122  0.81592  0.07480  1.0000
  C   C3653     1.0  0.84476  0.81110  0.10824  1.0000
  H   H3636     1.0  0.85637  0.82998  0.09848  1.0000
  H   H3637     1.0  0.86860  0.79867  0.07316  1.0000
  H   H3638     1.0  0.87187  0.83272  0.07919  1.0000
  H   H3639     1.0  0.87811  0.81703  0.06635  1.0000
  H   H3640     1.0  0.84875  0.80303  0.11481  1.0000
  H   H3641     1.0  0.84204  0.81920  0.11255  1.0000
  N   N298      1.0  0.86928  0.95174  0.14776  1.0000
  C   C3654     1.0  0.86450  0.94429  0.14373  1.0000
  C   C3655     1.0  0.86276  0.96329  0.14895  1.0000
  C   C3656     1.0  0.85285  0.94831  0.14086  1.0000
  C   C3657     1.0  0.85106  0.96757  0.14624  1.0000
  C   C3658     1.0  0.84613  0.96004  0.14210  1.0000
  C   C3659     1.0  0.88185  0.94759  0.14983  1.0000
  H   H3642     1.0  0.86988  0.93535  0.14235  1.0000
  C   C3660     1.0  0.91399  0.79545  0.17009  1.0000
  C   C3661     1.0  0.57742  0.62581  0.14840  1.0000
  C   C3662     1.0  0.90443  0.63731  0.13195  1.0000
  C   C3663     1.0  0.60277  0.60022  0.00712  1.0000
  H   H3643     1.0  0.88362  0.95293  0.15561  1.0000
  C   C3664     1.0  0.62543  0.60509  0.00565  1.0000
  H   H3644     1.0  0.92698  0.62287  0.12847  1.0000
  H   H3645     1.0  0.83805  0.70833  0.04915  1.0000
  H   H3646     1.0  0.83502  0.68931  0.04517  1.0000
  H   H3647     1.0  0.86678  0.62280  0.03382  1.0000
  N   N299      1.0  0.86523  0.61837  0.05319  1.0000
  H   H3648     1.0  0.88947  0.62505  0.12873  1.0000
  C   C3665     1.0  0.61583  0.50797  0.13371  1.0000
  N   N300      1.0  0.94056  0.83552  0.17864  1.0000
  C   C3666     1.0  0.67409  0.55092  0.14359  1.0000
  C   C3667     1.0  0.69372  0.54397  0.13015  1.0000
  C   C3668     1.0  0.81854  0.66840  0.00033  1.0000
  H   H3649     1.0  0.82622  0.63778  0.01166  1.0000
  N   N301      1.0  0.69434  0.58003  0.05564  1.0000
  C   C3669     1.0  0.70310  0.57669  0.06254  1.0000
  C   C3670     1.0  0.69230  0.59156  0.04838  1.0000
  C   C3671     1.0  0.71016  0.58495  0.06221  1.0000
  C   C3672     1.0  0.70803  0.59678  0.05499  1.0000
  C   C3673     1.0  0.68648  0.57150  0.05682  1.0000
  H   H3650     1.0  0.70452  0.56768  0.06856  1.0000
  H   H3651     1.0  0.89425  0.87790  0.08461  1.0000
  H   H3652     1.0  0.71704  0.58227  0.06777  1.0000
  H   H3653     1.0  0.69193  0.56195  0.05720  1.0000
  H   H3654     1.0  0.67920  0.57178  0.06532  1.0000
  H   H3655     1.0  0.68182  0.57402  0.04897  1.0000
  N   N302      1.0  0.90856  0.86961  0.09435  1.0000
  C   C3674     1.0  0.92093  0.86827  0.08959  1.0000
  C   C3675     1.0  0.90408  0.86070  0.10362  1.0000
  C   C3676     1.0  0.92922  0.85801  0.09440  1.0000
  C   C3677     1.0  0.91209  0.85022  0.10852  1.0000
  C   C3678     1.0  0.92474  0.84893  0.10393  1.0000
  C   C3679     1.0  0.89995  0.88051  0.08944  1.0000
  H   H3656     1.0  0.92451  0.87523  0.08213  1.0000
  H   H3657     1.0  0.89425  0.86165  0.10725  1.0000
  H   H3658     1.0  0.93906  0.85716  0.09080  1.0000
  H   H3659     1.0  0.90852  0.84313  0.11582  1.0000
  H   H3660     1.0  0.93106  0.84089  0.10770  1.0000
  H   H3661     1.0  0.68504  0.59439  0.04327  1.0000
  H   H3662     1.0  0.75137  0.63820  0.11748  1.0000
  S   S1238     1.0  0.85151  0.66002  0.00243  1.0000
  H   H3663     1.0  0.89791  0.64372  0.12637  1.0000
  H   H3664     1.0  0.61527  0.66041  0.00698  1.0000
  C   C3680     1.0  0.69905  0.60012  0.04801  1.0000
  H   H3665     1.0  0.71314  0.60340  0.05502  1.0000
  H   H3666     1.0  0.84826  0.63128  0.05393  1.0000
  H   H3667     1.0  0.88498  0.79354  0.17310  1.0000
  C   C3681     1.0  0.90522  0.79029  0.15629  1.0000
  H   H3668     1.0  0.59267  0.58750  0.07438  1.0000
  H   H3669     1.0  0.91466  0.91651  0.12373  1.0000
  C   C3682     1.0  0.91014  0.68156  0.04211  1.0000
  H   H3670     1.0  0.83632  0.80938  0.10671  1.0000
  C   C3683     1.0  0.98270  0.64423  0.09416  1.0000
  N   N303      1.0  0.90438  0.79243  0.16757  1.0000
  H   H3671     1.0  0.63178  0.49604  0.09582  1.0000
  C   C3684     1.0  0.85248  0.97504  0.11148  1.0000
  N   N304      1.0  0.68645  0.55248  0.13674  1.0000
  C   C3685     1.0  0.95816  0.84481  0.17284  1.0000
  C   C3686     1.0  0.89899  0.62010  0.12757  1.0000
  H   H3672     1.0  0.86368  0.82061  0.17826  1.0000
  C   C3687     1.0  0.57777  0.62282  0.16975  1.0000
  H   H3673     1.0  0.58441  0.66141  0.00395  1.0000
  C   C3688     1.0  0.90203  0.60860  0.12449  1.0000
  H   H3674     1.0  0.93277  0.60250  0.12320  1.0000
  H   H3675     1.0  0.89060  0.88399  0.18163  1.0000
  N   N305      1.0  0.60189  0.66620  0.99580  1.0000
  C   C3689     1.0  0.89778  0.82257  0.16469  1.0000
  H   H3676     1.0  0.90717  0.68932  0.04659  1.0000
  H   H3677     1.0  0.89756  0.78798  0.15428  1.0000
  C   C3690     1.0  0.59941  0.58206  0.07974  1.0000
  H   H3678     1.0  0.59741  0.59594  0.08969  1.0000
  H   H3679     1.0  0.60366  0.56662  0.07113  1.0000
  H   H3680     1.0  0.69706  0.60941  0.04265  1.0000
  C   C3691     1.0  0.57730  0.63064  0.15831  1.0000
  H   H3681     1.0  0.90078  0.61240  0.04597  1.0000
  C   C3692     1.0  0.83014  0.70446  0.05432  1.0000
  N   N306      1.0  0.90789  0.62520  0.12879  1.0000
  H   H3682     1.0  0.85709  0.89969  0.16864  1.0000
  C   C3693     1.0  0.60220  0.58681  0.08833  1.0000
  C   C3694     1.0  0.60559  0.57035  0.07790  1.0000
  C   C3695     1.0  0.70550  0.54537  0.12347  1.0000
  C   C3696     1.0  0.91826  0.67103  0.04663  1.0000
  C   C3697     1.0  0.60556  0.51047  0.11686  1.0000
  H   H3683     1.0  0.91998  0.92348  0.10117  1.0000
  H   H3684     1.0  0.93387  0.79549  0.14244  1.0000
  H   H3685     1.0  0.88851  0.94863  0.14088  1.0000
  C   C3698     1.0  0.65085  0.49790  0.06788  1.0000
  C   C3699     1.0  0.57890  0.60860  0.13918  1.0000
  H   H3686     1.0  0.61715  0.59424  0.09844  1.0000
  H   H3687     1.0  0.99065  0.64052  0.09833  1.0000
  H   H3688     1.0  0.89934  0.69023  0.02846  1.0000
  H   H3689     1.0  0.85434  0.85948  0.16678  1.0000
  C   C3700     1.0  0.89327  0.79105  0.17715  1.0000
  C   C3701     1.0  0.95033  0.83911  0.16997  1.0000
  N   N307      1.0  0.90909  0.67211  0.02638  1.0000
  H   H3690     1.0  0.79645  0.68400  0.06994  1.0000
  C   C3702     1.0  0.61724  0.56871  0.09290  1.0000
  C   C3703     1.0  0.61409  0.58555  0.10336  1.0000
  H   H3691     1.0  0.61951  0.55453  0.08308  1.0000
  H   H3692     1.0  0.62159  0.57935  0.10775  1.0000
  C   C3704     1.0  0.85175  0.62117  0.05582  1.0000
  H   H3693     1.0  0.62422  0.56341  0.09800  1.0000
  C   C3705     1.0  0.79929  0.68925  0.07509  1.0000
  H   H3694     1.0  0.80512  0.70930  0.07716  1.0000
  H   H3695     1.0  0.80174  0.68295  0.08357  1.0000
  H   H3696     1.0  0.92814  0.65282  0.04430  1.0000
  H   H3697     1.0  0.92175  0.67059  0.05460  1.0000
  C   C3706     1.0  0.82543  0.66875  0.98836  1.0000
  C   C3707     1.0  0.92189  0.66111  0.04082  1.0000
  H   H3698     1.0  0.64882  0.50679  0.06177  1.0000
  N   N308      1.0  0.80979  0.69463  0.06770  1.0000
  C   C3708     1.0  0.91731  0.66189  0.03055  1.0000
  H   H3699     1.0  0.57923  0.59601  0.16221  1.0000
  H   H3700     1.0  0.67468  0.54417  0.15239  1.0000
  C   C3709     1.0  0.93202  0.83023  0.17529  1.0000
  C   C3710     1.0  0.81149  0.70502  0.06997  1.0000
  C   C3711     1.0  0.90572  0.68200  0.03184  1.0000
  C   C3712     1.0  0.81817  0.68893  0.05902  1.0000
  C   C3713     1.0  0.91986  0.61890  0.12747  1.0000
  C   C3714     1.0  0.94673  0.88134  0.17037  1.0000
  H   H3701     1.0  0.98347  0.61797  0.12406  1.0000
  H   H3702     1.0  0.60039  0.65778  0.01486  1.0000
  H   H3703     1.0  0.81696  0.68056  0.05736  1.0000
  H   H3704     1.0  0.58491  0.57343  0.13821  1.0000
  H   H3705     1.0  0.96437  0.63489  0.08146  1.0000
  N   N309      1.0  0.97642  0.65610  0.09413  1.0000
  C   C3715     1.0  0.87389  0.97121  0.12002  1.0000
  H   H3706     1.0  0.60223  0.59355  0.02659  1.0000
  C   C3716     1.0  0.90428  0.67261  0.01571  1.0000
  H   H3707     1.0  0.84776  0.61744  0.06556  1.0000
  H   H3708     1.0  0.88213  0.96961  0.12345  1.0000
  C   C3717     1.0  0.96790  0.64096  0.08473  1.0000
  C   C3718     1.0  0.87161  0.61986  0.04127  1.0000
  C   C3719     1.0  0.82164  0.71011  0.06329  1.0000
  H   H3709     1.0  0.91099  0.67524  0.00712  1.0000
  H   H3710     1.0  0.60298  0.67328  0.01051  1.0000
  H   H3711     1.0  0.57300  0.61495  0.13298  1.0000
  C   C3720     1.0  0.60741  0.59750  0.01776  1.0000
  H   H3712     1.0  0.98108  0.67298  0.09330  1.0000
  C   C3721     1.0  0.96158  0.65308  0.08469  1.0000
  H   H3713     1.0  0.95326  0.88699  0.16917  1.0000
  H   H3714     1.0  0.89537  0.67933  0.01549  1.0000
  C   C3722     1.0  0.97855  0.63650  0.08945  1.0000
  C   C3723     1.0  0.92472  0.79664  0.16109  1.0000
  C   C3724     1.0  0.88447  0.61769  0.03849  1.0000
  H   H3715     1.0  0.88907  0.60995  0.06759  1.0000
  H   H3716     1.0  0.82302  0.71828  0.06523  1.0000
  N   N310      1.0  0.61021  0.50303  0.12666  1.0000
  H   H3717     1.0  0.61089  0.50664  0.14346  1.0000
  H   H3718     1.0  0.57753  0.63186  0.13942  1.0000
  H   H3719     1.0  0.92438  0.83763  0.17228  1.0000
  H   H3720     1.0  0.68516  0.56879  0.14264  1.0000
  H   H3721     1.0  0.93219  0.79943  0.16294  1.0000
  C   C3725     1.0  0.69080  0.56220  0.13725  1.0000
  C   C3726     1.0  0.88424  0.61259  0.06014  1.0000
  H   H3722     1.0  0.86632  0.61384  0.07204  1.0000
  H   H3723     1.0  0.86680  0.96950  0.15144  1.0000
  C   C3727     1.0  0.58715  0.66670  0.98436  1.0000
  C   C3728     1.0  0.87322  0.89065  0.17602  1.0000
  C   C3729     1.0  0.91585  0.79130  0.14711  1.0000
  N   N311      1.0  0.60932  0.60528  0.99604  1.0000
  C   C3730     1.0  0.86526  0.98231  0.12044  1.0000
  H   H3724     1.0  0.96085  0.66986  0.08971  1.0000
  C   C3731     1.0  0.92321  0.60731  0.12452  1.0000
  C   C3732     1.0  0.92566  0.79445  0.14957  1.0000
  Fe  Fe622     1.0  0.86807  0.65360  0.98848  1.0000
  H   H3725     1.0  0.81358  0.65678  0.01809  1.0000
  C   C3733     1.0  0.81871  0.65716  0.00870  1.0000
  C   C3734     1.0  0.60527  0.66439  0.00760  1.0000
  C   C3735     1.0  0.57835  0.60581  0.16110  1.0000
  S   S1239     1.0  0.87956  0.66359  0.99401  1.0000
  C   C3736     1.0  0.89247  0.82407  0.17672  1.0000
  H   H3726     1.0  0.83734  0.96346  0.13936  1.0000
  H   H3727     1.0  0.61554  0.51798  0.13019  1.0000
  H   H3728     1.0  0.95317  0.65659  0.08124  1.0000
  C   C3737     1.0  0.88563  0.89042  0.17505  1.0000
  H   H3729     1.0  0.58863  0.60716  0.13407  1.0000
  H   H3730     1.0  0.90249  0.86329  0.15697  1.0000
  C   C3738     1.0  0.87315  0.82137  0.17437  1.0000
  H   H3731     1.0  0.59384  0.59839  0.00781  1.0000
  H   H3732     1.0  0.60602  0.52012  0.11416  1.0000
  H   H3733     1.0  0.57611  0.59958  0.14192  1.0000
  C   C3739     1.0  0.57832  0.61033  0.17118  1.0000
  H   H3734     1.0  0.62239  0.59807  0.02519  1.0000
  N   N312      1.0  0.57786  0.61355  0.14990  1.0000
  H   H3735     1.0  0.93672  0.82532  0.16772  1.0000
  N   N313      1.0  0.83268  0.64687  0.99328  1.0000
  H   H3736     1.0  0.97387  0.66539  0.10837  1.0000
  H   H3737     1.0  0.61875  0.67123  0.98533  1.0000
  H   H3738     1.0  0.91324  0.79737  0.17897  1.0000
  H   H3739     1.0  0.60924  0.64041  0.98324  1.0000
  C   C3740     1.0  0.60026  0.50573  0.11008  1.0000
  C   C3741     1.0  0.60984  0.66998  0.98513  1.0000
  H   H3740     1.0  0.86537  0.84957  0.17527  1.0000
  C   C3742     1.0  0.88003  0.82385  0.18143  1.0000
  H   H3741     1.0  0.89421  0.78143  0.18244  1.0000
  C   C3743     1.0  0.83249  0.65783  0.98498  1.0000
  C   C3744     1.0  0.60452  0.60777  0.98490  1.0000
  H   H3742     1.0  0.59430  0.60941  0.98704  1.0000
  C   C3745     1.0  0.93914  0.87828  0.18189  1.0000
  H   H3743     1.0  0.57923  0.60412  0.17993  1.0000
  H   H3744     1.0  0.57814  0.62634  0.17742  1.0000
  C   C3746     1.0  0.59965  0.49333  0.11345  1.0000
  H   H3745     1.0  0.59580  0.48944  0.10814  1.0000
  H   H3746     1.0  0.64154  0.48895  0.06012  1.0000
  S   S1240     1.0  0.64408  0.48824  0.11658  1.0000
  C   C3747     1.0  0.58913  0.81887  0.35653  1.0000
  S   S1241     1.0  0.92215  0.86657  0.19855  1.0000
  S   S1242     1.0  0.64039  0.77373  0.35734  1.0000
  S   S1243     1.0  0.82711  0.98193  0.36431  1.0000
  C   C3748     1.0  0.55536  0.90228  0.34911  1.0000
  Fe  Fe623     1.0  0.67868  0.84968  0.37798  1.0000
  S   S1244     1.0  0.66444  0.84350  0.37272  1.0000
  S   S1245     1.0  0.62127  0.80213  0.33809  1.0000
  Fe  Fe624     1.0  0.67629  0.84641  0.35390  1.0000
  S   S1246     1.0  0.66713  0.86625  0.34830  1.0000
  S   S1247     1.0  0.67743  0.83314  0.34232  1.0000
  H   H3747     1.0  0.82043  0.84657  0.35926  1.0000
  C   C3749     1.0  0.50999  0.88041  0.34871  1.0000
  Fe  Fe625     1.0  0.65591  0.86345  0.36761  1.0000
  C   C3750     1.0  0.82715  0.85332  0.37643  1.0000
  Fe  Fe626     1.0  0.68156  0.87027  0.35586  1.0000
  S   S1248     1.0  0.69203  0.88595  0.34813  1.0000
  H   H3748     1.0  0.50704  0.85305  0.36540  1.0000
  S   S1249     1.0  0.69162  0.85061  0.35966  1.0000
  Fe  Fe627     1.0  0.54846  0.86851  0.36253  1.0000
  S   S1250     1.0  0.52953  0.87882  0.35892  1.0000
  Fe  Fe628     1.0  0.57651  0.86610  0.35743  1.0000
  S   S1251     1.0  0.59311  0.87428  0.34712  1.0000
  H   H3749     1.0  0.87558  0.90460  0.33967  1.0000
  C   C3751     1.0  0.62323  0.58730  0.27738  1.0000
  S   S1252     1.0  0.56392  0.86230  0.34765  1.0000
  S   S1253     1.0  0.56085  0.87432  0.37121  1.0000
  C   C3752     1.0  0.85798  0.93692  0.36901  1.0000
  S   S1254     1.0  0.51782  0.65971  0.33986  1.0000
  Fe  Fe629     1.0  0.52135  0.64573  0.31201  1.0000
  S   S1255     1.0  0.53762  0.64795  0.31745  1.0000
  S   S1256     1.0  0.52206  0.63842  0.29573  1.0000
  Fe  Fe630     1.0  0.52793  0.64111  0.33659  1.0000
  S   S1257     1.0  0.53848  0.62854  0.35034  1.0000
  Fe  Fe631     1.0  0.52631  0.66636  0.32019  1.0000
  S   S1258     1.0  0.53700  0.68136  0.31231  1.0000
  S   S1259     1.0  0.51265  0.63690  0.33101  1.0000
  S   S1260     1.0  0.51055  0.66476  0.31319  1.0000
  Fe  Fe632     1.0  0.58796  0.62699  0.25922  1.0000
  S   S1261     1.0  0.59759  0.62934  0.27249  1.0000
  S   S1262     1.0  0.57346  0.61576  0.26513  1.0000
  Fe  Fe633     1.0  0.60272  0.64171  0.23708  1.0000
  S   S1263     1.0  0.61324  0.64606  0.24864  1.0000
  S   S1264     1.0  0.60798  0.64707  0.21634  1.0000
  Fe  Fe634     1.0  0.61465  0.62621  0.25791  1.0000
  S   S1265     1.0  0.63311  0.61461  0.26018  1.0000
  Fe  Fe635     1.0  0.59531  0.64898  0.26228  1.0000
  S   S1266     1.0  0.58678  0.66332  0.27393  1.0000
  S   S1267     1.0  0.60528  0.62168  0.24564  1.0000
  S   S1268     1.0  0.58447  0.64678  0.24971  1.0000
  Fe  Fe636     1.0  0.60767  0.68547  0.32170  1.0000
  S   S1269     1.0  0.62029  0.68582  0.33335  1.0000
  S   S1270     1.0  0.61669  0.67908  0.30390  1.0000
  Fe  Fe637     1.0  0.58505  0.69059  0.34152  1.0000
  S   S1271     1.0  0.59576  0.69106  0.35494  1.0000
  S   S1272     1.0  0.56484  0.69082  0.34799  1.0000
  Fe  Fe638     1.0  0.60662  0.70247  0.33891  1.0000
  S   S1273     1.0  0.61279  0.72025  0.33794  1.0000
  Fe  Fe639     1.0  0.60847  0.67456  0.34834  1.0000
  S   S1274     1.0  0.61637  0.65751  0.36100  1.0000
  S   S1275     1.0  0.59489  0.70307  0.32573  1.0000
  S   S1276     1.0  0.59685  0.67321  0.33641  1.0000
  Fe  Fe640     1.0  0.60080  0.59320  0.32971  1.0000
  S   S1277     1.0  0.59959  0.58271  0.34920  1.0000
  S   S1278     1.0  0.58524  0.59904  0.31986  1.0000
  Fe  Fe641     1.0  0.62698  0.59502  0.32641  1.0000
  S   S1279     1.0  0.62819  0.58480  0.34552  1.0000
  S   S1280     1.0  0.64281  0.60237  0.31352  1.0000
  Fe  Fe642     1.0  0.61839  0.57202  0.34208  1.0000
  S   S1281     1.0  0.62519  0.55147  0.34808  1.0000
  Fe  Fe643     1.0  0.60948  0.59644  0.35067  1.0000
  S   S1282     1.0  0.60458  0.60556  0.36674  1.0000
  S   S1283     1.0  0.61873  0.58144  0.32240  1.0000
  S   S1284     1.0  0.60911  0.60774  0.33177  1.0000
  N   N314      1.0  0.83036  0.91462  0.34724  1.0000
  Fe  Fe644     1.0  0.89505  0.83957  0.19686  1.0000
  S   S1285     1.0  0.90351  0.84034  0.21197  1.0000
  H   H3750     1.0  0.59493  0.52684  0.35038  1.0000
  Fe  Fe645     1.0  0.87985  0.86536  0.19600  1.0000
  S   S1286     1.0  0.88703  0.86863  0.21067  1.0000
  Fe  Fe646     1.0  0.90530  0.85926  0.20106  1.0000
  Fe  Fe647     1.0  0.88446  0.84964  0.22030  1.0000
  S   S1287     1.0  0.87445  0.84630  0.24019  1.0000
  S   S1288     1.0  0.87580  0.84700  0.20615  1.0000
  Fe  Fe648     1.0  0.76727  0.91431  0.33499  1.0000
  S   S1289     1.0  0.75017  0.91995  0.34865  1.0000
  S   S1290     1.0  0.76881  0.92113  0.31484  1.0000
  Fe  Fe649     1.0  0.78107  0.89847  0.35419  1.0000
  S   S1291     1.0  0.76513  0.90243  0.36966  1.0000
  Fe  Fe650     1.0  0.75338  0.89994  0.35801  1.0000
  S   S1292     1.0  0.73978  0.88703  0.36551  1.0000
  Fe  Fe651     1.0  0.76349  0.92195  0.35883  1.0000
  S   S1293     1.0  0.76036  0.93889  0.36644  1.0000
  S   S1294     1.0  0.76976  0.89429  0.34348  1.0000
  S   S1295     1.0  0.78014  0.91804  0.34424  1.0000
  Fe  Fe652     1.0  0.84170  0.96742  0.35623  1.0000
  H   H3751     1.0  0.63459  0.63133  0.20699  1.0000
  Fe  Fe653     1.0  0.82875  0.96955  0.33594  1.0000
  S   S1296     1.0  0.82653  0.96168  0.32111  1.0000
  C   C3753     1.0  0.50943  0.84870  0.35762  1.0000
  S   S1297     1.0  0.66927  0.86949  0.37456  1.0000
  H   H3752     1.0  0.84334  0.89899  0.35420  1.0000
  S   S1298     1.0  0.82843  0.95718  0.35456  1.0000
  H   H3753     1.0  0.50081  0.64210  0.37697  1.0000
  Fe  Fe654     1.0  0.86416  0.88185  0.29150  1.0000
  S   S1299     1.0  0.85514  0.90171  0.29078  1.0000
  S   S1300     1.0  0.87984  0.87641  0.27608  1.0000
  Fe  Fe655     1.0  0.84779  0.87370  0.31625  1.0000
  S   S1301     1.0  0.83689  0.89269  0.31730  1.0000
  S   S1302     1.0  0.84529  0.85705  0.33122  1.0000
  Fe  Fe656     1.0  0.83758  0.89480  0.29729  1.0000
  S   S1303     1.0  0.82314  0.90411  0.28623  1.0000
  Fe  Fe657     1.0  0.85532  0.89784  0.31076  1.0000
  S   S1304     1.0  0.86059  0.90897  0.32098  1.0000
  S   S1305     1.0  0.84660  0.87514  0.29686  1.0000
  S   S1306     1.0  0.86624  0.87863  0.31091  1.0000
  H   H3754     1.0  0.63311  0.58588  0.27390  1.0000
  S   S1307     1.0  0.62022  0.51314  0.32052  1.0000
  C   C3754     1.0  0.85816  0.85642  0.36547  1.0000
  C   C3755     1.0  0.86019  0.84569  0.36116  1.0000
  C   C3756     1.0  0.85610  0.84599  0.35073  1.0000
  C   C3757     1.0  0.85031  0.85710  0.34425  1.0000
  C   C3758     1.0  0.84841  0.86794  0.34840  1.0000
  C   C3759     1.0  0.85213  0.86756  0.35915  1.0000
  H   H3755     1.0  0.86485  0.83707  0.36599  1.0000
  H   H3756     1.0  0.85758  0.83760  0.34758  1.0000
  H   H3757     1.0  0.84386  0.87654  0.34345  1.0000
  H   H3758     1.0  0.85051  0.87587  0.36244  1.0000
  C   C3760     1.0  0.83647  0.94735  0.32042  1.0000
  C   C3761     1.0  0.83448  0.93966  0.31394  1.0000
  C   C3762     1.0  0.84193  0.92787  0.31398  1.0000
  C   C3763     1.0  0.85151  0.92386  0.32032  1.0000
  C   C3764     1.0  0.85362  0.93163  0.32660  1.0000
  C   C3765     1.0  0.84605  0.94332  0.32675  1.0000
  H   H3759     1.0  0.82710  0.94275  0.30902  1.0000
  H   H3760     1.0  0.84028  0.92190  0.30909  1.0000
  H   H3761     1.0  0.86109  0.92861  0.33143  1.0000
  H   H3762     1.0  0.84770  0.94926  0.33166  1.0000
  Fe  Fe658     1.0  0.81389  0.97275  0.36057  1.0000
  C   C3766     1.0  0.61695  0.50207  0.35876  1.0000
  C   C3767     1.0  0.61395  0.72950  0.36958  1.0000
  H   H3763     1.0  0.52957  0.86371  0.32285  1.0000
  H   H3764     1.0  0.58004  0.62064  0.36323  1.0000
  S   S1308     1.0  0.79649  0.96833  0.37371  1.0000
  C   C3768     1.0  0.77135  0.94597  0.36850  1.0000
  H   H3765     1.0  0.64150  0.50098  0.36178  1.0000
  C   C3769     1.0  0.95591  0.84686  0.18465  1.0000
  C   C3770     1.0  0.78727  0.95952  0.37123  1.0000
  C   C3771     1.0  0.79201  0.94992  0.36482  1.0000
  C   C3772     1.0  0.78405  0.94306  0.36354  1.0000
  C   C3773     1.0  0.52444  0.83819  0.34331  1.0000
  H   H3766     1.0  0.61842  0.64477  0.19133  1.0000
  H   H3767     1.0  0.80176  0.94770  0.36104  1.0000
  H   H3768     1.0  0.78768  0.93566  0.35865  1.0000
  C   C3774     1.0  0.78398  0.91631  0.30712  1.0000
  C   C3775     1.0  0.79294  0.90887  0.31358  1.0000
  C   C3776     1.0  0.80505  0.90513  0.30727  1.0000
  C   C3777     1.0  0.80818  0.90878  0.29449  1.0000
  C   C3778     1.0  0.79921  0.91618  0.28806  1.0000
  C   C3779     1.0  0.78715  0.91997  0.29436  1.0000
  H   H3769     1.0  0.79053  0.90580  0.32341  1.0000
  H   H3770     1.0  0.81188  0.89925  0.31226  1.0000
  H   H3771     1.0  0.80159  0.91900  0.27818  1.0000
  H   H3772     1.0  0.78026  0.92569  0.28933  1.0000
  C   C3780     1.0  0.87547  0.85571  0.24942  1.0000
  C   C3781     1.0  0.86634  0.85709  0.26003  1.0000
  C   C3782     1.0  0.86729  0.86391  0.26799  1.0000
  C   C3783     1.0  0.87753  0.86915  0.26553  1.0000
  C   C3784     1.0  0.88652  0.86800  0.25476  1.0000
  C   C3785     1.0  0.88544  0.86141  0.24666  1.0000
  H   H3773     1.0  0.85857  0.85276  0.26216  1.0000
  H   H3774     1.0  0.86031  0.86474  0.27621  1.0000
  H   H3775     1.0  0.89447  0.87206  0.25278  1.0000
  H   H3776     1.0  0.89253  0.86038  0.23849  1.0000
  C   C3786     1.0  0.62513  0.54164  0.33878  1.0000
  C   C3787     1.0  0.61673  0.54485  0.33113  1.0000
  C   C3788     1.0  0.61563  0.53614  0.32523  1.0000
  C   C3789     1.0  0.62287  0.52419  0.32696  1.0000
  C   C3790     1.0  0.63160  0.52114  0.33423  1.0000
  C   C3791     1.0  0.63274  0.52986  0.34008  1.0000
  H   H3777     1.0  0.61080  0.55388  0.33011  1.0000
  H   H3778     1.0  0.60890  0.53857  0.31957  1.0000
  H   H3779     1.0  0.63733  0.51203  0.33548  1.0000
  H   H3780     1.0  0.63933  0.52737  0.34589  1.0000
  C   C3792     1.0  0.61325  0.64315  0.36184  1.0000
  C   C3793     1.0  0.60896  0.64077  0.35264  1.0000
  C   C3794     1.0  0.60679  0.62904  0.35373  1.0000
  C   C3795     1.0  0.60865  0.61979  0.36415  1.0000
  S   S1309     1.0  0.90195  0.82454  0.18612  1.0000
  C   C3796     1.0  0.58280  0.63994  0.37597  1.0000
  H   H3781     1.0  0.60747  0.64787  0.34465  1.0000
  H   H3782     1.0  0.60334  0.62727  0.34671  1.0000
  C   C3797     1.0  0.79986  0.90363  0.36917  1.0000
  C   C3798     1.0  0.86476  0.94573  0.36786  1.0000
  C   C3799     1.0  0.63998  0.60638  0.29873  1.0000
  C   C3800     1.0  0.62793  0.60888  0.29703  1.0000
  C   C3801     1.0  0.62572  0.61188  0.28515  1.0000
  C   C3802     1.0  0.63558  0.61202  0.27501  1.0000
  C   C3803     1.0  0.64761  0.60946  0.27674  1.0000
  C   C3804     1.0  0.64979  0.60684  0.28859  1.0000
  H   H3783     1.0  0.62033  0.60843  0.30485  1.0000
  H   H3784     1.0  0.61646  0.61354  0.28390  1.0000
  H   H3785     1.0  0.65525  0.60952  0.26891  1.0000
  H   H3786     1.0  0.65911  0.60485  0.28990  1.0000
  C   C3805     1.0  0.59523  0.66747  0.28228  1.0000
  C   C3806     1.0  0.60796  0.66329  0.28085  1.0000
  C   C3807     1.0  0.61442  0.66698  0.28748  1.0000
  C   C3808     1.0  0.60819  0.67461  0.29581  1.0000
  C   C3809     1.0  0.59544  0.67867  0.29737  1.0000
  C   C3810     1.0  0.58900  0.67517  0.29056  1.0000
  H   H3787     1.0  0.61287  0.65743  0.27443  1.0000
  H   H3788     1.0  0.62432  0.66395  0.28606  1.0000
  H   H3789     1.0  0.59055  0.68466  0.30365  1.0000
  H   H3790     1.0  0.57915  0.67844  0.29172  1.0000
  C   C3811     1.0  0.60600  0.63758  0.20763  1.0000
  C   C3812     1.0  0.61245  0.63828  0.19538  1.0000
  C   C3813     1.0  0.64512  0.61275  0.19439  1.0000
  H   H3791     1.0  0.93017  0.83527  0.19694  1.0000
  C   C3814     1.0  0.59681  0.62178  0.20568  1.0000
  C   C3815     1.0  0.59825  0.62923  0.21278  1.0000
  H   H3792     1.0  0.51785  0.83453  0.32911  1.0000
  C   C3816     1.0  0.59146  0.76765  0.36841  1.0000
  H   H3793     1.0  0.59065  0.61546  0.20969  1.0000
  H   H3794     1.0  0.59319  0.62867  0.22217  1.0000
  C   C3817     1.0  0.53669  0.63171  0.28809  1.0000
  C   C3818     1.0  0.54751  0.63454  0.28885  1.0000
  C   C3819     1.0  0.55892  0.62974  0.28180  1.0000
  C   C3820     1.0  0.55950  0.62188  0.27422  1.0000
  C   C3821     1.0  0.54873  0.61886  0.27372  1.0000
  C   C3822     1.0  0.53736  0.62389  0.28047  1.0000
  H   H3795     1.0  0.54710  0.64068  0.29457  1.0000
  H   H3796     1.0  0.56723  0.63211  0.28223  1.0000
  H   H3797     1.0  0.54914  0.61278  0.26789  1.0000
  H   H3798     1.0  0.52906  0.62168  0.27980  1.0000
  C   C3823     1.0  0.55108  0.61933  0.34246  1.0000
  C   C3824     1.0  0.56193  0.61490  0.34688  1.0000
  C   C3825     1.0  0.57241  0.60848  0.34004  1.0000
  C   C3826     1.0  0.57196  0.60625  0.32889  1.0000
  C   C3827     1.0  0.56100  0.61038  0.32463  1.0000
  C   C3828     1.0  0.55060  0.61703  0.33136  1.0000
  H   H3799     1.0  0.56230  0.61664  0.35546  1.0000
  H   H3800     1.0  0.58086  0.60537  0.34335  1.0000
  H   H3801     1.0  0.56062  0.60869  0.31600  1.0000
  H   H3802     1.0  0.54220  0.62035  0.32794  1.0000
  C   C3829     1.0  0.54500  0.68354  0.32225  1.0000
  C   C3830     1.0  0.54016  0.68170  0.33487  1.0000
  C   C3831     1.0  0.54628  0.68410  0.34264  1.0000
  C   C3832     1.0  0.55746  0.68798  0.33791  1.0000
  C   C3833     1.0  0.56255  0.68942  0.32533  1.0000
  C   C3834     1.0  0.55622  0.68739  0.31748  1.0000
  H   H3803     1.0  0.53143  0.67894  0.33858  1.0000
  H   H3804     1.0  0.54226  0.68307  0.35235  1.0000
  H   H3805     1.0  0.57117  0.69243  0.32162  1.0000
  H   H3806     1.0  0.56000  0.68882  0.30772  1.0000
  C   C3835     1.0  0.70532  0.88613  0.35301  1.0000
  C   C3836     1.0  0.70985  0.89701  0.34966  1.0000
  C   C3837     1.0  0.72054  0.89740  0.35313  1.0000
  C   C3838     1.0  0.72680  0.88691  0.36007  1.0000
  C   C3839     1.0  0.72227  0.87604  0.36337  1.0000
  C   C3840     1.0  0.71161  0.87564  0.35989  1.0000
  H   H3807     1.0  0.70502  0.90521  0.34440  1.0000
  H   H3808     1.0  0.72384  0.90586  0.35061  1.0000
  H   H3809     1.0  0.70829  0.86719  0.36251  1.0000
  C   C3841     1.0  0.62397  0.86873  0.36749  1.0000
  H   H3810     1.0  0.59240  0.77366  0.34892  1.0000
  C   C3842     1.0  0.60274  0.86847  0.36790  1.0000
  C   C3843     1.0  0.60494  0.87191  0.35509  1.0000
  C   C3844     1.0  0.61672  0.87362  0.34852  1.0000
  C   C3845     1.0  0.62624  0.87193  0.35468  1.0000
  C   C3846     1.0  0.61677  0.83633  0.35327  1.0000
  C   C3847     1.0  0.51540  0.83830  0.33727  1.0000
  H   H3811     1.0  0.61850  0.87627  0.33862  1.0000
  H   H3812     1.0  0.63526  0.87334  0.34953  1.0000
  C   C3848     1.0  0.60257  0.59536  0.27408  1.0000
  H   H3813     1.0  0.61895  0.59608  0.25970  1.0000
  C   C3849     1.0  0.58577  0.81794  0.33707  1.0000
  C   C3850     1.0  0.59816  0.81224  0.33373  1.0000
  H   H3814     1.0  0.57970  0.81986  0.33080  1.0000
  H   H3815     1.0  0.60168  0.80972  0.32489  1.0000
  C   C3851     1.0  0.66805  0.79632  0.36450  1.0000
  C   C3852     1.0  0.66599  0.80093  0.35260  1.0000
  C   C3853     1.0  0.66946  0.81194  0.34567  1.0000
  C   C3854     1.0  0.67428  0.81878  0.35085  1.0000
  C   C3855     1.0  0.67626  0.81422  0.36280  1.0000
  C   C3856     1.0  0.67344  0.80285  0.36948  1.0000
  H   H3816     1.0  0.66206  0.79581  0.34863  1.0000
  H   H3817     1.0  0.66832  0.81522  0.33631  1.0000
  H   H3818     1.0  0.68025  0.81928  0.36676  1.0000
  H   H3819     1.0  0.90177  0.88833  0.36726  1.0000
  C   C3857     1.0  0.61806  0.74065  0.36521  1.0000
  C   C3858     1.0  0.62032  0.74543  0.35254  1.0000
  C   C3859     1.0  0.61864  0.73907  0.34443  1.0000
  C   C3860     1.0  0.61464  0.72784  0.34878  1.0000
  C   C3861     1.0  0.61227  0.72313  0.36146  1.0000
  C   C3862     1.0  0.60569  0.58631  0.29428  1.0000
  H   H3820     1.0  0.62345  0.75399  0.34898  1.0000
  H   H3821     1.0  0.62053  0.74290  0.33471  1.0000
  H   H3822     1.0  0.60920  0.71455  0.36503  1.0000
  S   S1310     1.0  0.50466  0.86955  0.31998  1.0000
  H   H3823     1.0  0.67526  0.79919  0.37859  1.0000
  C   C3863     1.0  0.61291  0.62224  0.37328  1.0000
  H   H3824     1.0  0.57689  0.67086  0.36515  1.0000
  C   C3864     1.0  0.52271  0.87617  0.34805  1.0000
  C   C3865     1.0  0.52972  0.87011  0.33869  1.0000
  C   C3866     1.0  0.52406  0.86837  0.33008  1.0000
  H   H3825     1.0  0.60205  0.58378  0.30405  1.0000
  H   H3826     1.0  0.53951  0.86678  0.33805  1.0000
  H   H3827     1.0  0.56737  0.87728  0.31954  1.0000
  H   H3828     1.0  0.53832  0.89513  0.33336  1.0000
  C   C3867     1.0  0.56705  0.89755  0.34281  1.0000
  C   C3868     1.0  0.64606  0.60497  0.18662  1.0000
  H   H3829     1.0  0.78715  0.94782  0.31526  1.0000
  C   C3869     1.0  0.61534  0.63379  0.37206  1.0000
  H   H3830     1.0  0.53989  0.84396  0.35284  1.0000
  N   N315      1.0  0.49723  0.63285  0.36521  1.0000
  H   H3831     1.0  0.84882  0.93977  0.36718  1.0000
  H   H3832     1.0  0.87778  0.86564  0.34787  1.0000
  N   N316      1.0  0.77497  0.95424  0.33077  1.0000
  C   C3870     1.0  0.94594  0.84314  0.19344  1.0000
  H   H3833     1.0  0.78075  0.97222  0.34643  1.0000
  H   H3834     1.0  0.61914  0.60749  0.21463  1.0000
  N   N317      1.0  0.88993  0.88214  0.35988  1.0000
  N   N318      1.0  0.63615  0.82980  0.34016  1.0000
  N   N319      1.0  0.52140  0.84350  0.35325  1.0000
  C   C3871     1.0  0.60591  0.80959  0.34193  1.0000
  S   S1311     1.0  0.81374  0.98494  0.34192  1.0000
  N   N320      1.0  0.55797  0.89105  0.32987  1.0000
  C   C3872     1.0  0.82586  0.90771  0.34225  1.0000
  C   C3873     1.0  0.81574  0.91292  0.33674  1.0000
  C   C3874     1.0  0.81041  0.92534  0.33612  1.0000
  H   H3835     1.0  0.82998  0.89807  0.34264  1.0000
  H   H3836     1.0  0.81206  0.90732  0.33302  1.0000
  H   H3837     1.0  0.80268  0.92950  0.33172  1.0000
  H   H3838     1.0  0.94378  0.84518  0.20249  1.0000
  H   H3839     1.0  0.75613  0.87903  0.33747  1.0000
  H   H3840     1.0  0.63304  0.49001  0.37246  1.0000
  H   H3841     1.0  0.63773  0.82337  0.32401  1.0000
  S   S1312     1.0  0.86594  0.87963  0.18692  1.0000
  C   C3875     1.0  0.57517  0.62380  0.37188  1.0000
  C   C3876     1.0  0.60695  0.50903  0.35357  1.0000
  S   S1313     1.0  0.85858  0.96154  0.36414  1.0000
  H   H3842     1.0  0.64296  0.61870  0.21676  1.0000
  H   H3843     1.0  0.88786  0.90166  0.35519  1.0000
  C   C3877     1.0  0.77469  0.96211  0.37634  1.0000
  H   H3844     1.0  0.53394  0.83409  0.33985  1.0000
  H   H3845     1.0  0.72418  0.86930  0.33379  1.0000
  H   H3846     1.0  0.62219  0.52323  0.37066  1.0000
  C   C3878     1.0  0.61220  0.86697  0.37406  1.0000
  C   C3879     1.0  0.79327  0.96571  0.33088  1.0000
  C   C3880     1.0  0.54500  0.90151  0.34559  1.0000
  Fe  Fe659     1.0  0.64549  0.78102  0.37112  1.0000
  C   C3881     1.0  0.58461  0.59494  0.29109  1.0000
  C   C3882     1.0  0.61127  0.63057  0.18837  1.0000
  C   C3883     1.0  0.57643  0.66128  0.36666  1.0000
  H   H3847     1.0  0.80368  0.95785  0.31536  1.0000
  H   H3848     1.0  0.83900  0.91134  0.36217  1.0000
  C   C3884     1.0  0.62683  0.60673  0.20686  1.0000
  H   H3849     1.0  0.57950  0.59385  0.28470  1.0000
  C   C3885     1.0  0.50258  0.64221  0.36705  1.0000
  C   C3886     1.0  0.60230  0.52117  0.35484  1.0000
  H   H3850     1.0  0.56072  0.89195  0.31084  1.0000
  H   H3851     1.0  0.58839  0.63296  0.38172  1.0000
  C   C3887     1.0  0.78573  0.95312  0.32215  1.0000
  C   C3888     1.0  0.50466  0.62243  0.36172  1.0000
  H   H3852     1.0  0.61746  0.84489  0.36731  1.0000
  C   C3889     1.0  0.61526  0.59307  0.26940  1.0000
  C   C3890     1.0  0.79508  0.95878  0.32212  1.0000
  C   C3891     1.0  0.62741  0.59896  0.19921  1.0000
  H   H3853     1.0  0.65187  0.83375  0.34345  1.0000
  Fe  Fe660     1.0  0.62640  0.79142  0.35581  1.0000
  S   S1314     1.0  0.79966  0.88693  0.35632  1.0000
  C   C3892     1.0  0.58911  0.77623  0.35776  1.0000
  C   C3893     1.0  0.61844  0.58386  0.28990  1.0000
  H   H3854     1.0  0.61430  0.61516  0.38137  1.0000
  H   H3855     1.0  0.58103  0.79495  0.35040  1.0000
  H   H3856     1.0  0.76033  0.94493  0.34003  1.0000
  H   H3857     1.0  0.58180  0.58889  0.30013  1.0000
  C   C3894     1.0  0.81539  0.85581  0.36093  1.0000
  N   N321      1.0  0.58390  0.64045  0.31165  1.0000
  C   C3895     1.0  0.58871  0.64959  0.31280  1.0000
  C   C3896     1.0  0.57246  0.63890  0.31823  1.0000
  C   C3897     1.0  0.58184  0.65772  0.32040  1.0000
  C   C3898     1.0  0.56545  0.64669  0.32612  1.0000
  C   C3899     1.0  0.57014  0.65624  0.32707  1.0000
  C   C3900     1.0  0.59127  0.63187  0.30382  1.0000
  H   H3858     1.0  0.59781  0.65080  0.30763  1.0000
  H   H3859     1.0  0.56866  0.63168  0.31731  1.0000
  H   H3860     1.0  0.58549  0.66522  0.32096  1.0000
  H   H3861     1.0  0.55639  0.64540  0.33134  1.0000
  H   H3862     1.0  0.56466  0.66258  0.33286  1.0000
  H   H3863     1.0  0.59662  0.62380  0.30926  1.0000
  H   H3864     1.0  0.58530  0.62852  0.29990  1.0000
  H   H3865     1.0  0.59769  0.63639  0.29596  1.0000
  H   H3866     1.0  0.62644  0.62199  0.21977  1.0000
  C   C3901     1.0  0.61768  0.51899  0.36629  1.0000
  C   C3902     1.0  0.76681  0.95553  0.37485  1.0000
  C   C3903     1.0  0.60336  0.62235  0.19349  1.0000
  H   H3867     1.0  0.74319  0.86371  0.34182  1.0000
  C   C3904     1.0  0.63540  0.84000  0.35597  1.0000
  H   H3868     1.0  0.58179  0.60461  0.29222  1.0000
  N   N322      1.0  0.63559  0.61354  0.20437  1.0000
  C   C3905     1.0  0.56820  0.89196  0.33312  1.0000
  H   H3869     1.0  0.87059  0.88647  0.33589  1.0000
  H   H3870     1.0  0.81954  0.86287  0.35356  1.0000
  H   H3871     1.0  0.93990  0.88153  0.18954  1.0000
  C   C3906     1.0  0.54647  0.89590  0.33584  1.0000
  H   H3872     1.0  0.55432  0.90635  0.35685  1.0000
  H   H3873     1.0  0.68269  0.88852  0.37423  1.0000
  N   N323      1.0  0.88247  0.84248  0.28657  1.0000
  C   C3907     1.0  0.88071  0.84783  0.29629  1.0000
  C   C3908     1.0  0.87378  0.83686  0.28573  1.0000
  C   C3909     1.0  0.86998  0.84769  0.30545  1.0000
  C   C3910     1.0  0.86283  0.83677  0.29462  1.0000
  C   C3911     1.0  0.86096  0.84221  0.30455  1.0000
  C   C3912     1.0  0.89401  0.84227  0.27733  1.0000
  H   H3874     1.0  0.88753  0.85242  0.29688  1.0000
  H   H3875     1.0  0.87515  0.83268  0.27799  1.0000
  H   H3876     1.0  0.86859  0.85190  0.31317  1.0000
  H   H3877     1.0  0.85583  0.83256  0.29379  1.0000
  H   H3878     1.0  0.85250  0.84228  0.31153  1.0000
  H   H3879     1.0  0.89744  0.85081  0.27583  1.0000
  H   H3880     1.0  0.90108  0.83420  0.28032  1.0000
  H   H3881     1.0  0.89266  0.84188  0.26830  1.0000
  N   N324      1.0  0.54860  0.66290  0.26748  1.0000
  C   C3913     1.0  0.53908  0.66471  0.27727  1.0000
  C   C3914     1.0  0.55792  0.66911  0.26451  1.0000
  C   C3915     1.0  0.53883  0.67278  0.28446  1.0000
  C   C3916     1.0  0.55790  0.67733  0.27145  1.0000
  C   C3917     1.0  0.54833  0.67911  0.28152  1.0000
  C   C3918     1.0  0.54880  0.65450  0.25989  1.0000
  H   H3882     1.0  0.53167  0.65979  0.27968  1.0000
  H   H3883     1.0  0.56552  0.66769  0.25681  1.0000
  H   H3884     1.0  0.53140  0.67409  0.29233  1.0000
  H   H3885     1.0  0.56542  0.68208  0.26919  1.0000
  H   H3886     1.0  0.54833  0.68531  0.28708  1.0000
  H   H3887     1.0  0.55763  0.64763  0.25920  1.0000
  H   H3888     1.0  0.54133  0.64926  0.26384  1.0000
  H   H3889     1.0  0.54779  0.65972  0.25052  1.0000
  N   N325      1.0  0.72651  0.88752  0.32483  1.0000
  H   H3890     1.0  0.61902  0.82737  0.33861  1.0000
  C   C3919     1.0  0.73367  0.89600  0.32228  1.0000
  H   H3891     1.0  0.62020  0.59391  0.20095  1.0000
  Fe  Fe661     1.0  0.50308  0.65613  0.33272  1.0000
  S   S1315     1.0  0.60132  0.61259  0.18514  1.0000
  H   H3892     1.0  0.56267  0.64301  0.35855  1.0000
  H   H3893     1.0  0.71735  0.89230  0.31005  1.0000
  H   H3894     1.0  0.65204  0.61819  0.19239  1.0000
  H   H3895     1.0  0.62073  0.49273  0.35749  1.0000
  H   H3896     1.0  0.92807  0.82349  0.18319  1.0000
  S   S1316     1.0  0.89833  0.85779  0.18544  1.0000
  C   C3920     1.0  0.57898  0.79144  0.36999  1.0000
  H   H3897     1.0  0.70928  0.89947  0.32296  1.0000
  H   H3898     1.0  0.49844  0.65148  0.36220  1.0000
  C   C3921     1.0  0.51130  0.87245  0.33083  1.0000
  H   H3899     1.0  0.60689  0.83706  0.35592  1.0000
  S   S1317     1.0  0.66380  0.78251  0.37328  1.0000
  C   C3922     1.0  0.74795  0.88137  0.33372  1.0000
  C   C3923     1.0  0.64332  0.82305  0.33061  1.0000
  H   H3900     1.0  0.82300  0.87929  0.36335  1.0000
  C   C3924     1.0  0.80622  0.89306  0.36472  1.0000
  H   H3901     1.0  0.81126  0.94209  0.34044  1.0000
  H   H3902     1.0  0.58961  0.65471  0.37829  1.0000
  H   H3903     1.0  0.75007  0.89987  0.32481  1.0000
  H   H3904     1.0  0.52852  0.85114  0.36406  1.0000
  S   S1318     1.0  0.86350  0.85539  0.37864  1.0000
  C   C3925     1.0  0.53100  0.84324  0.35947  1.0000
  C   C3926     1.0  0.58279  0.78818  0.35860  1.0000
  C   C3927     1.0  0.81513  0.93236  0.34111  1.0000
  N   N326      1.0  0.85362  0.88548  0.24035  1.0000
  C   C3928     1.0  0.84240  0.88606  0.24829  1.0000
  C   C3929     1.0  0.86280  0.88937  0.24271  1.0000
  C   C3930     1.0  0.84000  0.89103  0.25867  1.0000
  C   C3931     1.0  0.86071  0.89440  0.25301  1.0000
  C   C3932     1.0  0.84921  0.89527  0.26098  1.0000
  C   C3933     1.0  0.85602  0.88011  0.22961  1.0000
  H   H3905     1.0  0.83523  0.88267  0.24661  1.0000
  H   H3906     1.0  0.87186  0.88844  0.23672  1.0000
  H   H3907     1.0  0.83108  0.89160  0.26494  1.0000
  H   H3908     1.0  0.86804  0.89730  0.25499  1.0000
  H   H3909     1.0  0.84744  0.89911  0.26902  1.0000
  H   H3910     1.0  0.85956  0.87004  0.23205  1.0000
  H   H3911     1.0  0.84755  0.88180  0.22605  1.0000
  H   H3912     1.0  0.86291  0.88418  0.22195  1.0000
  N   N327      1.0  0.61606  0.72919  0.30516  1.0000
  C   C3934     1.0  0.60785  0.73168  0.29776  1.0000
  C   C3935     1.0  0.62316  0.71765  0.30771  1.0000
  C   C3936     1.0  0.60686  0.72259  0.29239  1.0000
  C   C3937     1.0  0.62247  0.70837  0.30242  1.0000
  C   C3938     1.0  0.61430  0.71090  0.29467  1.0000
  C   C3939     1.0  0.61693  0.73898  0.31053  1.0000
  H   H3913     1.0  0.60201  0.74074  0.29602  1.0000
  H   H3914     1.0  0.62931  0.71552  0.31398  1.0000
  H   H3915     1.0  0.60034  0.72455  0.28655  1.0000
  H   H3916     1.0  0.62810  0.69921  0.30444  1.0000
  H   H3917     1.0  0.61363  0.70375  0.29056  1.0000
  H   H3918     1.0  0.60852  0.74101  0.31769  1.0000
  H   H3919     1.0  0.62493  0.73623  0.31503  1.0000
  H   H3920     1.0  0.61803  0.74744  0.30338  1.0000
  C   C3940     1.0  0.56884  0.65795  0.36111  1.0000
  Fe  Fe662     1.0  0.62884  0.49299  0.32590  1.0000
  N   N328      1.0  0.59793  0.59191  0.28636  1.0000
  C   C3941     1.0  0.84099  0.90914  0.35297  1.0000
  H   H3921     1.0  0.57430  0.80081  0.37065  1.0000
  C   C3942     1.0  0.50015  0.84889  0.35185  1.0000
  H   H3922     1.0  0.57734  0.88807  0.32846  1.0000
  C   C3943     1.0  0.74069  0.87274  0.33614  1.0000
  H   H3923     1.0  0.82891  0.93231  0.35041  1.0000
  C   C3944     1.0  0.58129  0.82126  0.34846  1.0000
  C   C3945     1.0  0.63332  0.49995  0.36936  1.0000
  C   C3946     1.0  0.81788  0.88722  0.36710  1.0000
  C   C3947     1.0  0.78219  0.96696  0.33949  1.0000
  C   C3948     1.0  0.71515  0.89091  0.32020  1.0000
  H   H3924     1.0  0.80045  0.97012  0.33098  1.0000
  H   H3925     1.0  0.53584  0.90485  0.35062  1.0000
  Fe  Fe663     1.0  0.62584  0.76670  0.37303  1.0000
  H   H3926     1.0  0.72702  0.86787  0.36874  1.0000
  C   C3949     1.0  0.72994  0.87598  0.33158  1.0000
  C   C3950     1.0  0.82516  0.92680  0.34670  1.0000
  H   H3927     1.0  0.56328  0.66497  0.35538  1.0000
  C   C3951     1.0  0.56851  0.64555  0.36300  1.0000
  C   C3952     1.0  0.62368  0.83084  0.34350  1.0000
  S   S1319     1.0  0.61166  0.78429  0.37085  1.0000
  C   C3953     1.0  0.74448  0.89307  0.32669  1.0000
  H   H3928     1.0  0.59645  0.60000  0.26783  1.0000
  C   C3954     1.0  0.76512  0.94856  0.33054  1.0000
  C   C3955     1.0  0.62272  0.84080  0.35961  1.0000
  H   H3929     1.0  0.75832  0.95541  0.32565  1.0000
  N   N329      1.0  0.62218  0.50708  0.36500  1.0000
  H   H3930     1.0  0.55113  0.88148  0.32055  1.0000
  H   H3931     1.0  0.86844  0.98251  0.34382  1.0000
  C   C3956     1.0  0.77307  0.96116  0.33928  1.0000
  H   H3932     1.0  0.87588  0.82492  0.19075  1.0000
  H   H3933     1.0  0.76876  0.94069  0.32587  1.0000
  N   N330      1.0  0.63730  0.63243  0.33758  1.0000
  C   C3957     1.0  0.63576  0.64495  0.33494  1.0000
  C   C3958     1.0  0.63561  0.62659  0.32952  1.0000
  C   C3959     1.0  0.63219  0.65197  0.32409  1.0000
  C   C3960     1.0  0.63214  0.63331  0.31854  1.0000
  C   C3961     1.0  0.63040  0.64609  0.31585  1.0000
  C   C3962     1.0  0.64126  0.62508  0.34884  1.0000
  H   H3934     1.0  0.63711  0.64962  0.34130  1.0000
  H   H3935     1.0  0.63701  0.61664  0.33154  1.0000
  H   H3936     1.0  0.63087  0.66190  0.32207  1.0000
  H   H3937     1.0  0.63100  0.62859  0.31212  1.0000
  H   H3938     1.0  0.62778  0.65145  0.30735  1.0000
  H   H3939     1.0  0.63586  0.61779  0.35325  1.0000
  H   H3940     1.0  0.65117  0.62071  0.34666  1.0000
  H   H3941     1.0  0.63980  0.63079  0.35566  1.0000
  H   H3942     1.0  0.64640  0.81323  0.33491  1.0000
  C   C3963     1.0  0.63490  0.62174  0.21236  1.0000
  H   H3943     1.0  0.76453  0.96204  0.34612  1.0000
  H   H3944     1.0  0.79087  0.90824  0.36733  1.0000
  C   C3964     1.0  0.88578  0.89370  0.35353  1.0000
  H   H3945     1.0  0.65149  0.82695  0.32532  1.0000
  H   H3946     1.0  0.73095  0.90516  0.31694  1.0000
  S   S1320     1.0  0.63534  0.86718  0.37574  1.0000
  H   H3947     1.0  0.70952  0.88375  0.32407  1.0000
  H   H3948     1.0  0.80571  0.85708  0.36016  1.0000
  C   C3965     1.0  0.60761  0.52617  0.36134  1.0000
  H   H3949     1.0  0.62461  0.57958  0.29617  1.0000
  H   H3950     1.0  0.60738  0.81097  0.35967  1.0000
  H   H3951     1.0  0.88183  0.94874  0.36948  1.0000
  H   H3952     1.0  0.53242  0.83455  0.36642  1.0000
  C   C3966     1.0  0.89746  0.88034  0.36883  1.0000
  C   C3967     1.0  0.87656  0.94197  0.37033  1.0000
  C   C3968     1.0  0.60139  0.81289  0.35333  1.0000
  H   H3953     1.0  0.83508  0.84863  0.37073  1.0000
  H   H3954     1.0  0.60320  0.50523  0.34811  1.0000
  S   S1321     1.0  0.63283  0.79939  0.36789  1.0000
  H   H3955     1.0  0.86534  0.98469  0.36809  1.0000
  H   H3956     1.0  0.59373  0.86705  0.37307  1.0000
  H   H3957     1.0  0.57520  0.89790  0.34557  1.0000
  C   C3969     1.0  0.88683  0.87219  0.35815  1.0000
  N   N331      1.0  0.81610  0.85720  0.37293  1.0000
  S   S1322     1.0  0.56586  0.82826  0.35275  1.0000
  H   H3958     1.0  0.50448  0.88519  0.35587  1.0000
  H   H3959     1.0  0.60447  0.53579  0.36188  1.0000
  H   H3960     1.0  0.51269  0.64066  0.36339  1.0000
  C   C3970     1.0  0.55937  0.88518  0.31967  1.0000
  S   S1323     1.0  0.54955  0.84998  0.37520  1.0000
  C   C3971     1.0  0.93062  0.87103  0.18359  1.0000
  Fe  Fe664     1.0  0.56546  0.84405  0.36066  1.0000
  H   H3961     1.0  0.56555  0.62249  0.37427  1.0000
  H   H3962     1.0  0.84913  0.91275  0.34717  1.0000
  C   C3972     1.0  0.64202  0.83439  0.34619  1.0000
  C   C3973     1.0  0.87596  0.88528  0.34267  1.0000
  C   C3974     1.0  0.88001  0.87358  0.34937  1.0000
  C   C3975     1.0  0.50429  0.87847  0.34023  1.0000
  C   C3976     1.0  0.93823  0.83758  0.19022  1.0000
  S   S1324     1.0  0.84369  0.97811  0.33682  1.0000
  H   H3963     1.0  0.64010  0.84370  0.36068  1.0000
  C   C3977     1.0  0.87876  0.89544  0.34481  1.0000
  N   N332      1.0  0.57542  0.63674  0.37038  1.0000
  H   H3964     1.0  0.88960  0.86309  0.36359  1.0000
  H   H3965     1.0  0.96162  0.85170  0.18686  1.0000
  H   H3966     1.0  0.89157  0.79730  0.18352  1.0000
  C   C3978     1.0  0.58347  0.65223  0.37414  1.0000
  H   H3967     1.0  0.63436  0.50305  0.37724  1.0000
  S   S1325     1.0  0.57958  0.84709  0.36894  1.0000
  H   H3968     1.0  0.89165  0.87929  0.37822  1.0000
  H   H3969     1.0  0.58566  0.82132  0.36539  1.0000
  H   H3970     1.0  0.89077  0.92666  0.37582  1.0000
  C   C3979     1.0  0.63712  0.59805  0.18907  1.0000
  H   H3971     1.0  0.61869  0.63554  0.37918  1.0000
  H   H3972     1.0  0.79737  0.86661  0.37716  1.0000
  N   N333      1.0  0.58769  0.77092  0.37956  1.0000
  C   C3980     1.0  0.82290  0.89156  0.37444  1.0000
  H   H3973     1.0  0.59655  0.75845  0.36765  1.0000
  H   H3974     1.0  0.90497  0.87205  0.36831  1.0000
  C   C3981     1.0  0.87479  0.92067  0.37542  1.0000
  S   S1326     1.0  0.85625  0.89095  0.37673  1.0000
  C   C3982     1.0  0.49956  0.61348  0.35996  1.0000
  C   C3983     1.0  0.88163  0.92948  0.37393  1.0000
  H   H3975     1.0  0.50549  0.60536  0.35694  1.0000
  C   C3984     1.0  0.80607  0.86321  0.38008  1.0000
  C   C3985     1.0  0.86293  0.92437  0.37298  1.0000
  C   C3986     1.0  0.50319  0.84368  0.34159  1.0000
  H   H3976     1.0  0.85759  0.91759  0.37414  1.0000
  S   S1327     1.0  0.61961  0.74851  0.37596  1.0000
  H   H3977     1.0  0.75706  0.95786  0.37873  1.0000
  H   H3978     1.0  0.61212  0.72569  0.37934  1.0000
  S   S1328     1.0  0.88131  0.90514  0.38037  1.0000
  H   H3979     1.0  0.83174  0.88679  0.37654  1.0000
  H   H3980     1.0  0.68876  0.90117  0.37411  1.0000
  C   C3987     1.0  0.80507  0.90822  0.37618  1.0000
  H   H3981     1.0  0.57988  0.61773  0.37924  1.0000
  C   C3988     1.0  0.81651  0.90208  0.37896  1.0000
  H   H3982     1.0  0.80011  0.91640  0.37963  1.0000
  H   H3983     1.0  0.77094  0.96937  0.38141  1.0000
  H   H3984     1.0  0.63768  0.59205  0.18306  1.0000
  C   C3989     1.0  0.58163  0.78267  0.38043  1.0000
  H   H3985     1.0  0.51460  0.62106  0.36008  1.0000
  C   C3990     1.0  0.68573  0.89278  0.38014  1.0000
  H   H3986     1.0  0.63171  0.82127  0.38007  1.0000
  H   H3987     1.0  0.49615  0.84418  0.33675  1.0000
  Fe  Fe665     1.0  0.56343  0.85499  0.38236  1.0000
  H   H3988     1.0  0.65474  0.86509  0.56529  1.0000
  C   C3991     1.0  0.87415  0.82348  0.55508  1.0000
  S   S1329     1.0  0.60782  0.80287  0.39661  1.0000
  C   C3992     1.0  0.80967  0.93765  0.39210  1.0000
  N   N334      1.0  0.66163  0.92787  0.57196  1.0000
  Fe  Fe666     1.0  0.61678  0.85083  0.46192  1.0000
  S   S1330     1.0  0.61136  0.86944  0.45027  1.0000
  S   S1331     1.0  0.61836  0.84815  0.48186  1.0000
  Fe  Fe667     1.0  0.62247  0.83811  0.43968  1.0000
  S   S1332     1.0  0.61818  0.85603  0.42656  1.0000
  S   S1333     1.0  0.62973  0.82035  0.43259  1.0000
  Fe  Fe668     1.0  0.62801  0.86322  0.43652  1.0000
  S   S1334     1.0  0.64231  0.87453  0.42843  1.0000
  Fe  Fe669     1.0  0.60193  0.86025  0.44166  1.0000
  S   S1335     1.0  0.58325  0.86915  0.43732  1.0000
  S   S1336     1.0  0.63396  0.84495  0.44833  1.0000
  S   S1337     1.0  0.60569  0.84195  0.45457  1.0000
  H   H3989     1.0  0.59252  0.87449  0.39744  1.0000
  H   H3990     1.0  0.87464  0.51734  0.56569  1.0000
  C   C3993     1.0  0.90038  0.89561  0.54192  1.0000
  H   H3991     1.0  0.94104  0.83519  0.52667  1.0000
  S   S1338     1.0  0.56417  0.84899  0.40239  1.0000
  H   H3992     1.0  0.90795  0.88457  0.51041  1.0000
  N   N335      1.0  0.86485  0.50290  0.57203  1.0000
  C   C3994     1.0  0.60024  0.90888  0.56649  1.0000
  H   H3993     1.0  0.63994  0.84075  0.40261  1.0000
  S   S1339     1.0  0.72058  0.88648  0.56938  1.0000
  S   S1340     1.0  0.75383  0.88843  0.56661  1.0000
  Fe  Fe670     1.0  0.70816  0.90510  0.56769  1.0000
  S   S1341     1.0  0.69614  0.91424  0.55403  1.0000
  S   S1342     1.0  0.72192  0.91423  0.57036  1.0000
  C   C3995     1.0  0.90348  0.89185  0.53076  1.0000
  C   C3996     1.0  0.65818  0.82314  0.41052  1.0000
  H   H3994     1.0  0.67459  0.87189  0.55814  1.0000
  H   H3995     1.0  0.60472  0.80551  0.43997  1.0000
  C   C3997     1.0  0.78496  0.87834  0.57979  1.0000
  Fe  Fe671     1.0  0.63353  0.90752  0.53824  1.0000
  S   S1343     1.0  0.62052  0.89527  0.54039  1.0000
  S   S1344     1.0  0.62426  0.92562  0.54411  1.0000
  Fe  Fe672     1.0  0.65589  0.88693  0.53342  1.0000
  S   S1345     1.0  0.64458  0.87306  0.53570  1.0000
  S   S1346     1.0  0.67630  0.88072  0.53194  1.0000
  Fe  Fe673     1.0  0.63325  0.88830  0.52398  1.0000
  S   S1347     1.0  0.62707  0.88766  0.50682  1.0000
  Fe  Fe674     1.0  0.63294  0.88129  0.55173  1.0000
  S   S1348     1.0  0.62641  0.87108  0.57105  1.0000
  S   S1349     1.0  0.64537  0.90190  0.52088  1.0000
  S   S1350     1.0  0.64529  0.89375  0.55027  1.0000
  Fe  Fe675     1.0  0.90032  0.77913  0.56500  1.0000
  S   S1351     1.0  0.90991  0.78657  0.54594  1.0000
  Fe  Fe676     1.0  0.88229  0.84250  0.50581  1.0000
  S   S1352     1.0  0.88644  0.85334  0.51694  1.0000
  S   S1353     1.0  0.87350  0.82644  0.51587  1.0000
  Fe  Fe677     1.0  0.89101  0.85916  0.48154  1.0000
  S   S1354     1.0  0.89626  0.87138  0.49067  1.0000
  S   S1355     1.0  0.89451  0.86181  0.46087  1.0000
  Fe  Fe678     1.0  0.90391  0.85396  0.50297  1.0000
  S   S1356     1.0  0.92171  0.85032  0.50921  1.0000
  Fe  Fe679     1.0  0.87837  0.86968  0.50393  1.0000
  S   S1357     1.0  0.86598  0.88478  0.51270  1.0000
  S   S1358     1.0  0.90050  0.84176  0.49257  1.0000
  S   S1359     1.0  0.87246  0.85882  0.49402  1.0000
  C   C3998     1.0  0.70455  0.86365  0.39492  1.0000
  H   H3996     1.0  0.59959  0.76355  0.39203  1.0000
  Fe  Fe680     1.0  0.93078  0.86551  0.56724  1.0000
  S   S1360     1.0  0.92761  0.87612  0.54851  1.0000
  H   H3997     1.0  0.65324  0.83005  0.41622  1.0000
  C   C3999     1.0  0.88856  0.89567  0.54914  1.0000
  Fe  Fe681     1.0  0.82599  0.86119  0.56980  1.0000
  S   S1361     1.0  0.82555  0.85899  0.55131  1.0000
  C   C4000     1.0  0.59800  0.89697  0.56997  1.0000
  H   H3998     1.0  0.90721  0.89819  0.54504  1.0000
  C   C4001     1.0  0.64678  0.81204  0.38898  1.0000
  C   C4002     1.0  0.82929  0.93065  0.39889  1.0000
  N   N336      1.0  0.82102  0.94001  0.39353  1.0000
  Fe  Fe682     1.0  0.85399  0.87901  0.41203  1.0000
  S   S1362     1.0  0.85094  0.89912  0.40328  1.0000
  S   S1363     1.0  0.85121  0.87279  0.43271  1.0000
  C   C4003     1.0  0.71454  0.86774  0.39583  1.0000
  S   S1364     1.0  0.62865  0.98344  0.56977  1.0000
  Fe  Fe683     1.0  0.84023  0.89473  0.39212  1.0000
  H   H3999     1.0  0.70412  0.85400  0.39804  1.0000
  C   C4004     1.0  0.61458  0.88922  0.41727  1.0000
  C   C4005     1.0  0.78620  0.90701  0.56093  1.0000
  S   S1365     1.0  0.87120  0.87386  0.39823  1.0000
  S   S1366     1.0  0.84161  0.87507  0.40209  1.0000
  H   H4000     1.0  0.95040  0.83367  0.55261  1.0000
  N   N337      1.0  0.65100  0.82280  0.40197  1.0000
  H   H4001     1.0  0.93731  0.84631  0.55319  1.0000
  H   H4002     1.0  0.58293  0.88953  0.39770  1.0000
  S   S1367     1.0  0.91033  0.76981  0.58031  1.0000
  C   C4006     1.0  0.83462  0.95381  0.38960  1.0000
  H   H4003     1.0  0.76636  0.90176  0.54020  1.0000
  C   C4007     1.0  0.84252  0.81918  0.55736  1.0000
  C   C4008     1.0  0.64195  0.83267  0.39877  1.0000
  C   C4009     1.0  0.88005  0.89185  0.54522  1.0000
  H   H4004     1.0  0.87694  0.88492  0.53114  1.0000
  N   N338      1.0  0.69572  0.88418  0.38553  1.0000
  H   H4005     1.0  0.77976  0.89581  0.52964  1.0000
  H   H4006     1.0  0.80422  0.90186  0.56505  1.0000
  S   S1368     1.0  0.65668  0.98769  0.56485  1.0000
  H   H4007     1.0  0.89748  0.87440  0.51706  1.0000
  H   H4008     1.0  0.81712  0.95885  0.38449  1.0000
  C   C4010     1.0  0.65364  0.81269  0.39698  1.0000
  N   N339      1.0  0.59858  0.91559  0.57513  1.0000
  H   H4009     1.0  0.67169  0.93453  0.55423  1.0000
  H   H4010     1.0  0.91232  0.72571  0.57304  1.0000
  H   H4011     1.0  0.59599  0.80610  0.45533  1.0000
  C   C4011     1.0  0.59260  0.88442  0.39552  1.0000
  H   H4012     1.0  0.67779  0.89541  0.38751  1.0000
  H   H4013     1.0  0.76910  0.90980  0.55555  1.0000
  H   H4014     1.0  0.64864  0.80381  0.38537  1.0000
  C   C4012     1.0  0.85401  0.87846  0.52308  1.0000
  C   C4013     1.0  0.84812  0.87124  0.51956  1.0000
  C   C4014     1.0  0.83909  0.86553  0.52815  1.0000
  C   C4015     1.0  0.83627  0.86670  0.54036  1.0000
  C   C4016     1.0  0.84233  0.87375  0.54387  1.0000
  C   C4017     1.0  0.85096  0.87986  0.53521  1.0000
  H   H4015     1.0  0.85040  0.87020  0.51016  1.0000
  H   H4016     1.0  0.83448  0.86005  0.52537  1.0000
  H   H4017     1.0  0.84054  0.87445  0.55328  1.0000
  H   H4018     1.0  0.85547  0.88539  0.53803  1.0000
  C   C4018     1.0  0.92252  0.85784  0.52025  1.0000
  C   C4019     1.0  0.93215  0.86395  0.51775  1.0000
  C   C4020     1.0  0.93368  0.86934  0.52656  1.0000
  C   C4021     1.0  0.92592  0.86826  0.53818  1.0000
  C   C4022     1.0  0.91633  0.86198  0.54086  1.0000
  C   C4023     1.0  0.91455  0.85687  0.53184  1.0000
  H   H4019     1.0  0.93844  0.86458  0.50889  1.0000
  H   H4020     1.0  0.94101  0.87429  0.52438  1.0000
  H   H4021     1.0  0.91016  0.86130  0.54977  1.0000
  H   H4022     1.0  0.90723  0.85195  0.53392  1.0000
  C   C4024     1.0  0.88227  0.86612  0.45306  1.0000
  C   C4025     1.0  0.86998  0.86749  0.45938  1.0000
  C   C4026     1.0  0.86054  0.86975  0.45300  1.0000
  C   C4027     1.0  0.86326  0.87088  0.44023  1.0000
  C   C4028     1.0  0.87551  0.86984  0.43386  1.0000
  C   C4029     1.0  0.88497  0.86740  0.44027  1.0000
  H   H4023     1.0  0.86776  0.86660  0.46920  1.0000
  H   H4024     1.0  0.85108  0.87060  0.45797  1.0000
  H   H4025     1.0  0.87773  0.87068  0.42403  1.0000
  H   H4026     1.0  0.89445  0.86637  0.43531  1.0000
  C   C4030     1.0  0.89969  0.79730  0.53747  1.0000
  C   C4031     1.0  0.90425  0.80587  0.52733  1.0000
  C   C4032     1.0  0.89619  0.81493  0.52084  1.0000
  C   C4033     1.0  0.88358  0.81512  0.52408  1.0000
  C   C4034     1.0  0.87902  0.80633  0.53399  1.0000
  C   C4035     1.0  0.88704  0.79758  0.54086  1.0000
  H   H4027     1.0  0.91403  0.80557  0.52454  1.0000
  H   H4028     1.0  0.89981  0.82161  0.51318  1.0000
  H   H4029     1.0  0.86929  0.80639  0.53648  1.0000
  H   H4030     1.0  0.88348  0.79091  0.54862  1.0000
  C   C4036     1.0  0.64578  0.95266  0.54682  1.0000
  C   C4037     1.0  0.65176  0.94318  0.54048  1.0000
  C   C4038     1.0  0.64540  0.93457  0.53991  1.0000
  C   C4039     1.0  0.63289  0.93563  0.54536  1.0000
  C   C4040     1.0  0.62692  0.94512  0.55170  1.0000
  C   C4041     1.0  0.63337  0.95349  0.55258  1.0000
  H   H4031     1.0  0.66134  0.94251  0.53592  1.0000
  H   H4032     1.0  0.65008  0.92735  0.53494  1.0000
  H   H4033     1.0  0.61722  0.94615  0.55578  1.0000
  H   H4034     1.0  0.62865  0.96081  0.55741  1.0000
  H   H4035     1.0  0.57183  0.82306  0.42025  1.0000
  Fe  Fe684     1.0  0.87533  0.77961  0.58161  1.0000
  C   C4042     1.0  0.80704  0.86567  0.39093  1.0000
  N   N340      1.0  0.89507  0.88813  0.52698  1.0000
  C   C4043     1.0  0.57446  0.82473  0.42789  1.0000
  C   C4044     1.0  0.89834  0.88408  0.51534  1.0000
  C   C4045     1.0  0.91353  0.71614  0.57196  1.0000
  H   H4036     1.0  0.89203  0.88988  0.50925  1.0000
  C   C4046     1.0  0.69074  0.90471  0.54805  1.0000
  C   C4047     1.0  0.68005  0.90943  0.54333  1.0000
  C   C4048     1.0  0.67555  0.90206  0.53847  1.0000
  C   C4049     1.0  0.68194  0.89004  0.53794  1.0000
  C   C4050     1.0  0.69269  0.88531  0.54258  1.0000
  C   C4051     1.0  0.69698  0.89258  0.54781  1.0000
  H   H4037     1.0  0.67524  0.91883  0.54333  1.0000
  H   H4038     1.0  0.66730  0.90580  0.53482  1.0000
  H   H4039     1.0  0.69766  0.87602  0.54216  1.0000
  H   H4040     1.0  0.70532  0.88892  0.55129  1.0000
  H   H4041     1.0  0.85183  0.94595  0.39537  1.0000
  H   H4042     1.0  0.79918  0.87083  0.39633  1.0000
  H   H4043     1.0  0.79414  0.87302  0.57732  1.0000
  C   C4052     1.0  0.85339  0.83555  0.54570  1.0000
  C   C4053     1.0  0.57912  0.86503  0.42562  1.0000
  C   C4054     1.0  0.58698  0.85622  0.41923  1.0000
  C   C4055     1.0  0.58286  0.85225  0.41085  1.0000
  C   C4056     1.0  0.57088  0.85707  0.40884  1.0000
  C   C4057     1.0  0.56329  0.86631  0.41479  1.0000
  C   C4058     1.0  0.56743  0.87032  0.42308  1.0000
  H   H4044     1.0  0.59599  0.85206  0.42116  1.0000
  H   H4045     1.0  0.58865  0.84489  0.40654  1.0000
  H   H4046     1.0  0.55391  0.86981  0.41361  1.0000
  H   H4047     1.0  0.56128  0.87711  0.42802  1.0000
  C   C4059     1.0  0.65417  0.86559  0.41964  1.0000
  C   C4060     1.0  0.66619  0.86285  0.42147  1.0000
  C   C4061     1.0  0.67554  0.85527  0.41465  1.0000
  C   C4062     1.0  0.67291  0.85086  0.40572  1.0000
  C   C4063     1.0  0.66090  0.85368  0.40390  1.0000
  C   C4064     1.0  0.65148  0.86081  0.41103  1.0000
  H   H4048     1.0  0.66820  0.86641  0.42828  1.0000
  H   H4049     1.0  0.68482  0.85308  0.41609  1.0000
  H   H4050     1.0  0.65886  0.85041  0.39692  1.0000
  H   H4051     1.0  0.64220  0.86286  0.40964  1.0000
  C   C4065     1.0  0.62001  0.85938  0.48902  1.0000
  C   C4066     1.0  0.62276  0.85568  0.50079  1.0000
  C   C4067     1.0  0.62479  0.86416  0.50649  1.0000
  C   C4068     1.0  0.62392  0.87654  0.50056  1.0000
  C   C4069     1.0  0.62090  0.88027  0.48892  1.0000
  C   C4070     1.0  0.61905  0.87178  0.48315  1.0000
  H   H4052     1.0  0.62347  0.84614  0.50547  1.0000
  H   H4053     1.0  0.62704  0.86110  0.51546  1.0000
  H   H4054     1.0  0.62008  0.88982  0.48426  1.0000
  H   H4055     1.0  0.61688  0.87483  0.47416  1.0000
  C   C4071     1.0  0.61457  0.80803  0.40587  1.0000
  C   C4072     1.0  0.62475  0.80073  0.41054  1.0000
  C   C4073     1.0  0.62931  0.80469  0.41863  1.0000
  C   C4074     1.0  0.62388  0.81605  0.42201  1.0000
  C   C4075     1.0  0.61384  0.82347  0.41714  1.0000
  C   C4076     1.0  0.60917  0.81943  0.40918  1.0000
  H   H4056     1.0  0.62897  0.79189  0.40814  1.0000
  H   H4057     1.0  0.63706  0.79884  0.42236  1.0000
  H   H4058     1.0  0.60957  0.83223  0.41964  1.0000
  H   H4059     1.0  0.60128  0.82510  0.40561  1.0000
  H   H4060     1.0  0.79898  0.88470  0.53882  1.0000
  H   H4061     1.0  0.60522  0.81733  0.44695  1.0000
  C   C4077     1.0  0.58481  0.81729  0.43218  1.0000
  H   H4062     1.0  0.83701  0.49910  0.57127  1.0000
  H   H4063     1.0  0.61046  0.86423  0.38395  1.0000
  S   S1369     1.0  0.94427  0.82101  0.58151  1.0000
  H   H4064     1.0  0.56656  0.84508  0.44651  1.0000
  Fe  Fe685     1.0  0.61946  0.79064  0.38337  1.0000
  H   H4065     1.0  0.90885  0.69360  0.57978  1.0000
  H   H4066     1.0  0.81256  0.88765  0.55049  1.0000
  H   H4067     1.0  0.59003  0.80965  0.42791  1.0000
  H   H4068     1.0  0.84534  0.84028  0.54191  1.0000
  H   H4069     1.0  0.58356  0.76310  0.39873  1.0000
  H   H4070     1.0  0.88709  0.83713  0.57073  1.0000
  H   H4071     1.0  0.84475  0.80911  0.56114  1.0000
  H   H4072     1.0  0.86367  0.80972  0.56505  1.0000
  C   C4078     1.0  0.82359  0.95147  0.38887  1.0000
  Fe  Fe686     1.0  0.85862  0.87162  0.38752  1.0000
  C   C4079     1.0  0.79845  0.90075  0.55958  1.0000
  H   H4073     1.0  0.94746  0.84466  0.53876  1.0000
  Fe  Fe687     1.0  0.64775  0.97323  0.56313  1.0000
  C   C4080     1.0  0.94308  0.83948  0.54770  1.0000
  H   H4074     1.0  0.91714  0.80972  0.54316  1.0000
  H   H4075     1.0  0.80693  0.92956  0.39902  1.0000
  S   S1370     1.0  0.68469  0.84300  0.39584  1.0000
  H   H4076     1.0  0.92110  0.71451  0.56395  1.0000
  C   C4081     1.0  0.62005  0.88601  0.40595  1.0000
  H   H4077     1.0  0.61201  0.92634  0.57059  1.0000
  H   H4078     1.0  0.59285  0.75245  0.38938  1.0000
  C   C4082     1.0  0.86361  0.81850  0.55860  1.0000
  C   C4083     1.0  0.60186  0.89087  0.42138  1.0000
  S   S1371     1.0  0.94910  0.85481  0.57117  1.0000
  H   H4079     1.0  0.77335  0.88578  0.54352  1.0000
  N   N341      1.0  0.86881  0.83306  0.47972  1.0000
  C   C4084     1.0  0.88083  0.82985  0.48080  1.0000
  C   C4085     1.0  0.86589  0.83768  0.46843  1.0000
  C   C4086     1.0  0.89030  0.83113  0.47038  1.0000
  C   C4087     1.0  0.87515  0.83888  0.45781  1.0000
  C   C4088     1.0  0.88742  0.83567  0.45883  1.0000
  C   C4089     1.0  0.85905  0.83213  0.49084  1.0000
  H   H4080     1.0  0.88312  0.82646  0.48977  1.0000
  H   H4081     1.0  0.85637  0.84074  0.46756  1.0000
  H   H4082     1.0  0.89980  0.82905  0.47127  1.0000
  H   H4083     1.0  0.87281  0.84291  0.44890  1.0000
  H   H4084     1.0  0.89465  0.83725  0.45074  1.0000
  H   H4085     1.0  0.85013  0.83229  0.48882  1.0000
  H   H4086     1.0  0.86149  0.82341  0.49750  1.0000
  H   H4087     1.0  0.85786  0.83989  0.49530  1.0000
  N   N342      1.0  0.65075  0.87440  0.47813  1.0000
  C   C4090     1.0  0.65183  0.86309  0.48588  1.0000
  C   C4091     1.0  0.64854  0.87589  0.46673  1.0000
  C   C4092     1.0  0.65059  0.85291  0.48230  1.0000
  C   C4093     1.0  0.64724  0.86590  0.46287  1.0000
  C   C4094     1.0  0.64822  0.85437  0.47075  1.0000
  C   C4095     1.0  0.65181  0.88510  0.48200  1.0000
  H   H4088     1.0  0.65320  0.86196  0.49506  1.0000
  H   H4089     1.0  0.64750  0.88488  0.46066  1.0000
  H   H4090     1.0  0.65090  0.84407  0.48865  1.0000
  H   H4091     1.0  0.64517  0.86715  0.45395  1.0000
  H   H4092     1.0  0.64672  0.84665  0.46810  1.0000
  H   H4093     1.0  0.65996  0.88870  0.47617  1.0000
  H   H4094     1.0  0.64336  0.89242  0.48139  1.0000
  H   H4095     1.0  0.65269  0.88284  0.49173  1.0000
  H   H4096     1.0  0.65970  0.81414  0.41703  1.0000
  H   H4097     1.0  0.83735  0.85276  0.38980  1.0000
  C   C4096     1.0  0.59475  0.88945  0.41401  1.0000
  H   H4098     1.0  0.88606  0.89843  0.55788  1.0000
  H   H4099     1.0  0.93983  0.79958  0.57666  1.0000
  C   C4097     1.0  0.93574  0.83028  0.53484  1.0000
  H   H4100     1.0  0.86376  0.51793  0.58009  1.0000
  H   H4101     1.0  0.81929  0.86398  0.40273  1.0000
  H   H4102     1.0  0.72201  0.86128  0.39960  1.0000
  H   H4103     1.0  0.91684  0.81263  0.56369  1.0000
  C   C4098     1.0  0.67029  0.93535  0.56386  1.0000
  C   C4099     1.0  0.79536  0.89116  0.54485  1.0000
  H   H4104     1.0  0.83564  0.82375  0.56440  1.0000
  H   H4105     1.0  0.62998  0.88445  0.40279  1.0000
  Fe  Fe688     1.0  0.83947  0.87230  0.58194  1.0000
  N   N343      1.0  0.60015  0.88642  0.40287  1.0000
  C   C4100     1.0  0.61265  0.88458  0.39885  1.0000
  C   C4101     1.0  0.92892  0.82253  0.53353  1.0000
  H   H4106     1.0  0.88232  0.81849  0.55856  1.0000
  H   H4107     1.0  0.62768  0.84013  0.38840  1.0000
  C   C4102     1.0  0.88205  0.83602  0.58017  1.0000
  C   C4103     1.0  0.77874  0.90526  0.55408  1.0000
  H   H4108     1.0  0.86922  0.85334  0.57713  1.0000
  H   H4109     1.0  0.80190  0.94567  0.39318  1.0000
  C   C4104     1.0  0.77535  0.89510  0.53951  1.0000
  H   H4110     1.0  0.57909  0.78541  0.38918  1.0000
  H   H4111     1.0  0.84385  0.75230  0.58157  1.0000
  C   C4105     1.0  0.92196  0.81772  0.55551  1.0000
  C   C4106     1.0  0.69512  0.87207  0.38980  1.0000
  C   C4107     1.0  0.87210  0.49247  0.56843  1.0000
  S   S1372     1.0  0.63233  0.77237  0.38722  1.0000
  H   H4112     1.0  0.88230  0.87678  0.56860  1.0000
  C   C4108     1.0  0.62462  0.89205  0.57892  1.0000
  S   S1373     1.0  0.92672  0.87526  0.58266  1.0000
  H   H4113     1.0  0.55974  0.84054  0.42988  1.0000
  H   H4114     1.0  0.74146  0.86756  0.57993  1.0000
  H   H4115     1.0  0.66719  0.82542  0.40537  1.0000
  H   H4116     1.0  0.62581  0.89667  0.56941  1.0000
  H   H4117     1.0  0.61698  0.88196  0.39013  1.0000
  H   H4118     1.0  0.78239  0.91287  0.56755  1.0000
  Fe  Fe689     1.0  0.86711  0.89370  0.38869  1.0000
  C   C4109     1.0  0.63498  0.83237  0.39071  1.0000
  H   H4119     1.0  0.77860  0.87487  0.56543  1.0000
  C   C4110     1.0  0.70538  0.88832  0.38656  1.0000
  C   C4111     1.0  0.63733  0.82189  0.38593  1.0000
  C   C4112     1.0  0.56769  0.83460  0.43326  1.0000
  C   C4113     1.0  0.82846  0.85562  0.38722  1.0000
  H   H4120     1.0  0.84661  0.51360  0.57584  1.0000
  H   H4121     1.0  0.88234  0.83859  0.54373  1.0000
  C   C4114     1.0  0.64948  0.93315  0.57534  1.0000
  C   C4115     1.0  0.87417  0.83472  0.54675  1.0000
  N   N344      1.0  0.85351  0.82444  0.55371  1.0000
  C   C4116     1.0  0.88352  0.88803  0.53407  1.0000
  H   H4122     1.0  0.83839  0.82056  0.54934  1.0000
  S   S1374     1.0  0.88746  0.79324  0.57490  1.0000
  H   H4123     1.0  0.66092  0.80493  0.39936  1.0000
  H   H4124     1.0  0.85633  0.76012  0.57816  1.0000
  C   C4117     1.0  0.57149  0.83712  0.44261  1.0000
  H   H4125     1.0  0.59754  0.89293  0.43036  1.0000
  N   N345      1.0  0.58843  0.81977  0.44144  1.0000
  H   H4126     1.0  0.91276  0.89168  0.52532  1.0000
  C   C4118     1.0  0.86367  0.84089  0.54214  1.0000
  N   N346      1.0  0.78337  0.89742  0.54615  1.0000
  H   H4127     1.0  0.92894  0.82153  0.52447  1.0000
  C   C4119     1.0  0.85242  0.50541  0.57284  1.0000
  H   H4128     1.0  0.59974  0.89150  0.56316  1.0000
  C   C4120     1.0  0.65930  0.86624  0.57186  1.0000
  H   H4129     1.0  0.72285  0.88340  0.39200  1.0000
  C   C4121     1.0  0.60196  0.92761  0.57135  1.0000
  C   C4122     1.0  0.84691  0.49725  0.57025  1.0000
  C   C4123     1.0  0.84042  0.93269  0.39977  1.0000
  S   S1375     1.0  0.65404  0.96329  0.54745  1.0000
  C   C4124     1.0  0.59907  0.81176  0.44616  1.0000
  Fe  Fe690     1.0  0.73355  0.89514  0.57401  1.0000
  H   H4130     1.0  0.90476  0.71550  0.57015  1.0000
  H   H4131     1.0  0.88432  0.73893  0.57976  1.0000
  S   S1376     1.0  0.82290  0.90770  0.38787  1.0000
  N   N347      1.0  0.93556  0.83177  0.54622  1.0000
  H   H4132     1.0  0.84704  0.92524  0.40389  1.0000
  H   H4133     1.0  0.82737  0.92151  0.40245  1.0000
  H   H4134     1.0  0.67936  0.93239  0.56654  1.0000
  S   S1377     1.0  0.88739  0.76618  0.57032  1.0000
  C   C4125     1.0  0.58192  0.82954  0.44664  1.0000
  C   C4126     1.0  0.92216  0.81606  0.54397  1.0000
  C   C4127     1.0  0.92863  0.82578  0.55644  1.0000
  H   H4135     1.0  0.58482  0.83157  0.45391  1.0000
  S   S1378     1.0  0.85615  0.88094  0.57607  1.0000
  H   H4136     1.0  0.86349  0.84966  0.53568  1.0000
  H   H4137     1.0  0.87087  0.89166  0.55087  1.0000
  C   C4128     1.0  0.81833  0.86189  0.39447  1.0000
  H   H4138     1.0  0.92837  0.82712  0.56540  1.0000
  H   H4139     1.0  0.89898  0.87020  0.58001  1.0000
  H   H4140     1.0  0.83674  0.96284  0.38572  1.0000
  H   H4141     1.0  0.62021  0.89023  0.42294  1.0000
  H   H4142     1.0  0.58488  0.89051  0.41741  1.0000
  C   C4129     1.0  0.84308  0.94434  0.39507  1.0000
  S   S1379     1.0  0.92063  0.85076  0.57800  1.0000
  H   H4143     1.0  0.59625  0.88755  0.38556  1.0000
  C   C4130     1.0  0.59102  0.76209  0.39049  1.0000
  C   C4131     1.0  0.87056  0.51168  0.57446  1.0000
  C   C4132     1.0  0.77614  0.87942  0.57304  1.0000
  C   C4133     1.0  0.80310  0.89278  0.55147  1.0000
  C   C4134     1.0  0.88006  0.87455  0.57847  1.0000
  C   C4135     1.0  0.59415  0.89191  0.58237  1.0000
  H   H4144     1.0  0.68741  0.86880  0.38912  1.0000
  H   H4145     1.0  0.60371  0.91259  0.55688  1.0000
  H   H4146     1.0  0.64609  0.94277  0.57172  1.0000
  C   C4136     1.0  0.71496  0.88016  0.39168  1.0000
  C   C4137     1.0  0.66574  0.91554  0.57596  1.0000
  S   S1380     1.0  0.84322  0.85405  0.57696  1.0000
  H   H4147     1.0  0.66696  0.94521  0.56421  1.0000
  H   H4148     1.0  0.74976  0.85178  0.58152  1.0000
  S   S1381     1.0  0.82298  0.87999  0.57330  1.0000
  H   H4149     1.0  0.87351  0.72336  0.57876  1.0000
  C   C4138     1.0  0.67042  0.87013  0.56785  1.0000
  C   C4139     1.0  0.76425  0.88650  0.57597  1.0000
  H   H4150     1.0  0.59690  0.93356  0.57799  1.0000
  H   H4151     1.0  0.59991  0.93251  0.56222  1.0000
  C   C4140     1.0  0.67620  0.87157  0.57637  1.0000
  H   H4152     1.0  0.87785  0.50680  0.57972  1.0000
  H   H4153     1.0  0.68495  0.87445  0.57330  1.0000
  H   H4154     1.0  0.88196  0.49048  0.56774  1.0000
  H   H4155     1.0  0.67527  0.91126  0.57286  1.0000
  H   H4156     1.0  0.67909  0.95316  0.58075  1.0000
  S   S1382     1.0  0.85520  0.78635  0.58178  1.0000
  C   C4141     1.0  0.62432  0.87957  0.58231  1.0000
  S   S1383     1.0  0.65008  0.96132  0.58149  1.0000
  H   H4157     1.0  0.70595  0.89789  0.38307  1.0000
  H   H4158     1.0  0.81104  0.93579  0.38285  1.0000
  C   C4142     1.0  0.90871  0.88138  0.61596  1.0000
  S   S1384     1.0  0.70849  0.86535  0.59900  1.0000
  H   H4159     1.0  0.86578  0.49236  0.60399  1.0000
  C   C4143     1.0  0.66718  0.91764  0.60857  1.0000
  H   H4160     1.0  0.89231  0.63715  0.65126  1.0000
  S   S1385     1.0  0.61732  0.96279  0.60089  1.0000
  H   H4161     1.0  0.85780  0.51849  0.63878  1.0000
  Fe  Fe691     1.0  0.64417  0.87819  0.63897  1.0000
  S   S1386     1.0  0.62426  0.87784  0.64177  1.0000
  S   S1387     1.0  0.65808  0.86089  0.63645  1.0000
  Fe  Fe692     1.0  0.63872  0.90495  0.63972  1.0000
  S   S1388     1.0  0.61836  0.90687  0.64274  1.0000
  S   S1389     1.0  0.64623  0.92167  0.63709  1.0000
  Fe  Fe693     1.0  0.62140  0.88886  0.65609  1.0000
  S   S1390     1.0  0.60877  0.88462  0.67469  1.0000
  Fe  Fe694     1.0  0.62332  0.89583  0.62814  1.0000
  S   S1391     1.0  0.61529  0.90265  0.61117  1.0000
  S   S1392     1.0  0.64150  0.88777  0.65425  1.0000
  S   S1393     1.0  0.64349  0.89523  0.62424  1.0000
  C   C4144     1.0  0.67065  0.86916  0.58886  1.0000
  S   S1394     1.0  0.88295  0.77053  0.59845  1.0000
  C   C4145     1.0  0.73999  0.86320  0.60678  1.0000
  H   H4162     1.0  0.73437  0.85538  0.59017  1.0000
  H   H4163     1.0  0.58724  0.94298  0.77833  1.0000
  S   S1395     1.0  0.89922  0.79443  0.60229  1.0000
  H   H4164     1.0  0.88612  0.61886  0.61574  1.0000
  S   S1396     1.0  0.92019  0.56390  0.59856  1.0000
  H   H4165     1.0  0.63090  0.82330  0.78080  1.0000
  C   C4146     1.0  0.85675  0.52607  0.60837  1.0000
  H   H4166     1.0  0.77473  0.86131  0.60240  1.0000
  S   S1397     1.0  0.89877  0.86242  0.60596  1.0000
  N   N348      1.0  0.74794  0.86023  0.59638  1.0000
  H   H4167     1.0  0.98544  0.60247  0.64968  1.0000
  C   C4147     1.0  0.85724  0.80033  0.59645  1.0000
  C   C4148     1.0  0.92211  0.71001  0.59046  1.0000
  S   S1398     1.0  0.93494  0.84828  0.60024  1.0000
  C   C4149     1.0  0.65776  0.90834  0.58417  1.0000
  H   H4168     1.0  0.51974  0.89288  0.78138  1.0000
  Fe  Fe695     1.0  0.71276  0.90965  0.59021  1.0000
  C   C4150     1.0  0.59478  0.91070  0.58731  1.0000
  C   C4151     1.0  0.92098  0.54004  0.67066  1.0000
  Fe  Fe696     1.0  0.83087  0.84878  0.59510  1.0000
  S   S1399     1.0  0.83814  0.83147  0.60757  1.0000
  S   S1400     1.0  0.82802  0.86666  0.60066  1.0000
  H   H4169     1.0  0.66029  0.94859  0.60591  1.0000
  C   C4152     1.0  0.86673  0.61061  0.59763  1.0000
  Fe  Fe697     1.0  0.71183  0.88408  0.58934  1.0000
  S   S1401     1.0  0.81388  0.85379  0.58743  1.0000
  H   H4170     1.0  0.92443  0.53610  0.68887  1.0000
  H   H4171     1.0  0.84450  0.50637  0.63579  1.0000
  Fe  Fe698     1.0  0.90469  0.59279  0.69767  1.0000
  S   S1402     1.0  0.89702  0.60535  0.68194  1.0000
  S   S1403     1.0  0.92324  0.58113  0.69212  1.0000
  Fe  Fe699     1.0  0.88169  0.59930  0.71655  1.0000
  S   S1404     1.0  0.87185  0.61209  0.70226  1.0000
  S   S1405     1.0  0.87033  0.59688  0.73601  1.0000
  Fe  Fe700     1.0  0.88009  0.59790  0.69084  1.0000
  S   S1406     1.0  0.87039  0.59604  0.67720  1.0000
  Fe  Fe701     1.0  0.88947  0.61862  0.69429  1.0000
  S   S1407     1.0  0.88926  0.63858  0.68588  1.0000
  S   S1408     1.0  0.88822  0.58418  0.70587  1.0000
  S   S1409     1.0  0.89892  0.60689  0.70940  1.0000
  Fe  Fe702     1.0  0.98697  0.59518  0.61703  1.0000
  N   N349      1.0  0.67733  0.92351  0.62102  1.0000
  Fe  Fe703     1.0  0.96456  0.60481  0.63526  1.0000
  S   S1410     1.0  0.95127  0.60179  0.62605  1.0000
  S   S1411     1.0  0.95730  0.61339  0.65167  1.0000
  Fe  Fe704     1.0  0.96417  0.58373  0.62467  1.0000
  H   H4172     1.0  0.91425  0.85684  0.62396  1.0000
  Fe  Fe705     1.0  0.96358  0.60911  0.60866  1.0000
  H   H4173     1.0  0.62044  0.83317  0.76339  1.0000
  S   S1412     1.0  0.97678  0.58618  0.63526  1.0000
  S   S1413     1.0  0.97565  0.61405  0.61795  1.0000
  Fe  Fe706     1.0  0.87659  0.67984  0.60447  1.0000
  S   S1414     1.0  0.88020  0.67618  0.62335  1.0000
  C   C4153     1.0  0.98099  0.90743  0.60479  1.0000
  Fe  Fe707     1.0  0.88236  0.65225  0.60428  1.0000
  S   S1415     1.0  0.88679  0.64664  0.62286  1.0000
  C   C4154     1.0  0.90094  0.59509  0.59226  1.0000
  Fe  Fe708     1.0  0.87007  0.66099  0.62771  1.0000
  S   S1416     1.0  0.85737  0.65520  0.64544  1.0000
  Fe  Fe709     1.0  0.89648  0.66231  0.61655  1.0000
  S   S1417     1.0  0.91440  0.66033  0.62157  1.0000
  S   S1418     1.0  0.86482  0.66571  0.60945  1.0000
  H   H4174     1.0  0.98024  0.88203  0.58708  1.0000
  Fe  Fe710     1.0  0.88246  0.54323  0.61570  1.0000
  S   S1419     1.0  0.89985  0.54045  0.62257  1.0000
  H   H4175     1.0  0.83880  0.52585  0.60616  1.0000
  Fe  Fe711     1.0  0.87590  0.57064  0.61684  1.0000
  S   S1420     1.0  0.89247  0.56964  0.62371  1.0000
  C   C4155     1.0  0.59659  0.92398  0.77893  1.0000
  H   H4176     1.0  0.90021  0.87827  0.62053  1.0000
  C   C4156     1.0  0.69948  0.93688  0.59889  1.0000
  Fe  Fe712     1.0  0.88828  0.55203  0.63593  1.0000
  S   S1421     1.0  0.89079  0.54809  0.65534  1.0000
  H   H4177     1.0  0.92407  0.68325  0.61191  1.0000
  S   S1422     1.0  0.87068  0.55366  0.63023  1.0000
  H   H4178     1.0  0.90559  0.57845  0.65373  1.0000
  C   C4157     1.0  0.86572  0.84360  0.59601  1.0000
  Fe  Fe713     1.0  0.59786  0.87627  0.75688  1.0000
  S   S1423     1.0  0.58783  0.88818  0.74246  1.0000
  S   S1424     1.0  0.60308  0.85593  0.75859  1.0000
  Fe  Fe714     1.0  0.60086  0.89767  0.76534  1.0000
  S   S1425     1.0  0.59143  0.91173  0.75129  1.0000
  S   S1426     1.0  0.97558  0.59080  0.60631  1.0000
  Fe  Fe715     1.0  0.57798  0.89931  0.75673  1.0000
  C   C4158     1.0  0.87375  0.50370  0.63822  1.0000
  Fe  Fe716     1.0  0.60212  0.89941  0.73809  1.0000
  S   S1427     1.0  0.61254  0.90550  0.71870  1.0000
  S   S1428     1.0  0.58656  0.88616  0.77167  1.0000
  S   S1429     1.0  0.61292  0.88660  0.75170  1.0000
  S   S1430     1.0  0.69815  0.90193  0.58738  1.0000
  N   N350      1.0  0.91637  0.56141  0.66101  1.0000
  H   H4179     1.0  0.65921  0.85450  0.61067  1.0000
  H   H4180     1.0  0.87972  0.50916  0.63905  1.0000
  S   S1431     1.0  0.83986  0.50189  0.60236  1.0000
  C   C4159     1.0  0.91630  0.68709  0.59600  1.0000
  H   H4181     1.0  0.97346  0.89665  0.62216  1.0000
  H   H4182     1.0  0.89580  0.58911  0.60001  1.0000
  H   H4183     1.0  0.92031  0.64811  0.64768  1.0000
  C   C4160     1.0  0.92496  0.70149  0.60097  1.0000
  N   N351      1.0  0.91632  0.70718  0.58302  1.0000
  H   H4184     1.0  0.62165  0.86428  0.59752  1.0000
  C   C4161     1.0  0.97917  0.90334  0.61748  1.0000
  C   C4162     1.0  0.74433  0.86563  0.61587  1.0000
  C   C4163     1.0  0.94543  0.56657  0.62177  1.0000
  C   C4164     1.0  0.87660  0.60538  0.61484  1.0000
  C   C4165     1.0  0.88064  0.61661  0.61073  1.0000
  H   H4185     1.0  0.87867  0.59916  0.62320  1.0000
  H   H4186     1.0  0.92889  0.61605  0.60684  1.0000
  C   C4166     1.0  0.90079  0.63028  0.65069  1.0000
  C   C4167     1.0  0.78193  0.88427  0.58958  1.0000
  C   C4168     1.0  0.92875  0.55848  0.61980  1.0000
  C   C4169     1.0  0.93655  0.55933  0.62686  1.0000
  H   H4187     1.0  0.92184  0.55297  0.62383  1.0000
  H   H4188     1.0  0.93573  0.55435  0.63628  1.0000
  C   C4170     1.0  0.94429  0.63387  0.60121  1.0000
  C   C4171     1.0  0.94481  0.63487  0.61282  1.0000
  C   C4172     1.0  0.93578  0.64325  0.61890  1.0000
  C   C4173     1.0  0.92597  0.65037  0.61356  1.0000
  C   C4174     1.0  0.92541  0.64937  0.60196  1.0000
  H   H4189     1.0  0.65397  0.87078  0.60998  1.0000
  H   H4190     1.0  0.95218  0.62922  0.61717  1.0000
  H   H4191     1.0  0.93630  0.64403  0.62784  1.0000
  H   H4192     1.0  0.91795  0.65491  0.59771  1.0000
  C   C4175     1.0  0.93284  0.59008  0.68110  1.0000
  C   C4176     1.0  0.93141  0.60250  0.68107  1.0000
  C   C4177     1.0  0.93924  0.60954  0.67227  1.0000
  C   C4178     1.0  0.94819  0.60429  0.66322  1.0000
  C   C4179     1.0  0.94940  0.59196  0.66309  1.0000
  C   C4180     1.0  0.94188  0.58481  0.67214  1.0000
  H   H4193     1.0  0.92442  0.60660  0.68798  1.0000
  H   H4194     1.0  0.93822  0.61909  0.67238  1.0000
  H   H4195     1.0  0.95621  0.58785  0.65610  1.0000
  H   H4196     1.0  0.94298  0.57522  0.67210  1.0000
  C   C4181     1.0  0.87643  0.58265  0.67126  1.0000
  C   C4182     1.0  0.87411  0.58250  0.66006  1.0000
  C   C4183     1.0  0.87833  0.57185  0.65529  1.0000
  C   C4184     1.0  0.88502  0.56127  0.66163  1.0000
  C   C4185     1.0  0.88744  0.56140  0.67283  1.0000
  C   C4186     1.0  0.88326  0.57213  0.67759  1.0000
  H   H4197     1.0  0.86908  0.59063  0.65503  1.0000
  H   H4198     1.0  0.87619  0.57179  0.64678  1.0000
  H   H4199     1.0  0.89251  0.55320  0.67784  1.0000
  H   H4200     1.0  0.88503  0.57214  0.68628  1.0000
  C   C4187     1.0  0.88011  0.64349  0.67487  1.0000
  C   C4188     1.0  0.87298  0.63585  0.67392  1.0000
  C   C4189     1.0  0.86557  0.63973  0.66526  1.0000
  C   C4190     1.0  0.86569  0.65106  0.65706  1.0000
  C   C4191     1.0  0.87301  0.65865  0.65778  1.0000
  C   C4192     1.0  0.88001  0.65498  0.66686  1.0000
  H   H4201     1.0  0.87326  0.62685  0.67971  1.0000
  H   H4202     1.0  0.86004  0.63376  0.66472  1.0000
  H   H4203     1.0  0.87313  0.66742  0.65144  1.0000
  H   H4204     1.0  0.88552  0.66093  0.66751  1.0000
  C   C4193     1.0  0.87220  0.60292  0.74774  1.0000
  C   C4194     1.0  0.86430  0.60091  0.75930  1.0000
  C   C4195     1.0  0.86502  0.60601  0.76876  1.0000
  C   C4196     1.0  0.87362  0.61325  0.76672  1.0000
  C   C4197     1.0  0.88153  0.61532  0.75514  1.0000
  C   C4198     1.0  0.88085  0.61015  0.74568  1.0000
  H   H4205     1.0  0.85757  0.59536  0.76097  1.0000
  H   H4206     1.0  0.64426  0.86234  0.60757  1.0000
  H   H4207     1.0  0.88827  0.62085  0.75352  1.0000
  H   H4208     1.0  0.88702  0.61171  0.73682  1.0000
  H   H4209     1.0  0.75201  0.89781  0.58817  1.0000
  C   C4199     1.0  0.67198  0.93557  0.61733  1.0000
  H   H4210     1.0  0.67884  0.90497  0.62011  1.0000
  C   C4200     1.0  0.86544  0.74507  0.61127  1.0000
  H   H4211     1.0  0.84920  0.64551  0.62687  1.0000
  H   H4212     1.0  0.90423  0.61824  0.58409  1.0000
  C   C4201     1.0  0.96829  0.87129  0.60080  1.0000
  C   C4202     1.0  0.96594  0.86517  0.61312  1.0000
  C   C4203     1.0  0.97303  0.86564  0.62118  1.0000
  C   C4204     1.0  0.98287  0.87182  0.61699  1.0000
  C   C4205     1.0  0.98558  0.87745  0.60455  1.0000
  C   C4206     1.0  0.97820  0.87738  0.59660  1.0000
  H   H4213     1.0  0.95860  0.86017  0.61653  1.0000
  H   H4214     1.0  0.97090  0.86114  0.63074  1.0000
  Fe  Fe717     1.0  0.90255  0.55836  0.60980  1.0000
  C   C4207     1.0  0.92225  0.54319  0.68101  1.0000
  C   C4208     1.0  0.88685  0.86732  0.59775  1.0000
  C   C4209     1.0  0.87452  0.86808  0.60403  1.0000
  C   C4210     1.0  0.86498  0.87215  0.59750  1.0000
  C   C4211     1.0  0.91909  0.89682  0.60180  1.0000
  C   C4212     1.0  0.88557  0.82552  0.58882  1.0000
  H   H4215     1.0  0.76654  0.85752  0.58638  1.0000
  H   H4216     1.0  0.87235  0.86563  0.61394  1.0000
  H   H4217     1.0  0.85549  0.87292  0.60239  1.0000
  C   C4213     1.0  0.91776  0.56458  0.67105  1.0000
  Fe  Fe718     1.0  0.81185  0.87228  0.59141  1.0000
  H   H4218     1.0  0.92687  0.59448  0.61656  1.0000
  Fe  Fe719     1.0  0.89634  0.78304  0.59069  1.0000
  C   C4214     1.0  0.84255  0.81888  0.60054  1.0000
  Fe  Fe720     1.0  0.65742  0.97639  0.58376  1.0000
  Fe  Fe721     1.0  0.91775  0.85962  0.59377  1.0000
  C   C4215     1.0  0.91322  0.57107  0.65052  1.0000
  H   H4219     1.0  0.84106  0.66054  0.77927  1.0000
  H   H4220     1.0  0.94020  0.57632  0.59278  1.0000
  C   C4216     1.0  0.92290  0.61193  0.60413  1.0000
  C   C4217     1.0  0.91210  0.80132  0.59675  1.0000
  C   C4218     1.0  0.91222  0.81144  0.60118  1.0000
  C   C4219     1.0  0.92207  0.81751  0.59652  1.0000
  C   C4220     1.0  0.68363  0.95996  0.59424  1.0000
  C   C4221     1.0  0.66194  0.92996  0.60453  1.0000
  Fe  Fe722     1.0  0.93848  0.84072  0.58333  1.0000
  H   H4221     1.0  0.90464  0.81468  0.60817  1.0000
  H   H4222     1.0  0.92200  0.82541  0.59987  1.0000
  C   C4222     1.0  0.86141  0.50895  0.63808  1.0000
  H   H4223     1.0  0.67365  0.94264  0.62083  1.0000
  H   H4224     1.0  0.82687  0.82382  0.59216  1.0000
  H   H4225     1.0  0.84621  0.59588  0.65450  1.0000
  H   H4226     1.0  0.85415  0.53543  0.60965  1.0000
  H   H4227     1.0  0.90992  0.56747  0.64426  1.0000
  N   N352      1.0  0.99442  0.91985  0.60545  1.0000
  C   C4223     1.0  0.91643  0.61862  0.59501  1.0000
  C   C4224     1.0  0.89200  0.72763  0.59510  1.0000
  C   C4225     1.0  0.85397  0.50207  0.63631  1.0000
  H   H4228     1.0  0.53828  0.92631  0.77190  1.0000
  S   S1432     1.0  0.99078  0.87314  0.62779  1.0000
  C   C4226     1.0  0.60897  0.89169  0.68639  1.0000
  C   C4227     1.0  0.60116  0.88907  0.69791  1.0000
  C   C4228     1.0  0.60186  0.89361  0.70776  1.0000
  C   C4229     1.0  0.61041  0.90080  0.70619  1.0000
  C   C4230     1.0  0.61796  0.90374  0.69455  1.0000
  C   C4231     1.0  0.61724  0.89922  0.68467  1.0000
  H   H4229     1.0  0.59465  0.88336  0.69927  1.0000
  H   H4230     1.0  0.59585  0.89144  0.71657  1.0000
  H   H4231     1.0  0.62454  0.90938  0.69321  1.0000
  H   H4232     1.0  0.62324  0.90138  0.67580  1.0000
  C   C4232     1.0  0.62003  0.89330  0.60034  1.0000
  C   C4233     1.0  0.62006  0.88073  0.60382  1.0000
  C   C4234     1.0  0.62205  0.87390  0.59480  1.0000
  C   C4235     1.0  0.89281  0.71627  0.60343  1.0000
  H   H4233     1.0  0.86122  0.60845  0.59258  1.0000
  S   S1433     1.0  0.87446  0.61995  0.77846  1.0000
  H   H4234     1.0  0.61796  0.87641  0.61345  1.0000
  C   C4236     1.0  0.86775  0.87543  0.58468  1.0000
  H   H4235     1.0  0.76756  0.89575  0.60025  1.0000
  H   H4236     1.0  0.60158  0.86338  0.78094  1.0000
  C   C4237     1.0  0.62484  0.95159  0.61145  1.0000
  C   C4238     1.0  0.63208  0.95473  0.61760  1.0000
  C   C4239     1.0  0.63838  0.94560  0.62581  1.0000
  C   C4240     1.0  0.63785  0.93329  0.62742  1.0000
  C   C4241     1.0  0.63092  0.93020  0.62092  1.0000
  C   C4242     1.0  0.62422  0.93934  0.61314  1.0000
  H   H4237     1.0  0.63271  0.96420  0.61616  1.0000
  H   H4238     1.0  0.64381  0.94801  0.63075  1.0000
  H   H4239     1.0  0.63074  0.92075  0.62175  1.0000
  H   H4240     1.0  0.61876  0.93687  0.60827  1.0000
  S   S1434     1.0  0.67322  0.97420  0.59249  1.0000
  S   S1435     1.0  0.60874  0.89973  0.78033  1.0000
  C   C4243     1.0  0.69451  0.86462  0.60958  1.0000
  C   C4244     1.0  0.69148  0.85313  0.61472  1.0000
  C   C4245     1.0  0.68034  0.85214  0.62307  1.0000
  C   C4246     1.0  0.67213  0.86263  0.62632  1.0000
  C   C4247     1.0  0.67512  0.87419  0.62121  1.0000
  C   C4248     1.0  0.68634  0.87519  0.61283  1.0000
  H   H4241     1.0  0.69777  0.84495  0.61225  1.0000
  H   H4242     1.0  0.67807  0.84319  0.62701  1.0000
  H   H4243     1.0  0.66890  0.88229  0.62388  1.0000
  H   H4244     1.0  0.68873  0.88406  0.60901  1.0000
  C   C4249     1.0  0.86010  0.75283  0.60168  1.0000
  C   C4250     1.0  0.66441  0.93899  0.60886  1.0000
  C   C4251     1.0  0.93014  0.56449  0.60746  1.0000
  C   C4252     1.0  0.65407  0.86384  0.58440  1.0000
  H   H4245     1.0  0.55762  0.93281  0.76047  1.0000
  S   S1436     1.0  0.86306  0.58923  0.61374  1.0000
  H   H4246     1.0  0.89824  0.71421  0.61030  1.0000
  H   H4247     1.0  0.69318  0.93267  0.58487  1.0000
  C   C4253     1.0  0.86961  0.60237  0.60825  1.0000
  S   S1437     1.0  0.79287  0.88300  0.59817  1.0000
  H   H4248     1.0  0.67935  0.91813  0.63943  1.0000
  C   C4254     1.0  0.68509  0.92007  0.63004  1.0000
  C   C4255     1.0  0.98881  0.91562  0.59886  1.0000
  C   C4256     1.0  0.91140  0.60949  0.64949  1.0000
  S   S1438     1.0  0.72559  0.89139  0.59415  1.0000
  H   H4249     1.0  0.89189  0.61613  0.65048  1.0000
  H   H4250     1.0  0.65564  0.93253  0.59840  1.0000
  H   H4251     1.0  0.91131  0.60020  0.64929  1.0000
  C   C4257     1.0  0.75690  0.86492  0.61431  1.0000
  N   N353      1.0  0.91155  0.63315  0.65068  1.0000
  N   N354      1.0  0.56377  0.86220  0.77763  1.0000
  C   C4258     1.0  0.90053  0.61842  0.65012  1.0000
  C   C4259     1.0  0.92225  0.62445  0.65005  1.0000
  N   N355      1.0  0.65962  0.86554  0.59270  1.0000
  H   H4252     1.0  0.56610  0.87864  0.76453  1.0000
  S   S1439     1.0  0.90078  0.73782  0.59545  1.0000
  C   C4260     1.0  0.69257  0.93957  0.58986  1.0000
  H   H4253     1.0  0.73018  0.86395  0.60797  1.0000
  C   C4261     1.0  0.61853  0.83760  0.77103  1.0000
  C   C4262     1.0  0.76495  0.86172  0.60376  1.0000
  H   H4254     1.0  0.85670  0.71904  0.61181  1.0000
  C   C4263     1.0  0.93209  0.81318  0.58776  1.0000
  C   C4264     1.0  0.98514  0.90746  0.62410  1.0000
  H   H4255     1.0  0.89407  0.60184  0.58736  1.0000
  C   C4265     1.0  0.55531  0.93129  0.77042  1.0000
  C   C4266     1.0  0.56648  0.86886  0.76485  1.0000
  C   C4267     1.0  0.91351  0.69585  0.58561  1.0000
  C   C4268     1.0  0.87846  0.49160  0.63684  1.0000
  N   N356      1.0  0.86941  0.83341  0.60450  1.0000
  C   C4269     1.0  0.65399  0.86315  0.60583  1.0000
  C   C4270     1.0  0.87918  0.82441  0.60104  1.0000
  H   H4256     1.0  0.92202  0.78930  0.58438  1.0000
  H   H4257     1.0  0.57574  0.86486  0.75988  1.0000
  C   C4271     1.0  0.90819  0.89284  0.60787  1.0000
  C   C4272     1.0  0.86335  0.83236  0.61748  1.0000
  H   H4258     1.0  0.91714  0.62806  0.59077  1.0000
  C   C4273     1.0  0.88956  0.87059  0.58495  1.0000
  H   H4259     1.0  0.92209  0.53049  0.67040  1.0000
  H   H4260     1.0  0.91641  0.86312  0.63577  1.0000
  C   C4274     1.0  0.92001  0.86195  0.62617  1.0000
  H   H4261     1.0  0.86923  0.83443  0.62252  1.0000
  H   H4262     1.0  0.85425  0.83879  0.61872  1.0000
  H   H4263     1.0  0.86160  0.82297  0.62157  1.0000
  C   C4275     1.0  0.76114  0.89228  0.58588  1.0000
  C   C4276     1.0  0.85338  0.81029  0.60224  1.0000
  H   H4264     1.0  0.67526  0.87011  0.59548  1.0000
  H   H4265     1.0  0.53355  0.90228  0.76298  1.0000
  H   H4266     1.0  0.85887  0.81137  0.60793  1.0000
  H   H4267     1.0  0.86576  0.79393  0.59763  1.0000
  C   C4277     1.0  0.74316  0.85864  0.58652  1.0000
  C   C4278     1.0  0.54819  0.89966  0.77227  1.0000
  C   C4279     1.0  0.99273  0.91582  0.61791  1.0000
  C   C4280     1.0  0.87105  0.62156  0.59336  1.0000
  H   H4268     1.0  0.55966  0.86850  0.75984  1.0000
  C   C4281     1.0  0.68456  0.95113  0.58757  1.0000
  H   H4269     1.0  0.97666  0.90396  0.59956  1.0000
  H   H4270     1.0  0.85889  0.60431  0.77763  1.0000
  H   H4271     1.0  0.76041  0.86700  0.62116  1.0000
  N   N357      1.0  0.62298  0.86883  0.71342  1.0000
  C   C4282     1.0  0.63209  0.87519  0.70747  1.0000
  C   C4283     1.0  0.61932  0.86212  0.70747  1.0000
  C   C4284     1.0  0.63761  0.87516  0.69514  1.0000
  C   C4285     1.0  0.62458  0.86196  0.69512  1.0000
  C   C4286     1.0  0.63375  0.86855  0.68893  1.0000
  C   C4287     1.0  0.61729  0.86904  0.72633  1.0000
  H   H4272     1.0  0.63477  0.88076  0.71210  1.0000
  H   H4273     1.0  0.61202  0.85719  0.71213  1.0000
  H   H4274     1.0  0.64442  0.88065  0.69028  1.0000
  H   H4275     1.0  0.62121  0.85722  0.69020  1.0000
  H   H4276     1.0  0.63752  0.86890  0.67922  1.0000
  H   H4277     1.0  0.60776  0.86747  0.72874  1.0000
  H   H4278     1.0  0.62279  0.86186  0.73241  1.0000
  H   H4279     1.0  0.61659  0.87817  0.72820  1.0000
  H   H4280     1.0  0.89326  0.81832  0.58614  1.0000
  C   C4288     1.0  0.92235  0.61252  0.64938  1.0000
  C   C4289     1.0  0.83535  0.81728  0.59333  1.0000
  H   H4281     1.0  0.86460  0.63745  0.62145  1.0000
  S   S1440     1.0  0.88397  0.63809  0.59342  1.0000
  C   C4290     1.0  0.98941  0.61697  0.58560  1.0000
  H   H4282     1.0  0.88754  0.69873  0.60927  1.0000
  H   H4283     1.0  0.57181  0.93568  0.77176  1.0000
  H   H4284     1.0  0.86110  0.76232  0.59880  1.0000
  H   H4285     1.0  0.90952  0.64526  0.66225  1.0000
  N   N358      1.0  0.86446  0.63689  0.71626  1.0000
  C   C4291     1.0  0.86039  0.64259  0.70565  1.0000
  C   C4292     1.0  0.85839  0.62868  0.72497  1.0000
  C   C4293     1.0  0.85002  0.64007  0.70354  1.0000
  C   C4294     1.0  0.84802  0.62591  0.72318  1.0000
  C   C4295     1.0  0.84383  0.63164  0.71237  1.0000
  C   C4296     1.0  0.87595  0.63879  0.71785  1.0000
  H   H4286     1.0  0.86536  0.64888  0.69860  1.0000
  H   H4287     1.0  0.86175  0.62393  0.73324  1.0000
  H   H4288     1.0  0.84709  0.64434  0.69495  1.0000
  H   H4289     1.0  0.84359  0.61900  0.72995  1.0000
  H   H4290     1.0  0.83600  0.62931  0.71071  1.0000
  H   H4291     1.0  0.88379  0.63190  0.71408  1.0000
  H   H4292     1.0  0.87757  0.64808  0.71288  1.0000
  H   H4293     1.0  0.87584  0.63779  0.72769  1.0000
  C   C4297     1.0  0.91812  0.54932  0.66065  1.0000
  H   H4294     1.0  0.59292  0.88249  0.58520  1.0000
  C   C4298     1.0  0.91408  0.59465  0.60586  1.0000
  C   C4299     1.0  0.61032  0.84894  0.77100  1.0000
  H   H4295     1.0  0.85257  0.63830  0.61400  1.0000
  H   H4296     1.0  0.69245  0.91186  0.62845  1.0000
  H   H4297     1.0  0.92165  0.55809  0.68919  1.0000
  C   C4300     1.0  0.76997  0.89117  0.59266  1.0000
  C   C4301     1.0  0.91140  0.64533  0.65230  1.0000
  H   H4298     1.0  0.93889  0.89217  0.59905  1.0000
  H   H4299     1.0  0.90420  0.65244  0.64814  1.0000
  C   C4302     1.0  0.62445  0.83202  0.78086  1.0000
  H   H4300     1.0  0.85297  0.61137  0.66107  1.0000
  H   H4301     1.0  0.84362  0.59975  0.63305  1.0000
  H   H4302     1.0  0.59001  0.89479  0.60081  1.0000
  N   N359      1.0  0.85211  0.62603  0.63167  1.0000
  C   C4303     1.0  0.84839  0.61756  0.62798  1.0000
  C   C4304     1.0  0.85372  0.62391  0.64339  1.0000
  C   C4305     1.0  0.84619  0.60661  0.63614  1.0000
  C   C4306     1.0  0.85151  0.61311  0.65181  1.0000
  C   C4307     1.0  0.84770  0.60443  0.64814  1.0000
  C   C4308     1.0  0.85470  0.63737  0.62305  1.0000
  H   H4303     1.0  0.84739  0.61905  0.61862  1.0000
  H   H4304     1.0  0.85681  0.63057  0.64623  1.0000
  H   H4305     1.0  0.59355  0.92324  0.77117  1.0000
  H   H4306     1.0  0.93078  0.62665  0.65019  1.0000
  S   S1441     1.0  0.88010  0.52549  0.61173  1.0000
  S   S1442     1.0  0.89364  0.66686  0.59734  1.0000
  H   H4307     1.0  0.68988  0.92753  0.62918  1.0000
  S   S1443     1.0  0.55761  0.90639  0.75895  1.0000
  C   C4309     1.0  0.93467  0.64126  0.59569  1.0000
  C   C4310     1.0  0.86876  0.51943  0.60870  1.0000
  S   S1444     1.0  0.87185  0.69917  0.59328  1.0000
  H   H4308     1.0  0.66503  0.91049  0.60561  1.0000
  C   C4311     1.0  0.87190  0.50725  0.60702  1.0000
  H   H4309     1.0  0.88115  0.50200  0.60727  1.0000
  C   C4312     1.0  0.88678  0.70746  0.60283  1.0000
  C   C4313     1.0  0.53649  0.89895  0.77163  1.0000
  C   C4314     1.0  0.62248  0.89887  0.58788  1.0000
  C   C4315     1.0  0.67492  0.91456  0.61686  1.0000
  C   C4316     1.0  0.84804  0.52058  0.60643  1.0000
  S   S1445     1.0  0.95483  0.56762  0.63100  1.0000
  C   C4317     1.0  0.85748  0.72861  0.60920  1.0000
  C   C4318     1.0  0.86316  0.50173  0.60521  1.0000
  H   H4310     1.0  0.99364  0.61997  0.65027  1.0000
  H   H4311     1.0  0.93083  0.60563  0.64903  1.0000
  C   C4319     1.0  0.85114  0.50836  0.60492  1.0000
  C   C4320     1.0  0.54438  0.92754  0.77696  1.0000
  C   C4321     1.0  0.92201  0.79713  0.58780  1.0000
  C   C4322     1.0  0.60790  0.85463  0.78089  1.0000
  H   H4312     1.0  0.63930  0.90844  0.59489  1.0000
  H   H4313     1.0  0.87080  0.74842  0.61559  1.0000
  H   H4314     1.0  0.90729  0.58922  0.58601  1.0000
  H   H4315     1.0  0.97827  0.63469  0.58789  1.0000
  S   S1446     1.0  0.95519  0.62287  0.59397  1.0000
  H   H4316     1.0  0.91702  0.54678  0.65269  1.0000
  H   H4317     1.0  0.85784  0.85063  0.59870  1.0000
  C   C4323     1.0  0.87789  0.62471  0.59991  1.0000
  S   S1447     1.0  0.88621  0.56051  0.60176  1.0000
  H   H4318     1.0  0.91653  0.57416  0.67134  1.0000
  H   H4319     1.0  0.73795  0.86824  0.62398  1.0000
  H   H4320     1.0  0.93928  0.87203  0.61325  1.0000
  H   H4321     1.0  0.92146  0.57487  0.64527  1.0000
  S   S1448     1.0  0.70843  0.92220  0.60323  1.0000
  C   C4324     1.0  0.76027  0.85953  0.59477  1.0000
  C   C4325     1.0  0.87205  0.84511  0.58376  1.0000
  C   C4326     1.0  0.94663  0.57281  0.60951  1.0000
  C   C4327     1.0  0.92067  0.55552  0.68121  1.0000
  Fe  Fe723     1.0  0.89611  0.75802  0.58668  1.0000
  H   H4322     1.0  0.70406  0.94383  0.61221  1.0000
  H   H4323     1.0  0.91395  0.67817  0.59813  1.0000
  C   C4328     1.0  0.86411  0.73288  0.61503  1.0000
  H   H4324     1.0  0.86848  0.72668  0.62225  1.0000
  C   C4329     1.0  0.87981  0.70996  0.59395  1.0000
  C   C4330     1.0  0.69869  0.94584  0.60529  1.0000
  H   H4325     1.0  0.69026  0.96415  0.60800  1.0000
  Fe  Fe724     1.0  0.63161  0.97243  0.58817  1.0000
  H   H4326     1.0  0.88208  0.81629  0.60776  1.0000
  N   N360      1.0  0.91977  0.87398  0.61776  1.0000
  H   H4327     1.0  0.95350  0.57836  0.60550  1.0000
  C   C4331     1.0  0.69088  0.95734  0.60290  1.0000
  C   C4332     1.0  0.93913  0.57161  0.60231  1.0000
  H   H4328     1.0  0.89940  0.89845  0.60617  1.0000
  H   H4329     1.0  0.92422  0.71905  0.58850  1.0000
  C   C4333     1.0  0.93049  0.87787  0.61194  1.0000
  C   C4334     1.0  0.85243  0.73657  0.59950  1.0000
  H   H4330     1.0  0.93427  0.64053  0.58670  1.0000
  H   H4331     1.0  0.92946  0.85615  0.62541  1.0000
  H   H4332     1.0  0.99051  0.91843  0.58894  1.0000
  C   C4335     1.0  0.56332  0.93275  0.77677  1.0000
  S   S1449     1.0  0.63903  0.98625  0.59265  1.0000
  Fe  Fe725     1.0  0.94440  0.86330  0.58775  1.0000
  H   H4333     1.0  0.66107  0.89859  0.58738  1.0000
  H   H4334     1.0  0.99322  0.88206  0.60109  1.0000
  S   S1450     1.0  0.95870  0.87251  0.59045  1.0000
  C   C4336     1.0  0.59248  0.89881  0.59111  1.0000
  C   C4337     1.0  0.92171  0.59986  0.60962  1.0000
  C   C4338     1.0  0.84877  0.75682  0.58553  1.0000
  C   C4339     1.0  0.93031  0.88934  0.60390  1.0000
  C   C4340     1.0  0.93210  0.80293  0.58347  1.0000
  H   H4335     1.0  0.91886  0.90558  0.59532  1.0000
  H   H4336     1.0  0.84224  0.76497  0.58858  1.0000
  C   C4341     1.0  0.92201  0.68996  0.60374  1.0000
  H   H4337     1.0  0.62224  0.90862  0.58513  1.0000
  H   H4338     1.0  0.91318  0.58529  0.61015  1.0000
  H   H4339     1.0  0.92927  0.70388  0.60700  1.0000
  H   H4340     1.0  0.63422  0.88334  0.77487  1.0000
  C   C4342     1.0  0.83893  0.80693  0.58802  1.0000
  C   C4343     1.0  0.87889  0.72138  0.58567  1.0000
  H   H4341     1.0  0.64554  0.86061  0.58739  1.0000
  N   N361      1.0  0.90800  0.60117  0.59672  1.0000
  C   C4344     1.0  0.64128  0.92627  0.58367  1.0000
  H   H4342     1.0  0.60959  0.98029  0.61644  1.0000
  C   C4345     1.0  0.98755  0.62915  0.58649  1.0000
  H   H4343     1.0  0.98162  0.61306  0.58627  1.0000
  H   H4344     1.0  0.86192  0.64555  0.77766  1.0000
  H   H4345     1.0  0.98412  0.90393  0.63392  1.0000
  H   H4346     1.0  0.84767  0.73301  0.59476  1.0000
  H   H4347     1.0  0.63960  0.86752  0.77379  1.0000
  N   N362      1.0  0.85874  0.49028  0.63471  1.0000
  H   H4348     1.0  0.59410  0.91573  0.59424  1.0000
  C   C4346     1.0  0.64552  0.91382  0.58825  1.0000
  C   C4347     1.0  0.88492  0.73023  0.58628  1.0000
  H   H4349     1.0  0.63171  0.93060  0.58660  1.0000
  H   H4350     1.0  0.58258  0.85401  0.77814  1.0000
  C   C4348     1.0  0.90911  0.61301  0.59128  1.0000
  C   C4349     1.0  0.85002  0.79860  0.58938  1.0000
  N   N363      1.0  0.85382  0.74851  0.59585  1.0000
  H   H4351     1.0  0.62335  0.87360  0.77843  1.0000
  H   H4352     1.0  0.54447  0.86961  0.77986  1.0000
  H   H4353     1.0  0.86902  0.62767  0.58492  1.0000
  H   H4354     1.0  0.84269  0.48924  0.62940  1.0000
  C   C4350     1.0  0.63266  0.87389  0.77916  1.0000
  C   C4351     1.0  0.52865  0.89369  0.78204  1.0000
  H   H4355     1.0  0.83317  0.80547  0.58280  1.0000
  H   H4356     1.0  0.60491  0.98788  0.59576  1.0000
  Fe  Fe726     1.0  0.82953  0.53268  0.87755  1.0000
  S   S1451     1.0  0.83905  0.54677  0.86389  1.0000
  S   S1452     1.0  0.81046  0.53795  0.88844  1.0000
  Fe  Fe727     1.0  0.85136  0.51153  0.87371  1.0000
  S   S1453     1.0  0.86300  0.52395  0.86022  1.0000
  Fe  Fe728     1.0  0.85500  0.53719  0.87283  1.0000
  S   S1454     1.0  0.86617  0.54944  0.87513  1.0000
  Fe  Fe729     1.0  0.84614  0.53242  0.85256  1.0000
  S   S1455     1.0  0.84799  0.53474  0.83243  1.0000
  S   S1456     1.0  0.84507  0.52384  0.88736  1.0000
  S   S1457     1.0  0.83485  0.51929  0.86528  1.0000
  Fe  Fe730     1.0  0.76837  0.59592  0.86664  1.0000
  S   S1458     1.0  0.78219  0.60600  0.86720  1.0000
  S   S1459     1.0  0.77601  0.57974  0.85765  1.0000
  Fe  Fe731     1.0  0.74667  0.61351  0.87857  1.0000
  S   S1460     1.0  0.75883  0.62491  0.88043  1.0000
  S   S1461     1.0  0.72616  0.61975  0.88512  1.0000
  Fe  Fe732     1.0  0.76856  0.62296  0.86127  1.0000
  S   S1462     1.0  0.77211  0.63950  0.84644  1.0000
  Fe  Fe733     1.0  0.77130  0.60688  0.88624  1.0000
  S   S1463     1.0  0.78165  0.60043  0.90149  1.0000
  S   S1464     1.0  0.75553  0.61285  0.85898  1.0000
  S   S1465     1.0  0.75828  0.59552  0.88613  1.0000
  S   S1466     1.0  0.84117  0.61998  0.79739  1.0000
  Fe  Fe734     1.0  0.85803  0.60393  0.82406  1.0000
  S   S1467     1.0  0.83758  0.60741  0.82694  1.0000
  S   S1468     1.0  0.86524  0.59404  0.84108  1.0000
  Fe  Fe735     1.0  0.84126  0.60127  0.80936  1.0000
  S   S1469     1.0  0.83041  0.58959  0.80617  1.0000
  Fe  Fe736     1.0  0.83934  0.62577  0.81485  1.0000
  S   S1470     1.0  0.82655  0.64342  0.81841  1.0000
  S   S1471     1.0  0.86166  0.59585  0.80748  1.0000
  S   S1472     1.0  0.85968  0.62283  0.81312  1.0000
  Fe  Fe737     1.0  0.84427  0.59894  0.91441  1.0000
  S   S1473     1.0  0.86187  0.60504  0.91174  1.0000
  S   S1474     1.0  0.84149  0.57969  0.91703  1.0000
  Fe  Fe738     1.0  0.82898  0.62487  0.91281  1.0000
  S   S1475     1.0  0.84526  0.63331  0.90994  1.0000
  S   S1476     1.0  0.80999  0.63569  0.91100  1.0000
  Fe  Fe739     1.0  0.85453  0.62030  0.89716  1.0000
  S   S1477     1.0  0.86428  0.62657  0.87765  1.0000
  Fe  Fe740     1.0  0.85115  0.61747  0.92498  1.0000
  S   S1478     1.0  0.85888  0.61660  0.94168  1.0000
  S   S1479     1.0  0.83781  0.61324  0.89894  1.0000
  S   S1480     1.0  0.83401  0.60999  0.92869  1.0000
  C   C4352     1.0  0.62875  0.76404  0.84588  1.0000
  H   H4357     1.0  0.62815  0.66355  0.89532  1.0000
  H   H4358     1.0  0.80711  0.50062  0.87322  1.0000
  S   S1481     1.0  0.86406  0.65566  0.96953  1.0000
  H   H4359     1.0  0.61435  0.78883  0.82759  1.0000
  Fe  Fe741     1.0  0.58390  0.72018  0.88806  1.0000
  S   S1482     1.0  0.59737  0.70550  0.87948  1.0000
  S   S1483     1.0  0.57339  0.71499  0.90727  1.0000
  Fe  Fe742     1.0  0.58718  0.73975  0.86488  1.0000
  S   S1484     1.0  0.60070  0.72657  0.85406  1.0000
  S   S1485     1.0  0.58115  0.75958  0.85570  1.0000
  Fe  Fe743     1.0  0.58819  0.71338  0.86359  1.0000
  S   S1486     1.0  0.58620  0.69911  0.85475  1.0000
  Fe  Fe744     1.0  0.60872  0.71967  0.87081  1.0000
  S   S1487     1.0  0.62898  0.71344  0.86940  1.0000
  S   S1488     1.0  0.57370  0.72723  0.87277  1.0000
  S   S1489     1.0  0.59619  0.73379  0.88108  1.0000
  Fe  Fe745     1.0  0.57665  0.64502  0.94859  1.0000
  S   S1490     1.0  0.57873  0.65677  0.96026  1.0000
  S   S1491     1.0  0.56038  0.65059  0.93961  1.0000
  Fe  Fe746     1.0  0.60222  0.62965  0.94853  1.0000
  S   S1492     1.0  0.60683  0.64009  0.95979  1.0000
  S   S1493     1.0  0.61602  0.61485  0.94032  1.0000
  Fe  Fe747     1.0  0.58797  0.63915  0.97116  1.0000
  Fe  Fe748     1.0  0.59740  0.65672  0.94803  1.0000
  S   S1494     1.0  0.60604  0.67312  0.93981  1.0000
  S   S1495     1.0  0.58396  0.62727  0.96072  1.0000
  S   S1496     1.0  0.59467  0.64637  0.93560  1.0000
  Fe  Fe749     1.0  0.66967  0.62881  0.85936  1.0000
  S   S1497     1.0  0.66561  0.64737  0.86378  1.0000
  S   S1498     1.0  0.68937  0.61917  0.85349  1.0000
  Fe  Fe750     1.0  0.64238  0.62744  0.86608  1.0000
  S   S1499     1.0  0.63626  0.64562  0.87152  1.0000
  S   S1500     1.0  0.62890  0.61588  0.86752  1.0000
  Fe  Fe751     1.0  0.64983  0.65166  0.85453  1.0000
  S   S1501     1.0  0.64380  0.66947  0.84206  1.0000
  Fe  Fe752     1.0  0.65259  0.63944  0.88024  1.0000
  S   S1502     1.0  0.65187  0.64339  0.89823  1.0000
  S   S1503     1.0  0.65500  0.63383  0.84833  1.0000
  S   S1504     1.0  0.65760  0.62053  0.87653  1.0000
  Fe  Fe753     1.0  0.53495  0.63596  0.86732  1.0000
  S   S1505     1.0  0.53243  0.64263  0.88472  1.0000
  S   S1506     1.0  0.51727  0.63125  0.86570  1.0000
  Fe  Fe754     1.0  0.56203  0.63832  0.85983  1.0000
  S   S1507     1.0  0.56135  0.64501  0.87637  1.0000
  S   S1508     1.0  0.58031  0.63650  0.84639  1.0000
  Fe  Fe755     1.0  0.55080  0.63046  0.88665  1.0000
  S   S1509     1.0  0.55677  0.61907  0.90400  1.0000
  Fe  Fe756     1.0  0.54328  0.65664  0.87298  1.0000
  S   S1510     1.0  0.53879  0.67612  0.87543  1.0000
  S   S1511     1.0  0.55276  0.62259  0.87028  1.0000
  S   S1512     1.0  0.54449  0.65117  0.85544  1.0000
  Fe  Fe757     1.0  0.51873  0.88853  0.84778  1.0000
  S   S1513     1.0  0.50621  0.88235  0.83998  1.0000
  S   S1514     1.0  0.52943  0.87619  0.86155  1.0000
  Fe  Fe758     1.0  0.51669  0.91350  0.83079  1.0000
  H   H4360     1.0  0.62985  0.78323  0.84046  1.0000
  S   S1515     1.0  0.52593  0.92968  0.82396  1.0000
  Fe  Fe759     1.0  0.51642  0.89125  0.82181  1.0000
  S   S1516     1.0  0.52268  0.88200  0.80583  1.0000
  H   H4361     1.0  0.50875  0.65571  0.85024  1.0000
  S   S1517     1.0  0.52999  0.89569  0.82956  1.0000
  Fe  Fe760     1.0  0.60603  0.81811  0.84588  1.0000
  S   S1518     1.0  0.60131  0.82221  0.82746  1.0000
  S   S1519     1.0  0.60882  0.79914  0.85813  1.0000
  Fe  Fe761     1.0  0.60837  0.84456  0.84316  1.0000
  S   S1520     1.0  0.60410  0.85081  0.82449  1.0000
  S   S1521     1.0  0.61194  0.85699  0.85325  1.0000
  Fe  Fe762     1.0  0.58956  0.83969  0.83254  1.0000
  S   S1522     1.0  0.57180  0.84747  0.82637  1.0000
  Fe  Fe763     1.0  0.61623  0.83288  0.82100  1.0000
  S   S1523     1.0  0.62920  0.83049  0.80317  1.0000
  S   S1524     1.0  0.59278  0.83470  0.85169  1.0000
  S   S1525     1.0  0.62207  0.82752  0.83898  1.0000
  Fe  Fe764     1.0  0.59437  0.94558  0.81801  1.0000
  S   S1526     1.0  0.61162  0.94505  0.82377  1.0000
  S   S1527     1.0  0.59212  0.94976  0.79853  1.0000
  Fe  Fe765     1.0  0.58066  0.93714  0.84386  1.0000
  S   S1528     1.0  0.59674  0.93574  0.85201  1.0000
  S   S1529     1.0  0.56371  0.93002  0.85473  1.0000
  Fe  Fe766     1.0  0.59905  0.95392  0.83907  1.0000
  S   S1530     1.0  0.60010  0.97090  0.84530  1.0000
  Fe  Fe767     1.0  0.60790  0.92711  0.83614  1.0000
  S   S1531     1.0  0.62293  0.91011  0.83796  1.0000
  S   S1532     1.0  0.58189  0.95585  0.83214  1.0000
  S   S1533     1.0  0.59170  0.92710  0.82922  1.0000
  C   C4353     1.0  0.62598  0.74274  0.85229  1.0000
  H   H4362     1.0  0.63942  0.84521  0.81427  1.0000
  C   C4354     1.0  0.62410  0.97442  0.84151  1.0000
  C   C4355     1.0  0.59125  0.88341  0.80629  1.0000
  N   N364      1.0  0.62320  0.75528  0.84507  1.0000
  C   C4356     1.0  0.87413  0.49054  0.83793  1.0000
  H   H4363     1.0  0.88767  0.57319  0.84448  1.0000
  H   H4364     1.0  0.62726  0.96614  0.83789  1.0000
  H   H4365     1.0  0.62298  0.97290  0.80564  1.0000
  H   H4366     1.0  0.83274  0.66234  0.79443  1.0000
  C   C4357     1.0  0.61586  0.87131  0.84602  1.0000
  C   C4358     1.0  0.60762  0.88118  0.84048  1.0000
  C   C4359     1.0  0.60973  0.89323  0.83760  1.0000
  C   C4360     1.0  0.62024  0.89530  0.83997  1.0000
  C   C4361     1.0  0.62876  0.88530  0.84476  1.0000
  C   C4362     1.0  0.62646  0.87344  0.84799  1.0000
  H   H4367     1.0  0.59925  0.87965  0.83919  1.0000
  H   H4368     1.0  0.60313  0.90089  0.83386  1.0000
  H   H4369     1.0  0.63689  0.88681  0.84660  1.0000
  H   H4370     1.0  0.63274  0.86593  0.85247  1.0000
  C   C4363     1.0  0.60487  0.92608  0.79874  1.0000
  C   C4364     1.0  0.55192  0.89543  0.78351  1.0000
  H   H4371     1.0  0.53161  0.91393  0.80452  1.0000
  H   H4372     1.0  0.60841  0.92690  0.80615  1.0000
  H   H4373     1.0  0.64236  0.97773  0.83852  1.0000
  C   C4365     1.0  0.85773  0.50253  0.82772  1.0000
  C   C4366     1.0  0.62181  0.83756  0.79088  1.0000
  H   H4374     1.0  0.88276  0.64575  0.80314  1.0000
  C   C4367     1.0  0.49808  0.62718  0.83700  1.0000
  H   H4375     1.0  0.60834  0.96614  0.79778  1.0000
  C   C4368     1.0  0.54389  0.89045  0.79406  1.0000
  H   H4376     1.0  0.63543  0.74027  0.85405  1.0000
  H   H4377     1.0  0.85091  0.51094  0.82587  1.0000
  H   H4378     1.0  0.83549  0.50283  0.90704  1.0000
  C   C4369     1.0  0.86228  0.64808  0.78591  1.0000
  C   C4370     1.0  0.60868  0.98547  0.81522  1.0000
  H   H4379     1.0  0.51623  0.68655  0.86825  1.0000
  H   H4380     1.0  0.78782  0.58531  0.83137  1.0000
  H   H4381     1.0  0.57805  0.84306  0.79980  1.0000
  C   C4371     1.0  0.53643  0.92970  0.83255  1.0000
  C   C4372     1.0  0.54579  0.93634  0.82715  1.0000
  C   C4373     1.0  0.55430  0.93638  0.83384  1.0000
  C   C4374     1.0  0.55329  0.93001  0.84607  1.0000
  C   C4375     1.0  0.54392  0.92339  0.85146  1.0000
  C   C4376     1.0  0.53560  0.92312  0.84468  1.0000
  H   H4382     1.0  0.54641  0.94156  0.81782  1.0000
  H   H4383     1.0  0.56145  0.94157  0.82963  1.0000
  H   H4384     1.0  0.54303  0.91853  0.86094  1.0000
  H   H4385     1.0  0.52837  0.91803  0.84894  1.0000
  C   C4377     1.0  0.54093  0.86673  0.85293  1.0000
  C   C4378     1.0  0.55250  0.86194  0.85589  1.0000
  C   C4379     1.0  0.56208  0.85582  0.84785  1.0000
  C   C4380     1.0  0.55999  0.85434  0.83701  1.0000
  C   C4381     1.0  0.54837  0.85896  0.83424  1.0000
  C   C4382     1.0  0.53888  0.86507  0.84220  1.0000
  H   H4386     1.0  0.55414  0.86329  0.86415  1.0000
  H   H4387     1.0  0.57108  0.85246  0.84995  1.0000
  H   H4388     1.0  0.54666  0.85800  0.82586  1.0000
  H   H4389     1.0  0.53000  0.86862  0.83986  1.0000
  C   C4383     1.0  0.61555  0.62233  0.86145  1.0000
  C   C4384     1.0  0.61227  0.61564  0.85484  1.0000
  C   C4385     1.0  0.60139  0.62001  0.85043  1.0000
  C   C4386     1.0  0.59337  0.63087  0.85299  1.0000
  C   C4387     1.0  0.59652  0.63757  0.85976  1.0000
  C   C4388     1.0  0.60768  0.63337  0.86387  1.0000
  H   H4390     1.0  0.61822  0.60705  0.85305  1.0000
  H   H4391     1.0  0.59911  0.61486  0.84509  1.0000
  H   H4392     1.0  0.59045  0.64609  0.86160  1.0000
  H   H4393     1.0  0.61005  0.63850  0.86915  1.0000
  C   C4389     1.0  0.55964  0.64169  0.92973  1.0000
  C   C4390     1.0  0.56556  0.62930  0.93094  1.0000
  C   C4391     1.0  0.56434  0.62231  0.92325  1.0000
  C   C4392     1.0  0.55749  0.62775  0.91410  1.0000
  C   C4393     1.0  0.55188  0.64022  0.91267  1.0000
  C   C4394     1.0  0.55280  0.64711  0.92058  1.0000
  H   H4394     1.0  0.57083  0.62504  0.93799  1.0000
  H   H4395     1.0  0.56880  0.61269  0.92432  1.0000
  H   H4396     1.0  0.54666  0.64453  0.90559  1.0000
  H   H4397     1.0  0.54821  0.65668  0.91960  1.0000
  C   C4395     1.0  0.62657  0.62233  0.92893  1.0000
  C   C4396     1.0  0.62766  0.63395  0.92942  1.0000
  C   C4397     1.0  0.63565  0.64026  0.92007  1.0000
  C   C4398     1.0  0.64226  0.63515  0.91000  1.0000
  C   C4399     1.0  0.64109  0.62358  0.90939  1.0000
  C   C4400     1.0  0.63343  0.61706  0.91900  1.0000
  H   H4398     1.0  0.62243  0.63810  0.93702  1.0000
  H   H4399     1.0  0.63653  0.64919  0.92057  1.0000
  H   H4400     1.0  0.64617  0.61957  0.90165  1.0000
  H   H4401     1.0  0.63261  0.60806  0.91863  1.0000
  C   C4401     1.0  0.58253  0.70336  0.91623  1.0000
  C   C4402     1.0  0.59532  0.70198  0.91339  1.0000
  C   C4403     1.0  0.60250  0.69283  0.92081  1.0000
  C   C4404     1.0  0.59694  0.68480  0.93084  1.0000
  C   C4405     1.0  0.58417  0.68600  0.93349  1.0000
  C   C4406     1.0  0.57696  0.69537  0.92629  1.0000
  H   H4402     1.0  0.59969  0.70811  0.90561  1.0000
  H   H4403     1.0  0.61238  0.69187  0.91867  1.0000
  H   H4404     1.0  0.57980  0.67981  0.94117  1.0000
  H   H4405     1.0  0.56707  0.69636  0.92847  1.0000
  C   C4407     1.0  0.57307  0.69271  0.86112  1.0000
  C   C4408     1.0  0.57285  0.68180  0.85819  1.0000
  C   C4409     1.0  0.56234  0.67674  0.86255  1.0000
  C   C4410     1.0  0.55200  0.68246  0.87007  1.0000
  C   C4411     1.0  0.55224  0.69328  0.87323  1.0000
  C   C4412     1.0  0.56279  0.69838  0.86880  1.0000
  H   H4406     1.0  0.58082  0.67720  0.85256  1.0000
  H   H4407     1.0  0.56221  0.66851  0.85991  1.0000
  H   H4408     1.0  0.54426  0.69772  0.87908  1.0000
  H   H4409     1.0  0.56288  0.70679  0.87114  1.0000
  C   C4413     1.0  0.63359  0.70131  0.86164  1.0000
  C   C4414     1.0  0.64038  0.68997  0.86667  1.0000
  C   C4415     1.0  0.64346  0.68010  0.86074  1.0000
  C   C4416     1.0  0.64001  0.68167  0.84962  1.0000
  C   C4417     1.0  0.63333  0.69303  0.84456  1.0000
  C   C4418     1.0  0.63001  0.70279  0.85062  1.0000
  H   H4410     1.0  0.64305  0.68875  0.87526  1.0000
  H   H4411     1.0  0.64855  0.67133  0.86476  1.0000
  H   H4412     1.0  0.63063  0.69428  0.83598  1.0000
  H   H4413     1.0  0.62483  0.71152  0.84665  1.0000
  C   C4419     1.0  0.58843  0.77067  0.85694  1.0000
  C   C4420     1.0  0.58540  0.78284  0.85053  1.0000
  C   C4421     1.0  0.59139  0.79177  0.85102  1.0000
  C   C4422     1.0  0.60034  0.78856  0.85805  1.0000
  C   C4423     1.0  0.60309  0.77648  0.86475  1.0000
  C   C4424     1.0  0.59723  0.76754  0.86412  1.0000
  H   H4414     1.0  0.57854  0.78535  0.84499  1.0000
  H   H4415     1.0  0.58916  0.80108  0.84587  1.0000
  H   H4416     1.0  0.61000  0.77397  0.87022  1.0000
  H   H4417     1.0  0.59961  0.75823  0.86913  1.0000
  H   H4418     1.0  0.59208  0.87333  0.80777  1.0000
  C   C4425     1.0  0.83497  0.49395  0.90543  1.0000
  N   N365      1.0  0.54165  0.92504  0.78950  1.0000
  C   C4426     1.0  0.51019  0.62992  0.85428  1.0000
  C   C4427     1.0  0.51638  0.63005  0.84208  1.0000
  C   C4428     1.0  0.51037  0.62863  0.83353  1.0000
  H   H4419     1.0  0.50826  0.86341  0.87158  1.0000
  H   H4420     1.0  0.52584  0.63108  0.83925  1.0000
  H   H4421     1.0  0.51530  0.62863  0.82416  1.0000
  C   C4429     1.0  0.86006  0.62771  0.94930  1.0000
  C   C4430     1.0  0.85631  0.64038  0.94511  1.0000
  C   C4431     1.0  0.85765  0.64874  0.95139  1.0000
  C   C4432     1.0  0.86268  0.64461  0.96197  1.0000
  C   C4433     1.0  0.86635  0.63193  0.96620  1.0000
  C   C4434     1.0  0.86505  0.62357  0.95991  1.0000
  H   H4422     1.0  0.85250  0.64375  0.93697  1.0000
  H   H4423     1.0  0.85483  0.65850  0.94795  1.0000
  C   C4435     1.0  0.56222  0.89940  0.83234  1.0000
  H   H4424     1.0  0.86804  0.61382  0.96324  1.0000
  C   C4436     1.0  0.86476  0.60324  0.85116  1.0000
  C   C4437     1.0  0.86274  0.59836  0.86381  1.0000
  C   C4438     1.0  0.86248  0.60548  0.87202  1.0000
  C   C4439     1.0  0.86468  0.61738  0.86757  1.0000
  C   C4440     1.0  0.86687  0.62220  0.85488  1.0000
  C   C4441     1.0  0.86668  0.61524  0.84671  1.0000
  H   H4425     1.0  0.86139  0.58905  0.86729  1.0000
  H   H4426     1.0  0.86086  0.60169  0.88177  1.0000
  H   H4427     1.0  0.86864  0.63138  0.85139  1.0000
  H   H4428     1.0  0.86842  0.61901  0.83695  1.0000
  C   C4442     1.0  0.78908  0.61053  0.90426  1.0000
  C   C4443     1.0  0.79872  0.60563  0.91052  1.0000
  C   C4444     1.0  0.80513  0.61335  0.91256  1.0000
  C   C4445     1.0  0.80157  0.62608  0.90887  1.0000
  C   C4446     1.0  0.79159  0.63106  0.90304  1.0000
  C   C4447     1.0  0.78552  0.62328  0.90048  1.0000
  H   H4429     1.0  0.80127  0.59582  0.91382  1.0000
  H   H4430     1.0  0.81267  0.60944  0.91724  1.0000
  H   H4431     1.0  0.78866  0.64092  0.90036  1.0000
  H   H4432     1.0  0.77793  0.62712  0.89585  1.0000
  C   C4448     1.0  0.78746  0.64040  0.83946  1.0000
  C   C4449     1.0  0.78989  0.65135  0.83148  1.0000
  C   C4450     1.0  0.80193  0.65223  0.82526  1.0000
  C   C4451     1.0  0.81163  0.64209  0.82677  1.0000
  C   C4452     1.0  0.80924  0.63111  0.83478  1.0000
  C   C4453     1.0  0.79717  0.63028  0.84118  1.0000
  H   H4433     1.0  0.78241  0.65920  0.83011  1.0000
  H   H4434     1.0  0.80370  0.66076  0.81914  1.0000
  H   H4435     1.0  0.81666  0.62331  0.83621  1.0000
  H   H4436     1.0  0.79538  0.62177  0.84725  1.0000
  C   C4454     1.0  0.71621  0.61959  0.87607  1.0000
  C   C4455     1.0  0.70400  0.62604  0.87849  1.0000
  C   C4456     1.0  0.69567  0.62579  0.87173  1.0000
  C   C4457     1.0  0.69953  0.61914  0.86244  1.0000
  C   C4458     1.0  0.71178  0.61270  0.85998  1.0000
  C   C4459     1.0  0.72011  0.61291  0.86678  1.0000
  H   H4437     1.0  0.70093  0.63125  0.88564  1.0000
  H   H4438     1.0  0.68627  0.63076  0.87373  1.0000
  H   H4439     1.0  0.71481  0.60754  0.85279  1.0000
  H   H4440     1.0  0.72949  0.60780  0.86493  1.0000
  C   C4460     1.0  0.80089  0.54939  0.87976  1.0000
  C   C4461     1.0  0.78997  0.55600  0.88577  1.0000
  C   C4462     1.0  0.78241  0.56546  0.87900  1.0000
  C   C4463     1.0  0.78554  0.56804  0.86618  1.0000
  C   C4464     1.0  0.79635  0.56126  0.86015  1.0000
  C   C4465     1.0  0.80411  0.55205  0.86694  1.0000
  H   H4441     1.0  0.78745  0.55397  0.89569  1.0000
  H   H4442     1.0  0.77405  0.57059  0.88372  1.0000
  H   H4443     1.0  0.79878  0.56320  0.85024  1.0000
  H   H4444     1.0  0.81247  0.54689  0.86223  1.0000
  C   C4466     1.0  0.85920  0.55792  0.88671  1.0000
  C   C4467     1.0  0.84868  0.55525  0.89535  1.0000
  C   C4468     1.0  0.84341  0.56193  0.90467  1.0000
  C   C4469     1.0  0.84837  0.57157  0.90517  1.0000
  C   C4470     1.0  0.85876  0.57441  0.89640  1.0000
  C   C4471     1.0  0.86424  0.56751  0.88726  1.0000
  H   H4445     1.0  0.84471  0.54791  0.89500  1.0000
  H   H4446     1.0  0.83537  0.55969  0.91143  1.0000
  H   H4447     1.0  0.86270  0.58177  0.89678  1.0000
  H   H4448     1.0  0.87239  0.56961  0.88061  1.0000
  C   C4472     1.0  0.84273  0.55004  0.82553  1.0000
  C   C4473     1.0  0.84367  0.55968  0.83017  1.0000
  C   C4474     1.0  0.84001  0.57189  0.82415  1.0000
  C   C4475     1.0  0.83502  0.57442  0.81376  1.0000
  C   C4476     1.0  0.83384  0.56479  0.80930  1.0000
  C   C4477     1.0  0.83791  0.55260  0.81505  1.0000
  H   H4449     1.0  0.84756  0.55775  0.83815  1.0000
  H   H4450     1.0  0.84098  0.57933  0.82759  1.0000
  H   H4451     1.0  0.83005  0.56674  0.80123  1.0000
  H   H4452     1.0  0.83720  0.54516  0.81144  1.0000
  N   N366      1.0  0.59358  0.89271  0.86715  1.0000
  C   C4478     1.0  0.58338  0.90092  0.86400  1.0000
  C   C4479     1.0  0.59427  0.88035  0.86908  1.0000
  C   C4480     1.0  0.57366  0.89685  0.86238  1.0000
  C   C4481     1.0  0.58479  0.87595  0.86739  1.0000
  C   C4482     1.0  0.57442  0.88428  0.86402  1.0000
  C   C4483     1.0  0.60354  0.89721  0.86900  1.0000
  H   H4453     1.0  0.58272  0.91071  0.86273  1.0000
  H   H4454     1.0  0.60235  0.87379  0.87159  1.0000
  H   H4455     1.0  0.56557  0.90344  0.85995  1.0000
  H   H4456     1.0  0.58562  0.86614  0.86855  1.0000
  H   H4457     1.0  0.56696  0.88098  0.86276  1.0000
  H   H4458     1.0  0.60503  0.90577  0.86211  1.0000
  H   H4459     1.0  0.60124  0.89914  0.87833  1.0000
  H   H4460     1.0  0.61241  0.89044  0.86782  1.0000
  C   C4484     1.0  0.61129  0.77040  0.83162  1.0000
  H   H4461     1.0  0.56647  0.93173  0.79458  1.0000
  H   H4462     1.0  0.81620  0.51266  0.90100  1.0000
  C   C4485     1.0  0.88252  0.56566  0.84846  1.0000
  C   C4486     1.0  0.57166  0.90553  0.82574  1.0000
  C   C4487     1.0  0.79791  0.59961  0.82178  1.0000
  H   H4463     1.0  0.64300  0.97229  0.86412  1.0000
  C   C4488     1.0  0.80869  0.61637  0.81138  1.0000
  C   C4489     1.0  0.63265  0.98104  0.84186  1.0000
  H   H4464     1.0  0.62782  0.88322  0.81676  1.0000
  C   C4490     1.0  0.62579  0.77618  0.83946  1.0000
  C   C4491     1.0  0.55849  0.84994  0.80198  1.0000
  H   H4465     1.0  0.53959  0.85879  0.80154  1.0000
  H   H4466     1.0  0.84358  0.49608  0.86049  1.0000
  H   H4467     1.0  0.55511  0.88314  0.83545  1.0000
  C   C4492     1.0  0.53228  0.88950  0.79327  1.0000
  C   C4493     1.0  0.78748  0.59513  0.82868  1.0000
  C   C4494     1.0  0.51037  0.66257  0.85410  1.0000
  H   H4468     1.0  0.61936  0.74177  0.86126  1.0000
  N   N367      1.0  0.71905  0.64696  0.85679  1.0000
  C   C4495     1.0  0.70813  0.65419  0.86124  1.0000
  C   C4496     1.0  0.71996  0.64118  0.84761  1.0000
  C   C4497     1.0  0.69765  0.65551  0.85670  1.0000
  C   C4498     1.0  0.70967  0.64230  0.84287  1.0000
  C   C4499     1.0  0.69845  0.64946  0.84750  1.0000
  C   C4500     1.0  0.72995  0.64576  0.86159  1.0000
  H   H4469     1.0  0.70740  0.65879  0.86850  1.0000
  H   H4470     1.0  0.72858  0.63538  0.84415  1.0000
  H   H4471     1.0  0.68890  0.66096  0.86046  1.0000
  H   H4472     1.0  0.71023  0.63726  0.83599  1.0000
  H   H4473     1.0  0.69032  0.65006  0.84416  1.0000
  H   H4474     1.0  0.72738  0.64612  0.87148  1.0000
  H   H4475     1.0  0.73630  0.63672  0.86104  1.0000
  H   H4476     1.0  0.73497  0.65316  0.85633  1.0000
  C   C4501     1.0  0.63362  0.86382  0.81701  1.0000
  H   H4477     1.0  0.52633  0.91731  0.79061  1.0000
  Fe  Fe768     1.0  0.86141  0.61514  0.79662  1.0000
  C   C4502     1.0  0.55187  0.86364  0.78412  1.0000
  H   H4478     1.0  0.62546  0.73587  0.84743  1.0000
  C   C4503     1.0  0.64809  0.97542  0.86920  1.0000
  C   C4504     1.0  0.87409  0.64810  0.80022  1.0000
  H   H4479     1.0  0.80748  0.62648  0.80999  1.0000
  H   H4480     1.0  0.87036  0.62856  0.97422  1.0000
  H   H4481     1.0  0.61439  0.90733  0.79934  1.0000
  C   C4505     1.0  0.56246  0.88792  0.83044  1.0000
  H   H4482     1.0  0.58597  0.97459  0.80349  1.0000
  H   H4483     1.0  0.51803  0.67300  0.83662  1.0000
  C   C4506     1.0  0.60500  0.97299  0.80342  1.0000
  C   C4507     1.0  0.59242  0.97775  0.80662  1.0000
  C   C4508     1.0  0.85860  0.49262  0.82258  1.0000
  C   C4509     1.0  0.50175  0.59613  0.83869  1.0000
  H   H4484     1.0  0.50879  0.60132  0.83365  1.0000
  H   H4485     1.0  0.87739  0.54401  0.85070  1.0000
  C   C4510     1.0  0.63687  0.85840  0.79750  1.0000
  C   C4511     1.0  0.60424  0.91390  0.78487  1.0000
  C   C4512     1.0  0.59709  0.93613  0.79297  1.0000
  H   H4486     1.0  0.65234  0.96736  0.87554  1.0000
  C   C4513     1.0  0.63694  0.85487  0.81002  1.0000
  H   H4487     1.0  0.86357  0.65553  0.81600  1.0000
  S   S1534     1.0  0.50376  0.90975  0.82138  1.0000
  C   C4514     1.0  0.49788  0.62856  0.85771  1.0000
  C   C4515     1.0  0.81269  0.49919  0.87987  1.0000
  H   H4488     1.0  0.86474  0.50909  0.83964  1.0000
  H   H4489     1.0  0.58932  0.88777  0.79702  1.0000
  H   H4490     1.0  0.78673  0.62992  0.81980  1.0000
  C   C4516     1.0  0.50607  0.59698  0.85808  1.0000
  H   H4491     1.0  0.60956  0.75157  0.83804  1.0000
  H   H4492     1.0  0.63530  0.76175  0.85175  1.0000
  H   H4493     1.0  0.60409  0.77287  0.82646  1.0000
  H   H4494     1.0  0.57151  0.91451  0.82713  1.0000
  C   C4517     1.0  0.61443  0.75835  0.83819  1.0000
  H   H4495     1.0  0.80629  0.59312  0.81904  1.0000
  N   N368      1.0  0.49907  0.59340  0.85124  1.0000
  C   C4518     1.0  0.62749  0.98607  0.87821  1.0000
  H   H4496     1.0  0.57214  0.87382  0.82043  1.0000
  C   C4519     1.0  0.78701  0.62012  0.82215  1.0000
  C   C4520     1.0  0.61703  0.77935  0.83226  1.0000
  C   C4521     1.0  0.85218  0.65623  0.80366  1.0000
  N   N369      1.0  0.61511  0.65781  0.83599  1.0000
  C   C4522     1.0  0.61294  0.66993  0.83643  1.0000
  C   C4523     1.0  0.60687  0.65346  0.83260  1.0000
  C   C4524     1.0  0.60227  0.67805  0.83345  1.0000
  C   C4525     1.0  0.59603  0.66129  0.82972  1.0000
  C   C4526     1.0  0.59377  0.67368  0.83007  1.0000
  C   C4527     1.0  0.62637  0.64955  0.83920  1.0000
  H   H4497     1.0  0.61941  0.67338  0.83919  1.0000
  H   H4498     1.0  0.60848  0.64383  0.83237  1.0000
  H   H4499     1.0  0.60046  0.68761  0.83405  1.0000
  H   H4500     1.0  0.58931  0.65767  0.82749  1.0000
  H   H4501     1.0  0.58529  0.67982  0.82808  1.0000
  H   H4502     1.0  0.62669  0.63981  0.83930  1.0000
  H   H4503     1.0  0.63456  0.65239  0.83255  1.0000
  H   H4504     1.0  0.62693  0.64993  0.84850  1.0000
  N   N370      1.0  0.56135  0.75565  0.88697  1.0000
  C   C4528     1.0  0.56351  0.74641  0.89688  1.0000
  C   C4529     1.0  0.56707  0.76536  0.88374  1.0000
  C   C4530     1.0  0.57186  0.74655  0.90361  1.0000
  C   C4531     1.0  0.57549  0.76580  0.89026  1.0000
  C   C4532     1.0  0.57793  0.75629  0.90022  1.0000
  C   C4533     1.0  0.55259  0.75544  0.87996  1.0000
  H   H4505     1.0  0.55891  0.73874  0.89955  1.0000
  H   H4506     1.0  0.56538  0.77268  0.87587  1.0000
  H   H4507     1.0  0.57375  0.73901  0.91126  1.0000
  H   H4508     1.0  0.58023  0.77338  0.88745  1.0000
  H   H4509     1.0  0.58459  0.75640  0.90524  1.0000
  H   H4510     1.0  0.55038  0.74621  0.88198  1.0000
  H   H4511     1.0  0.54394  0.76224  0.88214  1.0000
  H   H4512     1.0  0.55657  0.75769  0.86995  1.0000
  C   C4534     1.0  0.63032  0.87617  0.81141  1.0000
  H   H4513     1.0  0.50377  0.65378  0.87268  1.0000
  H   H4514     1.0  0.62342  0.98085  0.87444  1.0000
  H   H4515     1.0  0.58846  0.90494  0.81206  1.0000
  C   C4535     1.0  0.54904  0.85753  0.79638  1.0000
  C   C4536     1.0  0.61150  0.97851  0.84586  1.0000
  N   N371      1.0  0.59341  0.62020  0.89258  1.0000
  C   C4537     1.0  0.58663  0.62949  0.89836  1.0000
  C   C4538     1.0  0.60519  0.61493  0.89399  1.0000
  C   C4539     1.0  0.59150  0.63354  0.90604  1.0000
  C   C4540     1.0  0.61046  0.61895  0.90136  1.0000
  C   C4541     1.0  0.60350  0.62819  0.90757  1.0000
  C   C4542     1.0  0.58769  0.61531  0.88556  1.0000
  H   H4516     1.0  0.57731  0.63364  0.89722  1.0000
  H   H4517     1.0  0.61061  0.60759  0.88938  1.0000
  H   H4518     1.0  0.58588  0.64057  0.91099  1.0000
  H   H4519     1.0  0.61983  0.61479  0.90236  1.0000
  H   H4520     1.0  0.60737  0.63108  0.91363  1.0000
  H   H4521     1.0  0.58144  0.62279  0.88051  1.0000
  H   H4522     1.0  0.59467  0.61065  0.87866  1.0000
  H   H4523     1.0  0.58219  0.60869  0.89190  1.0000
  C   C4543     1.0  0.60661  0.67218  0.97379  1.0000
  H   H4524     1.0  0.50372  0.88555  0.87182  1.0000
  C   C4544     1.0  0.51454  0.67977  0.86432  1.0000
  N   N372      1.0  0.50990  0.66995  0.87177  1.0000
  C   C4545     1.0  0.51762  0.68100  0.85158  1.0000
  H   H4525     1.0  0.65541  0.97952  0.86217  1.0000
  C   C4546     1.0  0.63025  0.87936  0.79887  1.0000
  H   H4526     1.0  0.54677  0.88706  0.80274  1.0000
  H   H4527     1.0  0.84084  0.63539  0.98034  1.0000
  H   H4528     1.0  0.88805  0.55814  0.85426  1.0000
  H   H4529     1.0  0.52176  0.68854  0.84578  1.0000
  N   N373      1.0  0.85180  0.65359  0.79295  1.0000
  H   H4530     1.0  0.60695  0.61625  0.97849  1.0000
  H   H4531     1.0  0.59255  0.67240  0.96471  1.0000
  H   H4532     1.0  0.63360  0.86115  0.82675  1.0000
  N   N374      1.0  0.70206  0.60055  0.89969  1.0000
  C   C4547     1.0  0.69554  0.59808  0.89269  1.0000
  C   C4548     1.0  0.69676  0.60920  0.90669  1.0000
  C   C4549     1.0  0.68342  0.60442  0.89249  1.0000
  C   C4550     1.0  0.68466  0.61576  0.90667  1.0000
  C   C4551     1.0  0.67798  0.61334  0.89951  1.0000
  C   C4552     1.0  0.71467  0.59358  0.89988  1.0000
  H   H4533     1.0  0.69978  0.59136  0.88700  1.0000
  H   H4534     1.0  0.70198  0.61128  0.91212  1.0000
  H   H4535     1.0  0.67840  0.60264  0.88669  1.0000
  H   H4536     1.0  0.68051  0.62280  0.91201  1.0000
  H   H4537     1.0  0.66868  0.61853  0.89927  1.0000
  H   H4538     1.0  0.71975  0.59810  0.90370  1.0000
  H   H4539     1.0  0.71458  0.58415  0.90548  1.0000
  H   H4540     1.0  0.71996  0.59308  0.89040  1.0000
  N   N375      1.0  0.82708  0.64061  0.87575  1.0000
  C   C4553     1.0  0.81505  0.63958  0.87888  1.0000
  C   C4554     1.0  0.83514  0.63517  0.86675  1.0000
  C   C4555     1.0  0.81095  0.63247  0.87337  1.0000
  C   C4556     1.0  0.83139  0.62798  0.86102  1.0000
  C   C4557     1.0  0.81920  0.62660  0.86441  1.0000
  C   C4558     1.0  0.83122  0.64816  0.88154  1.0000
  H   H4541     1.0  0.80857  0.64423  0.88573  1.0000
  H   H4542     1.0  0.84454  0.63639  0.86399  1.0000
  H   H4543     1.0  0.80143  0.63151  0.87605  1.0000
  H   H4544     1.0  0.83790  0.62356  0.85400  1.0000
  H   H4545     1.0  0.81611  0.62109  0.86006  1.0000
  H   H4546     1.0  0.82576  0.64828  0.89102  1.0000
  H   H4547     1.0  0.84097  0.64439  0.88233  1.0000
  H   H4548     1.0  0.83032  0.65772  0.87608  1.0000
  N   N376      1.0  0.85900  0.57756  0.93956  1.0000
  C   C4559     1.0  0.86351  0.58573  0.94285  1.0000
  C   C4560     1.0  0.86581  0.57167  0.93035  1.0000
  C   C4561     1.0  0.87521  0.58803  0.93702  1.0000
  C   C4562     1.0  0.87751  0.57382  0.92425  1.0000
  C   C4563     1.0  0.88223  0.58204  0.92765  1.0000
  C   C4564     1.0  0.84656  0.57562  0.94562  1.0000
  H   H4549     1.0  0.85795  0.59074  0.94985  1.0000
  H   H4550     1.0  0.86212  0.56544  0.92748  1.0000
  H   H4551     1.0  0.87860  0.59474  0.93951  1.0000
  H   H4552     1.0  0.88274  0.56933  0.91678  1.0000
  H   H4553     1.0  0.89119  0.58401  0.92285  1.0000
  H   H4554     1.0  0.84474  0.56750  0.94354  1.0000
  H   H4555     1.0  0.84519  0.57418  0.95572  1.0000
  H   H4556     1.0  0.83967  0.58375  0.94231  1.0000
  N   N377      1.0  0.87986  0.56123  0.83892  1.0000
  C   C4565     1.0  0.87937  0.56869  0.82760  1.0000
  C   C4566     1.0  0.87727  0.54980  0.84163  1.0000
  C   C4567     1.0  0.87645  0.56465  0.81857  1.0000
  C   C4568     1.0  0.87435  0.54547  0.83280  1.0000
  C   C4569     1.0  0.87389  0.55298  0.82123  1.0000
  H   H4557     1.0  0.52319  0.92916  0.79923  1.0000
  H   H4558     1.0  0.88113  0.57788  0.82552  1.0000
  H   H4559     1.0  0.62761  0.88895  0.79457  1.0000
  H   H4560     1.0  0.87601  0.57057  0.80961  1.0000
  H   H4561     1.0  0.87219  0.53647  0.83495  1.0000
  H   H4562     1.0  0.87126  0.54986  0.81444  1.0000
  H   H4563     1.0  0.54712  0.92481  0.80574  1.0000
  C   C4570     1.0  0.61350  0.84886  0.79090  1.0000
  C   C4571     1.0  0.57063  0.84875  0.79540  1.0000
  N   N378      1.0  0.83028  0.57960  0.87236  1.0000
  C   C4572     1.0  0.81957  0.57626  0.87297  1.0000
  C   C4573     1.0  0.83161  0.58396  0.88170  1.0000
  C   C4574     1.0  0.80986  0.57727  0.88314  1.0000
  C   C4575     1.0  0.82212  0.58496  0.89207  1.0000
  C   C4576     1.0  0.81121  0.58151  0.89278  1.0000
  C   C4577     1.0  0.84047  0.57859  0.86169  1.0000
  H   H4564     1.0  0.81845  0.57273  0.86564  1.0000
  H   H4565     1.0  0.84012  0.58653  0.88127  1.0000
  H   H4566     1.0  0.80132  0.57477  0.88361  1.0000
  H   H4567     1.0  0.82326  0.58824  0.89957  1.0000
  H   H4568     1.0  0.80379  0.58208  0.90080  1.0000
  H   H4569     1.0  0.83818  0.57523  0.85461  1.0000
  H   H4570     1.0  0.84285  0.58770  0.85735  1.0000
  H   H4571     1.0  0.84869  0.57206  0.86458  1.0000
  N   N379      1.0  0.59326  0.67520  0.89630  1.0000
  C   C4578     1.0  0.59741  0.67096  0.90700  1.0000
  C   C4579     1.0  0.60139  0.67536  0.88523  1.0000
  C   C4580     1.0  0.60999  0.66663  0.90681  1.0000
  C   C4581     1.0  0.61405  0.67120  0.88471  1.0000
  C   C4582     1.0  0.61835  0.66675  0.89558  1.0000
  C   C4583     1.0  0.58011  0.68031  0.89678  1.0000
  H   H4572     1.0  0.59099  0.67108  0.91576  1.0000
  H   H4573     1.0  0.59816  0.67906  0.87672  1.0000
  H   H4574     1.0  0.61324  0.66343  0.91534  1.0000
  H   H4575     1.0  0.62049  0.67165  0.87591  1.0000
  C   C4584     1.0  0.60838  0.91500  0.79475  1.0000
  H   H4576     1.0  0.57751  0.68066  0.88809  1.0000
  H   H4577     1.0  0.57443  0.67463  0.90432  1.0000
  H   H4578     1.0  0.57775  0.68980  0.89841  1.0000
  N   N380      1.0  0.58142  0.88873  0.81555  1.0000
  H   H4579     1.0  0.82559  0.67744  0.98182  1.0000
  C   C4585     1.0  0.58123  0.90005  0.81728  1.0000
  H   H4580     1.0  0.55645  0.84508  0.81146  1.0000
  H   H4581     1.0  0.87995  0.48973  0.84419  1.0000
  C   C4586     1.0  0.58820  0.98631  0.81415  1.0000
  C   C4587     1.0  0.84007  0.65613  0.78917  1.0000
  H   H4582     1.0  0.76858  0.59993  0.83784  1.0000
  H   H4583     1.0  0.55468  0.90355  0.83885  1.0000
  H   H4584     1.0  0.76816  0.62245  0.83215  1.0000
  C   C4588     1.0  0.56035  0.93046  0.78956  1.0000
  H   H4585     1.0  0.60027  0.88494  0.80653  1.0000
  C   C4589     1.0  0.86333  0.65358  0.80742  1.0000
  C   C4590     1.0  0.57214  0.88271  0.82192  1.0000
  N   N381      1.0  0.79758  0.61197  0.81861  1.0000
  C   C4591     1.0  0.86554  0.50151  0.83543  1.0000
  H   H4586     1.0  0.81637  0.61199  0.81618  1.0000
  S   S1535     1.0  0.50632  0.90673  0.84977  1.0000
  C   C4592     1.0  0.61320  0.97680  0.80780  1.0000
  C   C4593     1.0  0.51555  0.67229  0.84647  1.0000
  C   C4594     1.0  0.50758  0.66152  0.86682  1.0000
  N   N382      1.0  0.63352  0.87050  0.79209  1.0000
  H   H4587     1.0  0.87376  0.56926  0.85448  1.0000
  C   C4595     1.0  0.81795  0.50590  0.89546  1.0000
  H   H4588     1.0  0.84381  0.66018  0.80948  1.0000
  C   C4596     1.0  0.77642  0.61595  0.82912  1.0000
  C   C4597     1.0  0.77667  0.60337  0.83234  1.0000
  H   H4589     1.0  0.80322  0.51593  0.88613  1.0000
  H   H4590     1.0  0.51191  0.60346  0.85205  1.0000
  C   C4598     1.0  0.81050  0.50775  0.88711  1.0000
  N   N383      1.0  0.82742  0.49588  0.89645  1.0000
  C   C4599     1.0  0.82220  0.48884  0.88114  1.0000
  H   H4591     1.0  0.63940  0.85137  0.79215  1.0000
  N   N384      1.0  0.64000  0.98459  0.87606  1.0000
  C   C4600     1.0  0.54940  0.92657  0.79581  1.0000
  C   C4601     1.0  0.53012  0.92120  0.79624  1.0000
  S   S1536     1.0  0.85942  0.49109  0.87770  1.0000
  C   C4602     1.0  0.50705  0.66874  0.88511  1.0000
  H   H4592     1.0  0.83694  0.64742  0.79087  1.0000
  H   H4593     1.0  0.81134  0.61383  0.80227  1.0000
  H   H4594     1.0  0.83809  0.65821  0.97576  1.0000
  H   H4595     1.0  0.61155  0.85327  0.79851  1.0000
  H   H4596     1.0  0.61291  0.67506  0.96526  1.0000
  H   H4597     1.0  0.51462  0.67074  0.88803  1.0000
  H   H4598     1.0  0.56086  0.89618  0.78411  1.0000
  C   C4603     1.0  0.59516  0.67061  0.97345  1.0000
  H   H4599     1.0  0.84458  0.48925  0.90207  1.0000
  H   H4600     1.0  0.50616  0.65923  0.89005  1.0000
  C   C4604     1.0  0.87357  0.64529  0.78941  1.0000
  H   H4601     1.0  0.49972  0.60179  0.86523  1.0000
  H   H4602     1.0  0.49836  0.67522  0.88795  1.0000
  H   H4603     1.0  0.60835  0.59996  0.98018  1.0000
  H   H4604     1.0  0.51213  0.58875  0.86250  1.0000
  H   H4605     1.0  0.85242  0.49321  0.81676  1.0000
  C   C4605     1.0  0.49881  0.86857  0.87272  1.0000
  H   H4606     1.0  0.88178  0.64063  0.78392  1.0000
  C   C4606     1.0  0.49628  0.88104  0.87281  1.0000
  C   C4607     1.0  0.57312  0.85501  0.78316  1.0000
  H   H4607     1.0  0.49686  0.59547  0.82219  1.0000
  C   C4608     1.0  0.59307  0.93513  0.78295  1.0000
  H   H4608     1.0  0.83103  0.48826  0.91424  1.0000
