data_image0
_chemical_formula_structural       FeSHFeS2FeSFeS3FeS2FeS2FeHFeS3C3HC2H3CHC2HC4H3C6H7CH2CHCHCHC2HCHN2C3NCHCHC2HCH4NHC3H5CHC3HCHC2FeS2FeS2FeSFeS3FeS2FeS2FeSFeS3FeS2FeS2FeSFeS3FeS2FeS2FeSFeS3C2H2C3H3C6H4NHCH2NHC8H6C6H5C6H4C4H2C2H2C3H2C2HCHC2HC3H3C4HNHCH10NC7HCH2CH4CH3C5NHC2HCH4CHCHC2H2CHC3H2CH3NHCH2C3HC2H2CHC2H2CHCNC2HNHCHCH7CFeS2FeS2FeSFeS3FeS2FeS2FeSFeS3C2HCH3CHC2H4C2HC2HC6H4C6H4C6H4CH2C3HC2H5SHC6HNH2CN2C6H8C2H3CHNC2H2CH4C2HC2HSNH4C2HCSHFeS2FeS2FeSFeS3FeS2FeS2FeSFeS3C3HC5HC6H5CNH2CH3C6H4C6H4SC3H2C3H4C2H4C3HNCH6C3H9C2HCHNCHCHC3HCH2CHFeS2FeS2FeSFeS3FeS2FeS2FeSFeS3FeS2FeS2FeSFeS3FeS2FeS2FeSFeS3C6H4C3H2C2H2C10H4C6H4C6H4CHCH2C2NH3C2H2C2H3NC6H8NH5CH2CHNC6H8N2C2H2CH2C2HCHCH2C4H4CHCHC7HC4H2CH3CHCH2C2H5C2H3CFeS2FeS2FeCFeS2FeS2FeS2FeSFeS2CNC2NCHNH3C2H2SHC6H4C3H2C2H3CH3C6NC2H5C3H2C2H2C2HC2H3C2HCH6CHCHCHNH3CFeSHFeS2FeSFeS3FeS2FeS2FeCFeS3H3CH2CHC6H5C2H2C3HCH2NH2CH4C3H2CHCHC2H4CNHC4NCHCHCHC5HCH3C2HC2HC2FeS2FeS2FeSFeS3FeS2FeS2FeSFeS3FeS2FeS2FeSFeS3FeS2FeS2FeSFeS3C6H4CH4CH3CH2CHC2H2CH3C6H5C4H2C7H4NC2NH2C6H5C4HCHCH2CH5CHC2H3C3H3NC6H9NC6H6C2NC3HCHC2NCH2CHCH4CH4C4HNC2HCH2FeS2FeS2FeSFeS3FeS2FeS2FeSFeS3C2HCH2C2NHC6H4C2H2C4H2C6H4C6H4CSC3HCHC5H2C2H4CNC6H11NSH2NH3NH3C5H5C2H2C2HSFeS2FeS2FeSFeS3FeS2FeS2FeSFeS3C6H4C3H2C3HCHCH2C3NH2C6H4C6H5CH2CNC2H5CHCHC2H3C2H2C2HNCHCH2CH2C3H2C2H2C2NH4CH3NC5H2C2H2CSCH2CH3CHCH2NH2C3H2FeS2FeS2FeSFeS3FeS2FeS2FeSFeS3FeS2FeS2FeSFeS3FeS2FeS2FeSFeS3CHC2HCHCNHC6H4CH2CH2C3H3C6H4CHC2HC6H4C6H4C2H4C3N2C5H6NC2HC3H4C6H2C2H3CH5NH3NC6H8C5H5CHCH4CN2HC4H2C3HCH2CH3CH3CHCH2C8HFeSFeS2FeSFeS3FeS2FeS2FeSFeS2C3HC3H2C3H2CHC2H2C2HC7H5NC3H5C3H2NC6H9CH3C2H2CH2CH2CHCHNHNHC
_chemical_formula_sum              "Fe128 S256 H768 C768 N64"
_cell_length_a       42.3155
_cell_length_b       86.8617
_cell_length_c       42.4289
_cell_angle_alpha    90.1341
_cell_angle_beta     90.2381
_cell_angle_gamma    89.9305

_space_group_name_H-M_alt    "P 1"
_space_group_IT_number       1

loop_
  _space_group_symop_operation_xyz
  'x, y, z'

loop_
  _atom_site_type_symbol
  _atom_site_label
  _atom_site_symmetry_multiplicity
  _atom_site_fract_x
  _atom_site_fract_y
  _atom_site_fract_z
  _atom_site_occupancy
  Fe  Fe1       1.0  0.33657  0.30354  0.07883  1.0000
  S   S1        1.0  0.36479  0.29725  0.12201  1.0000
  H   H1        1.0  0.34742  0.22788  0.09208  1.0000
  Fe  Fe2       1.0  0.31112  0.27061  0.06907  1.0000
  S   S2        1.0  0.33904  0.26253  0.11140  1.0000
  S   S3        1.0  0.27870  0.25130  0.04916  1.0000
  Fe  Fe3       1.0  0.32160  0.28377  0.13628  1.0000
  S   S4        1.0  0.30923  0.28120  0.18868  1.0000
  Fe  Fe4       1.0  0.38022  0.27664  0.09403  1.0000
  S   S5        1.0  0.43005  0.26577  0.09600  1.0000
  S   S6        1.0  0.29196  0.29155  0.09497  1.0000
  S   S7        1.0  0.35368  0.28320  0.04987  1.0000
  Fe  Fe5       1.0  0.17610  0.28302  0.32803  1.0000
  S   S8        1.0  0.20654  0.29284  0.36693  1.0000
  S   S9        1.0  0.18552  0.28312  0.27458  1.0000
  Fe  Fe6       1.0  0.12066  0.27558  0.37403  1.0000
  S   S10       1.0  0.14828  0.28452  0.41559  1.0000
  S   S11       1.0  0.07222  0.26526  0.38646  1.0000
  Fe  Fe7       1.0  0.16144  0.30433  0.38379  1.0000
  H   H2        1.0  0.04327  0.30323  0.46044  1.0000
  Fe  Fe8       1.0  0.19083  0.27214  0.39591  1.0000
  S   S12       1.0  0.22161  0.25331  0.41999  1.0000
  S   S13       1.0  0.13203  0.29567  0.34329  1.0000
  S   S14       1.0  0.16220  0.26195  0.35577  1.0000
  C   C1        1.0  0.03292  0.27113  0.37638  1.0000
  C   C2        1.0  0.02669  0.28242  0.35372  1.0000
  C   C3        1.0  0.06518  0.31279  0.39739  1.0000
  H   H3        1.0  0.04606  0.28757  0.34096  1.0000
  C   C4        1.0  0.35358  0.24307  0.99068  1.0000
  C   C5        1.0  0.24038  0.24766  0.45626  1.0000
  H   H4        1.0  0.01156  0.25563  0.40973  1.0000
  H   H5        1.0  0.19054  0.22383  0.46327  1.0000
  H   H6        1.0  0.09932  0.25868  0.44884  1.0000
  C   C6        1.0  0.46920  0.27348  0.09243  1.0000
  H   H7        1.0  0.28059  0.24811  0.19270  1.0000
  C   C7        1.0  0.47512  0.28816  0.08023  1.0000
  C   C8        1.0  0.18435  0.99055  0.01154  1.0000
  H   H8        1.0  0.45549  0.29541  0.07331  1.0000
  C   C9        1.0  0.26312  0.24385  0.01262  1.0000
  C   C10       1.0  0.38207  0.24133  0.04952  1.0000
  C   C11       1.0  0.39536  0.25066  0.02626  1.0000
  C   C12       1.0  0.11934  0.25104  0.45234  1.0000
  H   H9        1.0  0.02083  0.28869  0.43922  1.0000
  H   H10       1.0  0.41646  0.25735  0.03141  1.0000
  H   H11       1.0  0.15727  0.21115  0.40680  1.0000
  C   C13       1.0  0.27527  0.28404  0.21286  1.0000
  C   C14       1.0  0.27756  0.28076  0.24529  1.0000
  C   C15       1.0  0.25070  0.28125  0.26496  1.0000
  C   C16       1.0  0.22104  0.28495  0.25236  1.0000
  C   C17       1.0  0.21894  0.28871  0.22011  1.0000
  C   C18       1.0  0.24585  0.28834  0.20049  1.0000
  H   H12       1.0  0.30017  0.27746  0.25520  1.0000
  H   H13       1.0  0.25278  0.27827  0.28963  1.0000
  H   H14       1.0  0.19616  0.29162  0.21010  1.0000
  H   H15       1.0  0.24363  0.29104  0.17572  1.0000
  H   H16       1.0  0.39336  0.24079  0.07251  1.0000
  H   H17       1.0  0.16577  0.25708  0.20266  1.0000
  H   H18       1.0  0.08844  0.30929  0.40554  1.0000
  C   C19       1.0  0.25459  0.23298  0.45820  1.0000
  H   H19       1.0  0.16003  0.22806  0.38202  1.0000
  H   H20       1.0  0.19234  0.26024  0.15113  1.0000
  C   C20       1.0  0.23088  0.22422  0.98524  1.0000
  H   H21       1.0  0.23747  0.25564  0.11813  1.0000
  C   C21       1.0  0.20823  0.24991  0.22656  1.0000
  H   H22       1.0  0.25446  0.22557  0.43766  1.0000
  C   C22       1.0  0.19070  0.25438  0.20021  1.0000
  H   H23       1.0  0.25470  0.24459  0.24435  1.0000
  C   C23       1.0  0.25377  0.25661  0.13868  1.0000
  C   C24       1.0  0.34114  0.23373  0.01439  1.0000
  H   H24       1.0  0.32788  0.01747  0.45373  1.0000
  C   C25       1.0  0.17039  0.23140  0.46010  1.0000
  H   H25       1.0  0.34990  0.21154  0.06560  1.0000
  N   N1        1.0  0.15567  0.23241  0.43141  1.0000
  N   N2        1.0  0.35492  0.23327  0.04359  1.0000
  C   C26       1.0  0.34122  0.22354  0.06817  1.0000
  C   C27       1.0  0.16698  0.22298  0.40506  1.0000
  C   C28       1.0  0.24276  0.23100  0.01332  1.0000
  N   N3        1.0  0.03853  0.30718  0.41143  1.0000
  C   C29       1.0  0.32476  0.00725  0.46791  1.0000
  H   H26       1.0  0.19700  0.24927  0.24951  1.0000
  C   C30       1.0  0.13002  0.24183  0.42749  1.0000
  H   H27       1.0  0.26380  0.26841  0.13923  1.0000
  C   C31       1.0  0.04146  0.29659  0.43812  1.0000
  C   C32       1.0  0.20592  0.25622  0.17122  1.0000
  H   H28       1.0  0.21523  0.21440  0.98645  1.0000
  C   C33       1.0  0.00924  0.31184  0.40145  1.0000
  H   H29       1.0  0.19327  0.22249  0.40515  1.0000
  H   H30       1.0  0.23602  0.22621  0.03582  1.0000
  H   H31       1.0  0.31495  0.22362  0.06658  1.0000
  H   H32       1.0  0.49115  0.25290  0.11059  1.0000
  N   N4        1.0  0.23769  0.25354  0.16856  1.0000
  H   H33       1.0  0.27335  0.24830  0.13474  1.0000
  C   C34       1.0  0.25509  0.24926  0.19435  1.0000
  C   C35       1.0  0.24062  0.24730  0.22366  1.0000
  C   C36       1.0  0.38077  0.25167  0.99679  1.0000
  H   H34       1.0  0.11793  0.24244  0.40492  1.0000
  H   H35       1.0  0.32444  0.99186  0.42753  1.0000
  H   H36       1.0  0.06274  0.28918  0.43553  1.0000
  H   H37       1.0  0.36180  0.22680  0.47249  1.0000
  H   H38       1.0  0.31983  0.22718  0.00957  1.0000
  C   C37       1.0  0.49529  0.26425  0.10104  1.0000
  H   H39       1.0  0.20373  0.99501  0.02550  1.0000
  C   C38       1.0  0.00719  0.26447  0.39234  1.0000
  C   C39       1.0  0.32286  0.99272  0.45293  1.0000
  C   C40       1.0  0.13510  0.25059  0.48129  1.0000
  H   H40       1.0  0.17736  0.99309  0.15194  1.0000
  C   C41       1.0  0.17480  0.99848  0.98397  1.0000
  H   H41       1.0  0.23009  0.26830  0.48235  1.0000
  C   C42       1.0  0.00609  0.32198  0.37606  1.0000
  C   C43       1.0  0.24083  0.25700  0.48321  1.0000
  Fe  Fe9       1.0  0.11138  0.04179  0.84888  1.0000
  S   S15       1.0  0.11321  0.04363  0.90153  1.0000
  S   S16       1.0  0.06596  0.04632  0.82194  1.0000
  Fe  Fe10      1.0  0.18300  0.03738  0.84245  1.0000
  S   S17       1.0  0.18980  0.03878  0.89539  1.0000
  S   S18       1.0  0.22922  0.03519  0.81436  1.0000
  Fe  Fe11      1.0  0.14698  0.02351  0.89965  1.0000
  S   S19       1.0  0.13800  0.00163  0.92911  1.0000
  Fe  Fe12      1.0  0.15557  0.05871  0.89314  1.0000
  S   S20       1.0  0.16269  0.08080  0.92129  1.0000
  S   S21       1.0  0.14235  0.02072  0.84665  1.0000
  S   S22       1.0  0.15166  0.05825  0.84055  1.0000
  Fe  Fe13      1.0  0.37757  0.03395  0.62388  1.0000
  S   S23       1.0  0.37596  0.04801  0.57999  1.0000
  S   S24       1.0  0.42369  0.02264  0.63885  1.0000
  Fe  Fe14      1.0  0.30720  0.03936  0.63794  1.0000
  S   S25       1.0  0.30145  0.05383  0.59387  1.0000
  S   S26       1.0  0.26170  0.03559  0.66641  1.0000
  Fe  Fe15      1.0  0.33065  0.03547  0.56951  1.0000
  S   S27       1.0  0.32426  0.02738  0.51830  1.0000
  Fe  Fe16      1.0  0.34739  0.06489  0.60823  1.0000
  S   S28       1.0  0.36554  0.08957  0.61137  1.0000
  S   S29       1.0  0.33350  0.02036  0.61227  1.0000
  S   S30       1.0  0.35164  0.05140  0.65339  1.0000
  Fe  Fe17      1.0  0.31759  0.17571  0.58608  1.0000
  S   S31       1.0  0.35268  0.17847  0.62516  1.0000
  S   S32       1.0  0.29624  0.15227  0.57473  1.0000
  Fe  Fe18      1.0  0.31307  0.21067  0.57378  1.0000
  S   S33       1.0  0.34855  0.21556  0.61302  1.0000
  S   S34       1.0  0.28962  0.23165  0.54912  1.0000
  Fe  Fe19      1.0  0.37712  0.19560  0.59380  1.0000
  S   S35       1.0  0.42989  0.19275  0.58058  1.0000
  Fe  Fe20      1.0  0.32132  0.19795  0.64144  1.0000
  S   S36       1.0  0.31078  0.19766  0.69459  1.0000
  S   S37       1.0  0.34310  0.19173  0.55303  1.0000
  S   S38       1.0  0.28479  0.19428  0.60376  1.0000
  Fe  Fe21      1.0  0.17814  0.17100  0.86971  1.0000
  S   S39       1.0  0.14045  0.17948  0.83668  1.0000
  S   S40       1.0  0.18950  0.14575  0.85951  1.0000
  Fe  Fe22      1.0  0.19198  0.20406  0.89541  1.0000
  S   S41       1.0  0.15418  0.21402  0.86337  1.0000
  S   S42       1.0  0.22598  0.22178  0.91907  1.0000
  Fe  Fe23      1.0  0.12338  0.19385  0.87727  1.0000
  S   S43       1.0  0.07209  0.19269  0.89602  1.0000
  Fe  Fe24      1.0  0.17457  0.19853  0.82551  1.0000
  S   S44       1.0  0.18360  0.20591  0.77445  1.0000
  S   S45       1.0  0.16018  0.18455  0.91148  1.0000
  S   S46       1.0  0.21311  0.18947  0.85643  1.0000
  C   C44       1.0  0.42683  0.23217  0.56417  1.0000
  C   C45       1.0  0.03236  0.19384  0.88118  1.0000
  H   H42       1.0  0.27943  0.21636  0.48732  1.0000
  H   H43       1.0  0.04415  0.20105  0.83423  1.0000
  C   C46       1.0  0.23379  0.00458  0.62453  1.0000
  C   C47       1.0  0.46995  0.19665  0.59232  1.0000
  C   C48       1.0  0.47767  0.20610  0.61803  1.0000
  H   H44       1.0  0.01218  0.18669  0.92539  1.0000
  H   H45       1.0  0.45898  0.21107  0.63209  1.0000
  H   H46       1.0  0.22246  0.99313  0.62712  1.0000
  C   C49       1.0  0.27423  0.19881  0.71534  1.0000
  C   C50       1.0  0.27325  0.19406  0.74704  1.0000
  C   C51       1.0  0.24537  0.19551  0.76503  1.0000
  C   C52       1.0  0.21818  0.20207  0.75174  1.0000
  C   C53       1.0  0.21905  0.20664  0.71992  1.0000
  C   C54       1.0  0.24676  0.20490  0.70173  1.0000
  H   H47       1.0  0.29431  0.18934  0.75789  1.0000
  H   H48       1.0  0.24520  0.19195  0.78943  1.0000
  H   H49       1.0  0.19823  0.21173  0.70932  1.0000
  H   H50       1.0  0.24709  0.20870  0.67746  1.0000
  N   N5        1.0  0.21331  0.23876  0.80948  1.0000
  H   H51       1.0  0.43492  0.05338  0.68583  1.0000
  C   C55       1.0  0.26989  0.23716  0.51322  1.0000
  H   H52       1.0  0.21974  0.24034  0.75975  1.0000
  H   H53       1.0  0.23831  0.16205  0.66756  1.0000
  N   N6        1.0  0.08470  0.15183  0.87487  1.0000
  H   H54       1.0  0.17349  0.24030  0.50754  1.0000
  C   C56       1.0  0.23941  0.23007  0.95572  1.0000
  C   C57       1.0  0.43095  0.22339  0.53695  1.0000
  C   C58       1.0  0.34642  0.10670  0.59890  1.0000
  C   C59       1.0  0.31617  0.10666  0.58547  1.0000
  C   C60       1.0  0.30140  0.12069  0.57740  1.0000
  C   C61       1.0  0.31664  0.13486  0.58279  1.0000
  C   C62       1.0  0.34706  0.13484  0.59577  1.0000
  C   C63       1.0  0.36187  0.12084  0.60370  1.0000
  H   H55       1.0  0.30408  0.09586  0.58150  1.0000
  H   H56       1.0  0.27791  0.12059  0.56722  1.0000
  H   H57       1.0  0.35918  0.14562  0.59983  1.0000
  H   H58       1.0  0.38534  0.12100  0.61389  1.0000
  H   H59       1.0  0.41740  0.01938  0.56718  1.0000
  H   H60       1.0  0.16454  0.23525  0.80105  1.0000
  C   C64       1.0  0.16438  0.09933  0.90393  1.0000
  C   C65       1.0  0.16312  0.10132  0.87124  1.0000
  C   C66       1.0  0.16882  0.11591  0.85805  1.0000
  C   C67       1.0  0.17541  0.12869  0.87735  1.0000
  C   C68       1.0  0.17502  0.12689  0.91009  1.0000
  C   C69       1.0  0.16962  0.11225  0.92328  1.0000
  H   H61       1.0  0.15905  0.09152  0.85607  1.0000
  H   H62       1.0  0.16935  0.11716  0.83270  1.0000
  H   H63       1.0  0.18062  0.13657  0.92522  1.0000
  H   H64       1.0  0.17068  0.11082  0.94860  1.0000
  H   H65       1.0  0.25070  0.04024  0.54611  1.0000
  C   C70       1.0  0.23752  0.03580  0.77305  1.0000
  C   C71       1.0  0.21369  0.03571  0.75007  1.0000
  C   C72       1.0  0.22158  0.03578  0.71770  1.0000
  C   C73       1.0  0.25331  0.03617  0.70772  1.0000
  C   C74       1.0  0.27712  0.03655  0.73073  1.0000
  C   C75       1.0  0.26925  0.03628  0.76310  1.0000
  H   H66       1.0  0.18917  0.03535  0.75717  1.0000
  H   H67       1.0  0.20288  0.03548  0.70024  1.0000
  H   H68       1.0  0.30163  0.03679  0.72360  1.0000
  H   H69       1.0  0.28796  0.03633  0.78055  1.0000
  C   C76       1.0  0.25991  0.24289  0.95501  1.0000
  C   C77       1.0  0.46063  0.02933  0.62476  1.0000
  C   C78       1.0  0.46239  0.04076  0.60170  1.0000
  C   C79       1.0  0.20894  0.99778  0.84936  1.0000
  H   H70       1.0  0.44111  0.04548  0.59161  1.0000
  H   H71       1.0  0.24136  0.03282  0.60168  1.0000
  C   C80       1.0  0.03044  0.03747  0.83397  1.0000
  C   C81       1.0  0.03036  0.02610  0.85721  1.0000
  H   H72       1.0  0.00171  0.01101  0.88551  1.0000
  H   H73       1.0  0.05244  0.02220  0.86739  1.0000
  C   C82       1.0  0.18086  0.24468  0.80816  1.0000
  C   C83       1.0  0.01717  0.06401  0.88807  1.0000
  C   C84       1.0  0.00711  0.19008  0.90137  1.0000
  H   H74       1.0  0.04018  0.04851  0.92043  1.0000
  H   H75       1.0  0.33776  0.21856  0.50336  1.0000
  C   C85       1.0  0.48882  0.02344  0.63765  1.0000
  C   C86       1.0  0.41044  0.00873  0.55568  1.0000
  H   H76       1.0  0.18686  0.00889  0.97697  1.0000
  C   C87       1.0  0.22994  0.99790  0.90228  1.0000
  H   H77       1.0  0.25719  0.00443  0.63656  1.0000
  C   C88       1.0  0.31819  0.99533  0.51880  1.0000
  C   C89       1.0  0.14985  0.99286  0.96548  1.0000
  H   H78       1.0  0.21856  0.01310  0.63694  1.0000
  C   C90       1.0  0.49186  0.04656  0.59232  1.0000
  C   C91       1.0  0.33200  0.14210  0.68205  1.0000
  C   C92       1.0  0.32462  0.12722  0.67198  1.0000
  H   H79       1.0  0.31654  0.16559  0.68431  1.0000
  H   H80       1.0  0.35436  0.14443  0.69367  1.0000
  H   H81       1.0  0.34133  0.11787  0.67533  1.0000
  C   C93       1.0  0.31056  0.15407  0.67643  1.0000
  C   C94       1.0  0.40888  0.99527  0.57362  1.0000
  C   C95       1.0  0.25571  0.25184  0.51127  1.0000
  C   C96       1.0  0.26076  0.23103  0.78274  1.0000
  H   H82       1.0  0.24505  0.11822  0.86281  1.0000
  N   N7        1.0  0.23777  0.00883  0.59136  1.0000
  H   H83       1.0  0.23334  0.07428  0.90758  1.0000
  C   C97       1.0  0.27548  0.13680  0.65064  1.0000
  H   H84       1.0  0.22844  0.06202  0.85509  1.0000
  H   H85       1.0  0.13013  0.15301  0.89668  1.0000
  H   H86       1.0  0.17316  0.24921  0.83142  1.0000
  H   H87       1.0  0.10259  0.13986  0.91465  1.0000
  H   H88       1.0  0.25536  0.16454  0.62872  1.0000
  H   H89       1.0  0.45255  0.21681  0.53373  1.0000
  H   H90       1.0  0.17880  0.25418  0.79080  1.0000
  H   H91       1.0  0.49284  0.05567  0.57501  1.0000
  H   H92       1.0  0.21221  0.23481  0.85910  1.0000
  H   H93       1.0  0.25629  0.25935  0.53166  1.0000
  N   N8        1.0  0.28286  0.15134  0.66064  1.0000
  C   C98       1.0  0.29605  0.12450  0.65646  1.0000
  C   C99       1.0  0.00158  0.04235  0.82081  1.0000
  C   C100      1.0  0.23025  0.23726  0.78223  1.0000
  C   C101      1.0  0.43357  0.07099  0.65014  1.0000
  C   C102      1.0  0.26059  0.16392  0.65441  1.0000
  C   C103      1.0  0.32245  0.00867  0.50090  1.0000
  C   C104      1.0  0.24175  0.02398  0.58356  1.0000
  H   H94       1.0  0.25109  0.06832  0.79407  1.0000
  C   C105      1.0  0.45159  0.08002  0.62975  1.0000
  H   H95       1.0  0.29052  0.11305  0.64775  1.0000
  H   H96       1.0  0.27372  0.22946  0.76092  1.0000
  C   C106      1.0  0.27360  0.22600  0.81126  1.0000
  H   H97       1.0  0.20888  0.06792  0.79908  1.0000
  H   H98       1.0  0.09867  0.16056  0.91983  1.0000
  H   H99       1.0  0.40924  0.21489  0.49463  1.0000
  H   H100      1.0  0.22685  0.08395  0.77971  1.0000
  C   C107      1.0  0.23247  0.07432  0.85665  1.0000
  H   H101      1.0  0.24196  0.10250  0.91158  1.0000
  H   H102      1.0  0.25400  0.13475  0.63723  1.0000
  H   H103      1.0  0.27029  0.17527  0.66173  1.0000
  C   C108      1.0  0.23579  0.08114  0.88637  1.0000
  C   C109      1.0  0.37431  0.23876  0.54631  1.0000
  C   C110      1.0  0.23000  0.07554  0.79914  1.0000
  C   C111      1.0  0.22579  0.23390  0.83755  1.0000
  C   C112      1.0  0.49489  0.19034  0.57448  1.0000
  N   N9        1.0  0.23363  0.08307  0.82992  1.0000
  H   H104      1.0  0.23932  0.10564  0.81080  1.0000
  C   C113      1.0  0.39835  0.23993  0.56894  1.0000
  C   C114      1.0  0.25605  0.22744  0.83888  1.0000
  H   H105      1.0  0.29681  0.22069  0.81179  1.0000
  C   C115      1.0  0.23871  0.09862  0.83188  1.0000
  H   H106      1.0  0.39460  0.24650  0.59039  1.0000
  H   H107      1.0  0.24586  0.01300  0.86523  1.0000
  H   H108      1.0  0.24556  0.99265  0.51903  1.0000
  H   H109      1.0  0.26546  0.22335  0.86121  1.0000
  C   C116      1.0  0.24068  0.09699  0.88862  1.0000
  H   H110      1.0  0.44536  0.23252  0.58193  1.0000
  C   C117      1.0  0.40628  0.22229  0.51502  1.0000
  H   H111      1.0  0.03917  0.06824  0.87825  1.0000
  C   C118      1.0  0.24236  0.10580  0.86124  1.0000
  C   C119      1.0  0.24782  0.01696  0.52885  1.0000
  H   H112      1.0  0.20843  0.00248  0.82564  1.0000
  H   H113      1.0  0.48941  0.18303  0.55452  1.0000
  C   C120      1.0  0.09632  0.14723  0.84631  1.0000
  H   H114      1.0  0.08708  0.14481  0.79645  1.0000
  C   C121      1.0  0.03444  0.15752  0.85095  1.0000
  C   C122      1.0  0.10494  0.15122  0.90295  1.0000
  C   C123      1.0  0.23921  0.99763  0.56864  1.0000
  H   H115      1.0  0.04475  0.16019  0.90022  1.0000
  H   H116      1.0  0.26668  0.24764  0.93249  1.0000
  C   C124      1.0  0.44871  0.06096  0.67093  1.0000
  H   H117      1.0  0.39710  0.03275  0.51986  1.0000
  H   H118      1.0  0.00154  0.05105  0.80260  1.0000
  H   H119      1.0  0.12057  0.14327  0.84424  1.0000
  N   N10       1.0  0.37863  0.23015  0.51961  1.0000
  H   H120      1.0  0.35197  0.24456  0.55050  1.0000
  C   C125      1.0  0.24396  0.00153  0.53702  1.0000
  H   H121      1.0  0.03164  0.15433  0.80068  1.0000
  H   H122      1.0  0.31647  0.99618  0.54417  1.0000
  C   C126      1.0  0.04639  0.15335  0.82156  1.0000
  C   C127      1.0  0.05397  0.15655  0.87756  1.0000
  C   C128      1.0  0.07746  0.14805  0.81918  1.0000
  H   H123      1.0  0.01045  0.16186  0.85308  1.0000
  C   C129      1.0  0.40532  0.02271  0.50580  1.0000
  C   C130      1.0  0.26889  0.22769  0.48644  1.0000
  H   H124      1.0  0.25266  0.02012  0.50459  1.0000
  H   H125      1.0  0.40800  0.07158  0.64934  1.0000
  C   C131      1.0  0.02520  0.19813  0.85017  1.0000
  H   H126      1.0  0.24572  0.00265  0.92000  1.0000
  C   C132      1.0  0.22997  0.00372  0.87165  1.0000
  C   C133      1.0  0.24681  0.02827  0.55221  1.0000
  H   H127      1.0  0.43942  0.08760  0.61334  1.0000
  H   H128      1.0  0.12757  0.25797  0.50050  1.0000
  C   C134      1.0  0.01776  0.05285  0.91165  1.0000
  H   H129      1.0  0.48777  0.01454  0.65542  1.0000
  C   C135      1.0  0.39535  0.99494  0.50963  1.0000
  N   N11       1.0  0.40319  0.00849  0.52422  1.0000
  C   C136      1.0  0.00159  0.01979  0.86744  1.0000
  C   C137      1.0  0.16072  0.24065  0.48530  1.0000
  H   H130      1.0  0.41440  0.99559  0.59865  1.0000
  N   N12       1.0  0.48388  0.07903  0.63001  1.0000
  H   H131      1.0  0.39039  0.25918  0.97885  1.0000
  C   C138      1.0  0.48165  0.06038  0.67173  1.0000
  H   H132      1.0  0.49368  0.05234  0.68722  1.0000
  C   C139      1.0  0.35276  0.22853  0.49678  1.0000
  H   H133      1.0  0.43009  0.02466  0.49830  1.0000
  H   H134      1.0  0.34182  0.24380  0.96795  1.0000
  H   H135      1.0  0.33758  0.23900  0.49643  1.0000
  H   H136      1.0  0.38969  0.99470  0.48466  1.0000
  H   H137      1.0  0.38967  0.02226  0.48468  1.0000
  H   H138      1.0  0.28693  0.25967  0.98191  1.0000
  H   H139      1.0  0.48897  0.09079  0.58613  1.0000
  C   C140      1.0  0.27150  0.24978  0.98311  1.0000
  Fe  Fe25      1.0  0.17563  0.41696  0.38373  1.0000
  S   S47       1.0  0.14168  0.41540  0.34333  1.0000
  S   S48       1.0  0.20354  0.39570  0.39844  1.0000
  Fe  Fe26      1.0  0.16608  0.45203  0.39092  1.0000
  S   S49       1.0  0.13216  0.45257  0.34957  1.0000
  S   S50       1.0  0.17307  0.47569  0.41423  1.0000
  Fe  Fe27      1.0  0.11095  0.43150  0.37144  1.0000
  S   S51       1.0  0.05987  0.42678  0.38517  1.0000
  Fe  Fe28      1.0  0.16648  0.43656  0.32500  1.0000
  S   S52       1.0  0.17832  0.43622  0.27209  1.0000
  S   S53       1.0  0.14343  0.43154  0.41366  1.0000
  S   S54       1.0  0.20193  0.43753  0.36447  1.0000
  Fe  Fe29      1.0  0.31288  0.41446  0.09483  1.0000
  S   S55       1.0  0.34365  0.41355  0.13779  1.0000
  S   S56       1.0  0.28397  0.39284  0.08600  1.0000
  Fe  Fe30      1.0  0.32982  0.44839  0.08071  1.0000
  S   S57       1.0  0.36223  0.44916  0.12316  1.0000
  S   S58       1.0  0.32631  0.47232  0.05740  1.0000
  Fe  Fe31      1.0  0.37928  0.42585  0.10781  1.0000
  S   S59       1.0  0.42843  0.41561  0.10117  1.0000
  Fe  Fe32      1.0  0.32329  0.43677  0.14929  1.0000
  S   S60       1.0  0.30985  0.44415  0.19939  1.0000
  S   S61       1.0  0.34932  0.42563  0.06377  1.0000
  S   S62       1.0  0.29013  0.43719  0.10797  1.0000
  C   C141      1.0  0.32501  0.48002  0.01820  1.0000
  C   C142      1.0  0.25945  0.47269  0.12430  1.0000
  H   H140      1.0  0.31500  0.35190  0.14830  1.0000
  C   C143      1.0  0.49547  0.44406  0.13898  1.0000
  H   H141      1.0  0.49633  0.45430  0.15352  1.0000
  H   H142      1.0  0.39012  0.39007  0.12573  1.0000
  H   H143      1.0  0.34528  0.37562  0.14859  1.0000
  C   C144      1.0  0.46470  0.42416  0.11260  1.0000
  H   H144      1.0  0.38210  0.45866  0.02973  1.0000
  C   C145      1.0  0.46599  0.43752  0.13104  1.0000
  C   C146      1.0  0.38950  0.37762  0.12433  1.0000
  H   H145      1.0  0.44434  0.44274  0.13937  1.0000
  H   H146      1.0  0.17479  0.45929  0.47495  1.0000
  H   H147      1.0  0.27537  0.47561  0.20176  1.0000
  H   H148      1.0  0.21518  0.46516  0.10399  1.0000
  C   C147      1.0  0.23053  0.46892  0.18232  1.0000
  C   C148      1.0  0.02470  0.43562  0.37167  1.0000
  H   H149      1.0  0.32389  0.47327  0.16635  1.0000
  C   C149      1.0  0.02415  0.44577  0.34612  1.0000
  C   C150      1.0  0.09296  0.46131  0.47262  1.0000
  H   H150      1.0  0.04603  0.44902  0.33485  1.0000
  C   C151      1.0  0.21573  0.43762  0.25299  1.0000
  C   C152      1.0  0.21852  0.43273  0.22144  1.0000
  C   C153      1.0  0.24739  0.43409  0.20504  1.0000
  C   C154      1.0  0.27379  0.44064  0.21984  1.0000
  C   C155      1.0  0.27106  0.44542  0.25146  1.0000
  C   C156      1.0  0.24235  0.44382  0.26802  1.0000
  H   H151      1.0  0.19815  0.42789  0.20953  1.0000
  H   H152      1.0  0.24900  0.43037  0.18074  1.0000
  H   H153      1.0  0.29123  0.45056  0.26317  1.0000
  H   H154      1.0  0.24062  0.44776  0.29217  1.0000
  C   C157      1.0  0.18694  0.37696  0.39629  1.0000
  C   C158      1.0  0.20656  0.36401  0.40038  1.0000
  C   C159      1.0  0.19408  0.34896  0.39887  1.0000
  C   C160      1.0  0.16165  0.34676  0.39422  1.0000
  C   C161      1.0  0.14210  0.35972  0.39005  1.0000
  C   C162      1.0  0.15471  0.37472  0.39059  1.0000
  H   H155      1.0  0.23145  0.36562  0.40520  1.0000
  H   H156      1.0  0.20929  0.33912  0.40270  1.0000
  H   H157      1.0  0.11694  0.35816  0.38683  1.0000
  H   H158      1.0  0.13932  0.38456  0.38756  1.0000
  C   C163      1.0  0.32877  0.34539  0.06677  1.0000
  C   C164      1.0  0.29878  0.34652  0.08035  1.0000
  C   C165      1.0  0.28528  0.36113  0.08604  1.0000
  C   C166      1.0  0.30187  0.37470  0.07890  1.0000
  C   C167      1.0  0.33193  0.37354  0.06555  1.0000
  C   C168      1.0  0.34505  0.35897  0.05908  1.0000
  H   H159      1.0  0.28582  0.33618  0.08606  1.0000
  H   H160      1.0  0.26185  0.36192  0.09603  1.0000
  H   H161      1.0  0.34478  0.38388  0.05957  1.0000
  H   H162      1.0  0.36811  0.35822  0.04827  1.0000
  C   C169      1.0  0.22803  0.46769  0.12556  1.0000
  H   H163      1.0  0.17240  0.50593  0.44181  1.0000
  H   H164      1.0  0.09367  0.49647  0.43983  1.0000
  C   C170      1.0  0.26198  0.47373  0.18021  1.0000
  C   C171      1.0  0.38742  0.34579  0.12053  1.0000
  C   C172      1.0  0.17336  0.48188  0.45439  1.0000
  H   H165      1.0  0.18945  0.46160  0.15623  1.0000
  C   C173      1.0  0.21359  0.46574  0.15481  1.0000
  C   C174      1.0  0.30917  0.48036  0.15011  1.0000
  H   H166      1.0  0.33068  0.50342  0.03447  1.0000
  H   H167      1.0  0.21976  0.46716  0.20524  1.0000
  H   H168      1.0  0.31102  0.49265  0.15708  1.0000
  H   H169      1.0  0.27059  0.47405  0.10145  1.0000
  H   H170      1.0  0.39090  0.48666  0.03763  1.0000
  S   S63       1.0  0.34746  0.32743  0.05956  1.0000
  H   H171      1.0  0.40833  0.43348  0.02158  1.0000
  C   C175      1.0  0.32785  0.49607  0.01405  1.0000
  C   C176      1.0  0.17387  0.47153  0.47960  1.0000
  C   C177      1.0  0.36438  0.36935  0.13734  1.0000
  C   C178      1.0  0.40632  0.45709  0.03766  1.0000
  C   C179      1.0  0.33727  0.34509  0.14924  1.0000
  C   C180      1.0  0.45201  0.44068  0.04326  1.0000
  H   H172      1.0  0.43097  0.34746  0.09450  1.0000
  N   N13       1.0  0.27613  0.47537  0.15148  1.0000
  H   H173      1.0  0.01859  0.40967  0.32748  1.0000
  H   H174      1.0  0.06372  0.47097  0.40843  1.0000
  C   C181      1.0  0.45222  0.46665  0.06348  1.0000
  N   N14       1.0  0.42205  0.46881  0.05256  1.0000
  N   N15       1.0  0.23979  0.39653  0.32704  1.0000
  C   C182      1.0  0.21947  0.40406  0.30725  1.0000
  C   C183      1.0  0.23544  0.38126  0.33360  1.0000
  C   C184      1.0  0.19432  0.39625  0.29293  1.0000
  C   C185      1.0  0.21028  0.37312  0.32003  1.0000
  C   C186      1.0  0.18963  0.38070  0.29957  1.0000
  C   C187      1.0  0.26491  0.40519  0.34304  1.0000
  H   H175      1.0  0.22235  0.41625  0.30287  1.0000
  H   H176      1.0  0.25061  0.37548  0.35047  1.0000
  H   H177      1.0  0.17817  0.40239  0.27745  1.0000
  H   H178      1.0  0.20627  0.36116  0.32621  1.0000
  H   H179      1.0  0.16970  0.37461  0.28934  1.0000
  H   H180      1.0  0.25542  0.41038  0.36506  1.0000
  H   H181      1.0  0.28512  0.39761  0.34933  1.0000
  H   H182      1.0  0.27405  0.41456  0.32778  1.0000
  C   C188      1.0  0.41363  0.36976  0.10887  1.0000
  C   C189      1.0  0.41267  0.35373  0.10693  1.0000
  H   H183      1.0  0.31916  0.47899  0.12606  1.0000
  H   H184      1.0  0.43279  0.37619  0.09821  1.0000
  H   H185      1.0  0.34294  0.34227  0.17413  1.0000
  C   C190      1.0  0.40572  0.48343  0.05831  1.0000
  H   H186      1.0  0.33260  0.33421  0.13610  1.0000
  N   N16       1.0  0.36346  0.35363  0.13504  1.0000
  C   C191      1.0  0.09355  0.48768  0.45794  1.0000
  C   C192      1.0  0.17254  0.49778  0.46107  1.0000
  H   H187      1.0  0.38653  0.33333  0.11838  1.0000
  H   H188      1.0  0.49227  0.40721  0.08765  1.0000
  C   C193      1.0  0.08800  0.46818  0.41661  1.0000
  H   H189      1.0  0.39003  0.48229  0.07912  1.0000
  H   H190      1.0  0.46336  0.42955  0.04048  1.0000
  H   H191      1.0  0.42259  0.49302  0.06248  1.0000
  H   H192      1.0  0.46440  0.47572  0.07626  1.0000
  C   C194      1.0  0.49305  0.41751  0.10200  1.0000
  C   C195      1.0  0.42105  0.44287  0.03278  1.0000
  H   H193      1.0  0.10542  0.47446  0.40188  1.0000
  C   C196      1.0  0.03315  0.32753  0.36122  1.0000
  C   C197      1.0  0.46778  0.45263  0.05867  1.0000
  H   H194      1.0  0.09203  0.45569  0.41265  1.0000
  S   S64       1.0  0.14375  0.32834  0.39674  1.0000
  N   N17       1.0  0.09189  0.47245  0.44985  1.0000
  H   H195      1.0  0.49155  0.45086  0.06775  1.0000
  H   H196      1.0  0.03109  0.33525  0.34126  1.0000
  H   H197      1.0  0.08422  0.32726  0.36086  1.0000
  H   H198      1.0  0.09209  0.44922  0.46618  1.0000
  C   C198      1.0  0.06291  0.32299  0.37204  1.0000
  C   C199      1.0  0.32123  0.47077  0.99140  1.0000
  H   H199      1.0  0.31884  0.45844  0.99398  1.0000
  C   C200      1.0  0.32677  0.50279  0.98369  1.0000
  S   S65       1.0  0.14829  0.64588  0.60112  1.0000
  H   H200      1.0  0.31018  0.65029  0.95443  1.0000
  Fe  Fe33      1.0  0.31815  0.55962  0.88042  1.0000
  S   S66       1.0  0.35117  0.55972  0.83926  1.0000
  S   S67       1.0  0.29046  0.58166  0.88995  1.0000
  Fe  Fe34      1.0  0.32864  0.52484  0.89406  1.0000
  S   S68       1.0  0.36208  0.52298  0.85287  1.0000
  S   S69       1.0  0.31870  0.50142  0.91795  1.0000
  Fe  Fe35      1.0  0.38279  0.54527  0.87012  1.0000
  S   S70       1.0  0.43393  0.55088  0.88248  1.0000
  Fe  Fe36      1.0  0.32704  0.53756  0.82556  1.0000
  S   S71       1.0  0.31453  0.53171  0.77419  1.0000
  S   S72       1.0  0.35105  0.54657  0.91269  1.0000
  S   S73       1.0  0.29230  0.53802  0.86530  1.0000
  Fe  Fe37      1.0  0.17326  0.55771  0.58534  1.0000
  S   S74       1.0  0.14426  0.55996  0.62897  1.0000
  S   S75       1.0  0.19789  0.57882  0.56517  1.0000
  Fe  Fe38      1.0  0.16203  0.52280  0.58107  1.0000
  S   S76       1.0  0.13225  0.52303  0.62547  1.0000
  S   S77       1.0  0.16830  0.49901  0.55773  1.0000
  Fe  Fe39      1.0  0.10975  0.54419  0.60479  1.0000
  S   S78       1.0  0.05872  0.55252  0.60187  1.0000
  Fe  Fe40      1.0  0.16971  0.53876  0.64607  1.0000
  S   S79       1.0  0.18404  0.54013  0.69849  1.0000
  S   S80       1.0  0.13733  0.54322  0.55955  1.0000
  S   S81       1.0  0.20093  0.53722  0.60335  1.0000
  C   C201      1.0  0.02243  0.52817  0.62391  1.0000
  C   C202      1.0  0.02352  0.54182  0.60649  1.0000
  C   C203      1.0  0.28676  0.63619  0.80584  1.0000
  H   H201      1.0  0.04414  0.52305  0.63247  1.0000
  C   C204      1.0  0.17376  0.60192  0.67123  1.0000
  C   C205      1.0  0.46872  0.54778  0.86037  1.0000
  C   C206      1.0  0.28800  0.49752  0.83870  1.0000
  C   C207      1.0  0.46879  0.53956  0.83196  1.0000
  C   C208      1.0  0.24944  0.57599  0.63272  1.0000
  H   H202      1.0  0.44669  0.53570  0.82177  1.0000
  C   C209      1.0  0.27856  0.53506  0.75313  1.0000
  C   C210      1.0  0.27664  0.53086  0.72109  1.0000
  C   C211      1.0  0.24814  0.53247  0.70389  1.0000
  C   C212      1.0  0.22101  0.53821  0.71860  1.0000
  C   C213      1.0  0.22295  0.54241  0.75066  1.0000
  C   C214      1.0  0.25151  0.54092  0.76779  1.0000
  H   H203      1.0  0.29731  0.52623  0.70949  1.0000
  H   H204      1.0  0.24708  0.52902  0.67938  1.0000
  H   H205      1.0  0.20216  0.54684  0.76236  1.0000
  H   H206      1.0  0.25247  0.54414  0.79242  1.0000
  H   H207      1.0  0.02879  0.53980  0.68770  1.0000
  C   C215      1.0  0.32232  0.49358  0.95690  1.0000
  N   N18       1.0  0.20087  0.59328  0.65899  1.0000
  H   H208      1.0  0.26041  0.59649  0.60648  1.0000
  H   H209      1.0  0.17383  0.46890  0.53024  1.0000
  C   C216      1.0  0.17182  0.49292  0.51766  1.0000
  H   H210      1.0  0.25216  0.61804  0.80873  1.0000
  H   H211      1.0  0.31761  0.49719  0.76504  1.0000
  H   H212      1.0  0.31604  0.47024  0.94068  1.0000
  C   C217      1.0  0.33968  0.62852  0.90198  1.0000
  C   C218      1.0  0.30709  0.62773  0.89659  1.0000
  C   C219      1.0  0.29219  0.61328  0.89365  1.0000
  C   C220      1.0  0.30988  0.59956  0.89485  1.0000
  C   C221      1.0  0.34256  0.60041  0.89949  1.0000
  C   C222      1.0  0.35727  0.61481  0.90353  1.0000
  H   H213      1.0  0.29324  0.63820  0.89544  1.0000
  H   H214      1.0  0.26689  0.61271  0.89006  1.0000
  H   H215      1.0  0.35642  0.58994  0.90060  1.0000
  H   H216      1.0  0.38246  0.61530  0.90795  1.0000
  C   C223      1.0  0.16205  0.62758  0.58864  1.0000
  C   C224      1.0  0.18980  0.62555  0.57126  1.0000
  C   C225      1.0  0.20009  0.61056  0.56329  1.0000
  C   C226      1.0  0.18282  0.59753  0.57273  1.0000
  C   C227      1.0  0.15488  0.59963  0.58964  1.0000
  C   C228      1.0  0.14463  0.61455  0.59756  1.0000
  H   H217      1.0  0.20337  0.63549  0.56415  1.0000
  H   H218      1.0  0.22169  0.60904  0.55010  1.0000
  H   H219      1.0  0.14109  0.58976  0.59661  1.0000
  H   H220      1.0  0.12299  0.61601  0.61074  1.0000
  S   S82       1.0  0.35916  0.64623  0.90907  1.0000
  C   C229      1.0  0.31962  0.47753  0.96108  1.0000
  C   C230      1.0  0.27697  0.62103  0.81065  1.0000
  C   C231      1.0  0.29921  0.60979  0.81855  1.0000
  H   H221      1.0  0.21746  0.61176  0.63041  1.0000
  H   H222      1.0  0.32870  0.51515  0.98107  1.0000
  C   C232      1.0  0.26282  0.50248  0.78964  1.0000
  C   C233      1.0  0.23418  0.50672  0.83795  1.0000
  C   C234      1.0  0.49760  0.55272  0.87329  1.0000
  H   H223      1.0  0.15152  0.59684  0.66184  1.0000
  H   H224      1.0  0.26032  0.50164  0.88051  1.0000
  H   H225      1.0  0.17425  0.61422  0.66391  1.0000
  H   H226      1.0  0.10127  0.48421  0.53738  1.0000
  C   C235      1.0  0.31806  0.49362  0.79022  1.0000
  C   C236      1.0  0.23518  0.50702  0.80508  1.0000
  H   H227      1.0  0.17348  0.60151  0.69738  1.0000
  H   H228      1.0  0.23173  0.55736  0.66101  1.0000
  H   H229      1.0  0.09789  0.45653  0.52241  1.0000
  H   H230      1.0  0.30869  0.49401  0.85210  1.0000
  C   C237      1.0  0.22923  0.56939  0.65473  1.0000
  C   C238      1.0  0.17342  0.47703  0.51097  1.0000
  C   C239      1.0  0.33100  0.61392  0.82185  1.0000
  H   H231      1.0  0.38076  0.64221  0.80457  1.0000
  N   N19       1.0  0.34045  0.62878  0.81681  1.0000
  C   C240      1.0  0.37365  0.63307  0.82143  1.0000
  H   H232      1.0  0.01939  0.57656  0.64778  1.0000
  H   H233      1.0  0.34790  0.60521  0.82918  1.0000
  H   H234      1.0  0.38964  0.62307  0.81782  1.0000
  H   H235      1.0  0.49766  0.52959  0.79524  1.0000
  H   H236      1.0  0.37717  0.63750  0.84578  1.0000
  H   H237      1.0  0.21310  0.51045  0.85028  1.0000
  C   C241      1.0  0.20494  0.57826  0.66775  1.0000
  C   C242      1.0  0.09760  0.48088  0.51292  1.0000
  C   C243      1.0  0.24559  0.59141  0.62446  1.0000
  H   H238      1.0  0.21497  0.51106  0.79156  1.0000
  H   H239      1.0  0.26356  0.50303  0.76411  1.0000
  H   H240      1.0  0.18880  0.57289  0.68422  1.0000
  H   H241      1.0  0.26978  0.64514  0.79992  1.0000
  H   H242      1.0  0.29179  0.59805  0.82333  1.0000
  H   H243      1.0  0.33865  0.49961  0.80105  1.0000
  H   H244      1.0  0.36056  0.64869  0.97899  1.0000
  H   H245      1.0  0.26752  0.56904  0.62147  1.0000
  H   H246      1.0  0.32153  0.48098  0.79158  1.0000
  C   C244      1.0  0.22106  0.59996  0.63797  1.0000
  C   C245      1.0  0.26063  0.50180  0.85490  1.0000
  H   H247      1.0  0.46757  0.52855  0.93426  1.0000
  C   C246      1.0  0.31877  0.63987  0.80908  1.0000
  H   H248      1.0  0.49774  0.55911  0.89522  1.0000
  N   N20       1.0  0.28894  0.49807  0.80650  1.0000
  C   C247      1.0  0.48113  0.51543  0.89341  1.0000
  H   H249      1.0  0.03478  0.55761  0.70927  1.0000
  C   C248      1.0  0.09595  0.46536  0.50447  1.0000
  H   H250      1.0  0.45727  0.51500  0.88391  1.0000
  C   C249      1.0  0.48695  0.52307  0.92178  1.0000
  C   C250      1.0  0.17157  0.50328  0.49244  1.0000
  C   C251      1.0  0.09633  0.49213  0.48956  1.0000
  H   H251      1.0  0.04855  0.55540  0.66920  1.0000
  C   C252      1.0  0.02917  0.55257  0.68587  1.0000
  H   H252      1.0  0.32606  0.65170  0.80545  1.0000
  H   H253      1.0  0.17052  0.51553  0.49710  1.0000
  C   C253      1.0  0.49769  0.53606  0.81707  1.0000
  H   H254      1.0  0.09889  0.50418  0.49590  1.0000
  Fe  Fe41      1.0  0.18408  0.78281  0.12835  1.0000
  S   S83       1.0  0.20516  0.78891  0.08085  1.0000
  S   S84       1.0  0.20758  0.78943  0.17568  1.0000
  Fe  Fe42      1.0  0.11775  0.77586  0.09902  1.0000
  S   S85       1.0  0.13508  0.78133  0.05040  1.0000
  S   S86       1.0  0.06717  0.76879  0.11354  1.0000
  Fe  Fe43      1.0  0.17950  0.76786  0.06210  1.0000
  S   S87       1.0  0.19463  0.75046  0.02305  1.0000
  Fe  Fe44      1.0  0.15956  0.80172  0.07260  1.0000
  S   S88       1.0  0.15198  0.82503  0.04903  1.0000
  S   S89       1.0  0.16064  0.76106  0.11025  1.0000
  S   S90       1.0  0.13989  0.79696  0.12041  1.0000
  Fe  Fe45      1.0  0.33451  0.80125  0.36564  1.0000
  S   S91       1.0  0.36042  0.78654  0.33028  1.0000
  S   S92       1.0  0.34713  0.82638  0.35626  1.0000
  Fe  Fe46      1.0  0.30724  0.77271  0.39985  1.0000
  S   S93       1.0  0.33247  0.75661  0.36681  1.0000
  S   S94       1.0  0.27221  0.76573  0.43942  1.0000
  Fe  Fe47      1.0  0.37512  0.77224  0.37163  1.0000
  S   S95       1.0  0.42501  0.76175  0.37568  1.0000
  Fe  Fe48      1.0  0.31609  0.77247  0.32788  1.0000
  S   S96       1.0  0.29796  0.76105  0.28255  1.0000
  S   S97       1.0  0.35114  0.78741  0.40754  1.0000
  S   S98       1.0  0.28886  0.78801  0.36034  1.0000
  Fe  Fe49      1.0  0.37851  0.93009  0.37624  1.0000
  S   S99       1.0  0.34815  0.92578  0.41855  1.0000
  S   S100      1.0  0.42942  0.92410  0.38922  1.0000
  Fe  Fe50      1.0  0.31995  0.93830  0.33623  1.0000
  S   S101      1.0  0.28650  0.93487  0.37687  1.0000
  S   S102      1.0  0.30655  0.94072  0.28376  1.0000
  Fe  Fe51      1.0  0.32271  0.94775  0.40669  1.0000
  S   S103      1.0  0.31303  0.96082  0.45326  1.0000
  Fe  Fe52      1.0  0.31512  0.91347  0.38607  1.0000
  S   S104      1.0  0.29169  0.89090  0.39961  1.0000
  S   S105      1.0  0.35473  0.95273  0.36523  1.0000
  S   S106      1.0  0.34687  0.91617  0.34456  1.0000
  Fe  Fe53      1.0  0.17387  0.91243  0.10443  1.0000
  S   S107      1.0  0.14030  0.91474  0.14489  1.0000
  S   S108      1.0  0.20033  0.88954  0.10300  1.0000
  Fe  Fe54      1.0  0.16416  0.94653  0.08445  1.0000
  S   S109      1.0  0.12967  0.95056  0.12413  1.0000
  S   S110      1.0  0.18265  0.96732  0.05614  1.0000
  Fe  Fe55      1.0  0.16430  0.93733  0.15482  1.0000
  S   S111      1.0  0.17695  0.94495  0.20530  1.0000
  Fe  Fe56      1.0  0.10927  0.92753  0.11060  1.0000
  S   S112      1.0  0.05901  0.91898  0.10225  1.0000
  S   S113      1.0  0.19966  0.93449  0.11617  1.0000
  S   S114      1.0  0.14195  0.92405  0.06916  1.0000
  C   C254      1.0  0.26968  0.94094  0.26317  1.0000
  C   C255      1.0  0.24160  0.94593  0.27721  1.0000
  C   C256      1.0  0.21343  0.94686  0.25926  1.0000
  C   C257      1.0  0.21267  0.94247  0.22727  1.0000
  C   C258      1.0  0.24055  0.93703  0.21348  1.0000
  C   C259      1.0  0.26892  0.93653  0.23118  1.0000
  H   H255      1.0  0.24175  0.94948  0.30167  1.0000
  H   H256      1.0  0.19210  0.95114  0.27021  1.0000
  H   H257      1.0  0.24047  0.93367  0.18889  1.0000
  H   H258      1.0  0.29049  0.93273  0.21994  1.0000
  C   C260      1.0  0.02168  0.94137  0.13108  1.0000
  C   C261      1.0  0.02287  0.92768  0.11366  1.0000
  C   C262      1.0  0.25124  0.72147  0.46856  1.0000
  H   H259      1.0  0.04340  0.94691  0.13839  1.0000
  H   H260      1.0  0.35973  0.83745  0.42528  1.0000
  C   C263      1.0  0.46589  0.93281  0.33779  1.0000
  C   C264      1.0  0.46507  0.92666  0.36822  1.0000
  H   H261      1.0  0.20597  0.97979  0.20537  1.0000
  H   H262      1.0  0.44408  0.93596  0.32607  1.0000
  C   C265      1.0  0.31781  0.97941  0.47072  1.0000
  C   C266      1.0  0.22232  0.97644  0.18694  1.0000
  C   C267      1.0  0.38425  0.74222  0.30326  1.0000
  C   C268      1.0  0.16902  0.97696  0.02129  1.0000
  C   C269      1.0  0.32773  0.84389  0.36521  1.0000
  C   C270      1.0  0.34007  0.85755  0.35258  1.0000
  C   C271      1.0  0.32871  0.87200  0.36234  1.0000
  C   C272      1.0  0.30462  0.87293  0.38468  1.0000
  C   C273      1.0  0.29121  0.85927  0.39626  1.0000
  C   C274      1.0  0.30273  0.84477  0.38660  1.0000
  H   H263      1.0  0.35931  0.85695  0.33590  1.0000
  H   H264      1.0  0.33922  0.88238  0.35317  1.0000
  H   H265      1.0  0.27239  0.85990  0.41341  1.0000
  H   H266      1.0  0.29302  0.83433  0.39648  1.0000
  C   C275      1.0  0.23440  0.78143  0.20385  1.0000
  C   C276      1.0  0.24534  0.76623  0.20215  1.0000
  C   C277      1.0  0.26532  0.76031  0.22604  1.0000
  C   C278      1.0  0.27455  0.76945  0.25198  1.0000
  C   C279      1.0  0.26401  0.78470  0.25345  1.0000
  C   C280      1.0  0.24408  0.79062  0.22956  1.0000
  H   H267      1.0  0.23818  0.75901  0.18258  1.0000
  H   H268      1.0  0.27335  0.74851  0.22454  1.0000
  H   H269      1.0  0.27090  0.79191  0.27312  1.0000
  H   H270      1.0  0.23588  0.80240  0.23113  1.0000
  C   C281      1.0  0.16619  0.84286  0.06387  1.0000
  C   C282      1.0  0.19007  0.84359  0.08670  1.0000
  C   C283      1.0  0.20064  0.85800  0.09792  1.0000
  C   C284      1.0  0.18696  0.87178  0.08707  1.0000
  C   C285      1.0  0.16318  0.87104  0.06411  1.0000
  C   C286      1.0  0.15309  0.85665  0.05237  1.0000
  H   H271      1.0  0.20054  0.83309  0.09560  1.0000
  H   H272      1.0  0.21926  0.85845  0.11545  1.0000
  H   H273      1.0  0.15293  0.88156  0.05503  1.0000
  H   H274      1.0  0.13488  0.85620  0.03443  1.0000
  C   C287      1.0  0.44946  0.77022  0.28801  1.0000
  H   H275      1.0  0.16303  0.97430  0.16356  1.0000
  C   C288      1.0  0.43482  0.78051  0.26739  1.0000
  H   H276      1.0  0.17400  0.97785  0.12337  1.0000
  H   H277      1.0  0.33881  0.85252  0.44482  1.0000
  C   C289      1.0  0.41807  0.86604  0.38031  1.0000
  C   C290      1.0  0.25714  0.74923  0.46027  1.0000
  N   N21       1.0  0.26316  0.90292  0.28902  1.0000
  H   H278      1.0  0.44754  0.79053  0.25904  1.0000
  H   H279      1.0  0.35866  0.87895  0.44386  1.0000
  H   H280      1.0  0.18827  0.91242  0.33719  1.0000
  C   C291      1.0  0.46361  0.76995  0.37119  1.0000
  C   C292      1.0  0.46831  0.78545  0.36348  1.0000
  H   H281      1.0  0.30658  0.74254  0.99060  1.0000
  H   H282      1.0  0.44809  0.79295  0.36058  1.0000
  C   C293      1.0  0.02194  0.78157  0.07252  1.0000
  C   C294      1.0  0.02793  0.77315  0.10003  1.0000
  H   H283      1.0  0.29752  0.96340  0.17818  1.0000
  H   H284      1.0  0.04157  0.78580  0.05880  1.0000
  H   H285      1.0  0.25700  0.70983  0.46143  1.0000
  N   N22       1.0  0.10953  0.86794  0.12000  1.0000
  C   C295      1.0  0.09813  0.85425  0.10865  1.0000
  C   C296      1.0  0.13313  0.86811  0.14214  1.0000
  C   C297      1.0  0.11054  0.84025  0.11939  1.0000
  C   C298      1.0  0.14599  0.85433  0.15347  1.0000
  C   C299      1.0  0.13460  0.84033  0.14196  1.0000
  C   C300      1.0  0.09680  0.88260  0.10848  1.0000
  H   H286      1.0  0.07998  0.85405  0.09057  1.0000
  H   H287      1.0  0.14289  0.87896  0.15032  1.0000
  H   H288      1.0  0.10232  0.82942  0.10949  1.0000
  H   H289      1.0  0.16541  0.85453  0.17021  1.0000
  H   H290      1.0  0.14505  0.82956  0.14980  1.0000
  H   H291      1.0  0.11616  0.88991  0.09914  1.0000
  H   H292      1.0  0.07932  0.88105  0.08914  1.0000
  H   H293      1.0  0.08493  0.88895  0.12792  1.0000
  N   N23       1.0  0.37990  0.85986  0.42015  1.0000
  H   H294      1.0  0.23506  0.90768  0.24823  1.0000
  H   H295      1.0  0.18710  0.91396  0.27853  1.0000
  H   H296      1.0  0.27987  0.73191  0.43200  1.0000
  H   H297      1.0  0.00605  0.76116  0.13863  1.0000
  H   H298      1.0  0.21101  0.81618  0.01805  1.0000
  C   C301      1.0  0.26360  0.96650  0.14057  1.0000
  H   H299      1.0  0.29791  0.88716  0.27296  1.0000
  H   H300      1.0  0.37614  0.84583  0.46078  1.0000
  C   C302      1.0  0.40368  0.77789  0.25778  1.0000
  H   H301      1.0  0.26360  0.80399  0.00973  1.0000
  N   N24       1.0  0.22414  0.75891  0.32414  1.0000
  C   C303      1.0  0.21908  0.74982  0.29822  1.0000
  C   C304      1.0  0.21367  0.77382  0.32456  1.0000
  C   C305      1.0  0.20264  0.75552  0.27203  1.0000
  C   C306      1.0  0.19735  0.77993  0.29865  1.0000
  C   C307      1.0  0.19178  0.77068  0.27227  1.0000
  C   C308      1.0  0.24166  0.75258  0.35108  1.0000
  H   H302      1.0  0.22847  0.73820  0.29740  1.0000
  H   H303      1.0  0.21822  0.78115  0.34480  1.0000
  H   H304      1.0  0.19939  0.74844  0.25115  1.0000
  H   H305      1.0  0.18969  0.79185  0.29869  1.0000
  H   H306      1.0  0.18003  0.77539  0.25158  1.0000
  H   H307      1.0  0.26640  0.75010  0.34401  1.0000
  H   H308      1.0  0.24237  0.76066  0.37150  1.0000
  H   H309      1.0  0.23049  0.74177  0.35936  1.0000
  N   N25       1.0  0.40168  0.75534  0.29043  1.0000
  N   N26       1.0  0.21247  0.97578  0.15621  1.0000
  C   C309      1.0  0.38742  0.76511  0.26945  1.0000
  C   C310      1.0  0.43255  0.75753  0.29905  1.0000
  H   H310      1.0  0.48390  0.95680  0.40479  1.0000
  H   H311      1.0  0.39195  0.78584  0.24187  1.0000
  C   C311      1.0  0.22643  0.74197  0.00085  1.0000
  H   H312      1.0  0.49318  0.91772  0.40653  1.0000
  H   H313      1.0  0.36305  0.76329  0.26224  1.0000
  C   C312      1.0  0.49512  0.93484  0.32246  1.0000
  C   C313      1.0  0.28219  0.73935  0.98654  1.0000
  H   H314      1.0  0.42684  0.89031  0.37322  1.0000
  C   C314      1.0  0.36290  0.84836  0.43877  1.0000
  H   H315      1.0  0.40397  0.84303  0.39240  1.0000
  C   C315      1.0  0.39257  0.88632  0.40962  1.0000
  H   H316      1.0  0.43425  0.86231  0.36205  1.0000
  H   H317      1.0  0.29594  0.70262  0.99805  1.0000
  C   C316      1.0  0.21298  0.80546  0.00495  1.0000
  C   C317      1.0  0.49360  0.92252  0.38303  1.0000
  C   C318      1.0  0.23577  0.90685  0.27372  1.0000
  C   C319      1.0  0.20845  0.91037  0.29078  1.0000
  H   H318      1.0  0.48725  0.74843  0.38058  1.0000
  H   H319      1.0  0.13190  0.96098  0.00986  1.0000
  H   H320      1.0  0.31197  0.90652  0.28065  1.0000
  H   H321      1.0  0.38915  0.89848  0.41445  1.0000
  C   C320      1.0  0.26431  0.73402  0.45170  1.0000
  H   H322      1.0  0.38937  0.74095  0.32890  1.0000
  C   C321      1.0  0.29197  0.89959  0.27117  1.0000
  H   H323      1.0  0.28943  0.90270  0.24589  1.0000
  C   C322      1.0  0.25820  0.74596  0.00552  1.0000
  C   C323      1.0  0.32784  0.68349  0.99128  1.0000
  C   C324      1.0  0.40098  0.85520  0.39766  1.0000
  C   C325      1.0  0.25318  0.97224  0.19521  1.0000
  C   C326      1.0  0.49042  0.76043  0.37466  1.0000
  C   C327      1.0  0.37565  0.87520  0.42634  1.0000
  C   C328      1.0  0.20917  0.90958  0.32362  1.0000
  H   H324      1.0  0.28539  0.89845  0.33324  1.0000
  C   C329      1.0  0.24245  0.79863  0.00024  1.0000
  C   C330      1.0  0.41383  0.88170  0.38643  1.0000
  C   C331      1.0  0.26386  0.90183  0.32116  1.0000
  C   C332      1.0  0.23696  0.90517  0.33895  1.0000
  H   H325      1.0  0.23785  0.90441  0.36451  1.0000
  H   H326      1.0  0.39118  0.73150  0.29082  1.0000
  C   C333      1.0  0.14398  0.97139  0.00286  1.0000
  H   H327      1.0  0.26434  0.75413  0.02381  1.0000
  H   H328      1.0  0.44396  0.74970  0.31548  1.0000
  H   H329      1.0  0.35825  0.74383  0.30085  1.0000
  C   C334      1.0  0.00184  0.76769  0.11733  1.0000
  H   H330      1.0  0.27930  0.96239  0.12222  1.0000
  C   C335      1.0  0.27383  0.96712  0.17187  1.0000
  H   H331      1.0  0.16300  0.80352  0.99742  1.0000
  H   H332      1.0  0.00470  0.95786  0.07314  1.0000
  C   C336      1.0  0.18015  0.98051  0.14834  1.0000
  C   C337      1.0  0.23272  0.97102  0.13307  1.0000
  H   H333      1.0  0.47356  0.77219  0.29602  1.0000
  H   H334      1.0  0.26060  0.97235  0.21975  1.0000
  H   H335      1.0  0.99976  0.93887  0.02970  1.0000
  H   H336      1.0  0.22494  0.97045  0.10868  1.0000
  H   H337      1.0  0.34753  0.68947  0.00220  1.0000
  C   C338      1.0  0.18583  0.79820  0.99329  1.0000
  C   C339      1.0  0.29872  0.69101  0.98891  1.0000
  H   H338      1.0  0.37351  0.66358  0.00541  1.0000
  H   H339      1.0  0.49723  0.96539  0.35102  1.0000
  H   H340      1.0  0.49562  0.93961  0.29893  1.0000
  C   C340      1.0  0.24450  0.78482  0.98347  1.0000
  Fe  Fe57      1.0  0.12249  0.70064  0.59434  1.0000
  S   S115      1.0  0.14193  0.68583  0.55536  1.0000
  S   S116      1.0  0.07282  0.71171  0.59305  1.0000
  Fe  Fe58      1.0  0.18579  0.69885  0.63220  1.0000
  S   S117      1.0  0.20854  0.68369  0.59552  1.0000
  S   S118      1.0  0.21167  0.70891  0.67541  1.0000
  Fe  Fe59      1.0  0.18695  0.69993  0.55935  1.0000
  C   C341      1.0  0.13461  0.97925  0.97517  1.0000
  Fe  Fe60      1.0  0.16185  0.67109  0.59440  1.0000
  S   S119      1.0  0.16641  0.71565  0.59611  1.0000
  S   S120      1.0  0.14039  0.68546  0.63327  1.0000
  Fe  Fe61      1.0  0.38293  0.69643  0.86128  1.0000
  S   S121      1.0  0.36832  0.69068  0.91067  1.0000
  S   S122      1.0  0.43271  0.70486  0.84711  1.0000
  Fe  Fe62      1.0  0.31620  0.68762  0.83485  1.0000
  S   S123      1.0  0.29819  0.68118  0.88341  1.0000
  S   S124      1.0  0.28835  0.67900  0.79137  1.0000
  Fe  Fe63      1.0  0.32210  0.70302  0.90069  1.0000
  S   S125      1.0  0.30682  0.72033  0.93990  1.0000
  Fe  Fe64      1.0  0.34545  0.66966  0.88945  1.0000
  S   S126      1.0  0.33796  0.71006  0.85163  1.0000
  S   S127      1.0  0.36232  0.67484  0.84077  1.0000
  C   C342      1.0  0.24329  0.72462  0.95784  1.0000
  N   N27       1.0  0.18800  0.78447  0.97752  1.0000
  C   C343      1.0  0.01760  0.70396  0.51213  1.0000
  C   C344      1.0  0.31544  0.98086  0.50374  1.0000
  N   N28       1.0  0.18824  0.98039  0.88812  1.0000
  C   C345      1.0  0.27368  0.68382  0.97336  1.0000
  H   H341      1.0  0.25391  0.74008  0.60007  1.0000
  N   N29       1.0  0.28026  0.70497  0.57733  1.0000
  H   H342      1.0  0.38630  0.97065  0.51528  1.0000
  H   H343      1.0  0.01109  0.72535  0.59981  1.0000
  H   H344      1.0  0.31148  0.97066  0.51778  1.0000
  C   C346      1.0  0.26332  0.72850  0.60200  1.0000
  C   C347      1.0  0.28526  0.69848  0.60630  1.0000
  H   H345      1.0  0.29287  0.68660  0.60827  1.0000
  H   H346      1.0  0.11791  0.72177  0.54344  1.0000
  S   S128      1.0  0.21562  0.70728  0.51516  1.0000
  H   H347      1.0  0.20844  0.74111  0.52295  1.0000
  C   C348      1.0  0.23285  0.70029  0.70743  1.0000
  C   C349      1.0  0.23645  0.68434  0.71040  1.0000
  C   C350      1.0  0.25354  0.67811  0.73613  1.0000
  C   C351      1.0  0.26740  0.68769  0.75923  1.0000
  C   C352      1.0  0.26407  0.70365  0.75607  1.0000
  C   C353      1.0  0.24693  0.70987  0.73037  1.0000
  H   H348      1.0  0.22581  0.67678  0.69307  1.0000
  H   H349      1.0  0.39862  0.97097  0.57280  1.0000
  H   H350      1.0  0.27450  0.71121  0.77353  1.0000
  H   H351      1.0  0.24437  0.72223  0.72841  1.0000
  C   C354      1.0  0.47791  0.68521  0.87433  1.0000
  C   C355      1.0  0.47179  0.69755  0.85399  1.0000
  C   C356      1.0  0.05475  0.72465  0.52035  1.0000
  H   H352      1.0  0.45843  0.67964  0.88615  1.0000
  H   H353      1.0  0.26436  0.72476  0.55207  1.0000
  C   C357      1.0  0.02860  0.68802  0.58392  1.0000
  C   C358      1.0  0.03392  0.70357  0.59096  1.0000
  H   H354      1.0  0.11528  0.97474  0.96117  1.0000
  H   H355      1.0  0.04855  0.68033  0.58125  1.0000
  H   H356      1.0  0.09331  0.69163  0.50535  1.0000
  C   C359      1.0  0.22391  0.73898  0.50319  1.0000
  H   H357      1.0  0.25866  0.66343  0.94839  1.0000
  H   H358      1.0  0.30736  0.68889  0.55067  1.0000
  H   H359      1.0  0.28294  0.70170  0.65686  1.0000
  C   C360      1.0  0.23090  0.72378  0.49445  1.0000
  C   C361      1.0  0.04287  0.69395  0.50697  1.0000
  C   C362      1.0  0.11190  0.72048  0.51804  1.0000
  C   C363      1.0  0.20893  0.98610  0.91012  1.0000
  C   C364      1.0  0.00744  0.71332  0.59431  1.0000
  C   C365      1.0  0.49767  0.70462  0.83897  1.0000
  N   N30       1.0  0.07940  0.71480  0.51490  1.0000
  C   C366      1.0  0.39344  0.98126  0.52686  1.0000
  C   C367      1.0  0.26891  0.72206  0.63159  1.0000
  H   H360      1.0  0.19491  0.72807  0.97268  1.0000
  H   H361      1.0  0.14116  0.97262  0.89366  1.0000
  H   H362      1.0  0.15730  0.77864  0.93973  1.0000
  H   H363      1.0  0.23714  0.71649  0.93949  1.0000
  H   H364      1.0  0.11454  0.73183  0.50637  1.0000
  C   C368      1.0  0.15946  0.77685  0.96554  1.0000
  C   C369      1.0  0.16574  0.96826  0.89655  1.0000
  C   C370      1.0  0.27506  0.72862  0.96250  1.0000
  H   H365      1.0  0.28679  0.70298  0.52744  1.0000
  H   H366      1.0  0.17101  0.98187  0.84093  1.0000
  C   C371      1.0  0.07382  0.69958  0.50855  1.0000
  C   C372      1.0  0.27781  0.66905  0.96100  1.0000
  H   H367      1.0  0.05923  0.73649  0.52718  1.0000
  H   H368      1.0  0.20866  0.98184  0.93414  1.0000
  C   C373      1.0  0.40015  0.98147  0.55910  1.0000
  C   C374      1.0  0.02351  0.71942  0.51880  1.0000
  H   H369      1.0  0.16833  0.96468  0.92158  1.0000
  C   C375      1.0  0.18794  0.98613  0.85811  1.0000
  C   C376      1.0  0.23678  0.75153  0.48617  1.0000
  H   H370      1.0  0.26363  0.72854  0.65287  1.0000
  H   H371      1.0  0.49333  0.71414  0.82312  1.0000
  H   H372      1.0  0.23093  0.76317  0.49318  1.0000
  C   C377      1.0  0.27985  0.70695  0.63383  1.0000
  C   C378      1.0  0.26915  0.71973  0.57495  1.0000
  H   H373      1.0  0.12935  0.71250  0.50718  1.0000
  C   C379      1.0  0.28517  0.69567  0.54888  1.0000
  H   H374      1.0  0.03858  0.68180  0.50291  1.0000
  H   H375      1.0  0.25588  0.66576  0.73822  1.0000
  H   H376      1.0  0.26486  0.68772  0.54548  1.0000
  H   H377      1.0  0.16920  0.95798  0.88137  1.0000
  H   H378      1.0  0.00407  0.72712  0.52427  1.0000
  H   H379      1.0  0.16052  0.76428  0.97051  1.0000
  C   C380      1.0  0.30708  0.66171  0.96438  1.0000
  H   H380      1.0  0.13781  0.78126  0.97726  1.0000
  C   C381      1.0  0.21689  0.77796  0.97193  1.0000
  H   H381      1.0  0.21860  0.76712  0.95926  1.0000
  C   C382      1.0  0.21929  0.73125  0.97679  1.0000
  H   H382      1.0  0.37833  0.66577  0.96322  1.0000
  N   N31       1.0  0.33157  0.66891  0.97957  1.0000
  H   H383      1.0  0.25136  0.68983  0.97042  1.0000
  H   H384      1.0  0.26722  0.77930  0.97981  1.0000
  H   H385      1.0  0.23693  0.98558  0.57485  1.0000
  C   C383      1.0  0.36251  0.66138  0.98204  1.0000
  Fe  Fe65      1.0  0.68570  0.30256  0.08638  1.0000
  S   S129      1.0  0.64937  0.29873  0.12335  1.0000
  H   H386      1.0  0.83138  0.29705  0.20292  1.0000
  Fe  Fe66      1.0  0.68700  0.26830  0.06775  1.0000
  S   S130      1.0  0.64933  0.26264  0.10429  1.0000
  S   S131      1.0  0.70563  0.24756  0.03828  1.0000
  Fe  Fe67      1.0  0.62374  0.28407  0.08799  1.0000
  S   S132      1.0  0.57182  0.29137  0.07868  1.0000
  Fe  Fe68      1.0  0.67770  0.27796  0.13719  1.0000
  S   S133      1.0  0.68270  0.27643  0.19091  1.0000
  S   S134      1.0  0.65939  0.28887  0.04949  1.0000
  S   S135      1.0  0.71607  0.28253  0.10201  1.0000
  Fe  Fe69      1.0  0.87842  0.28282  0.36650  1.0000
  S   S136      1.0  0.84915  0.29024  0.40841  1.0000
  S   S137      1.0  0.93104  0.28880  0.35811  1.0000
  Fe  Fe70      1.0  0.81782  0.27452  0.32826  1.0000
  S   S138      1.0  0.78507  0.28117  0.36773  1.0000
  S   S139      1.0  0.80575  0.26765  0.27744  1.0000
  Fe  Fe71      1.0  0.81696  0.30185  0.37349  1.0000
  C   C384      1.0  0.80735  0.30399  0.24543  1.0000
  Fe  Fe72      1.0  0.81932  0.26883  0.39992  1.0000
  S   S140      1.0  0.80671  0.25444  0.44434  1.0000
  S   S141      1.0  0.84733  0.29588  0.33237  1.0000
  S   S142      1.0  0.85078  0.26077  0.35973  1.0000
  H   H387      1.0  0.73050  0.31334  0.25067  1.0000
  H   H388      1.0  0.79797  0.31772  0.30153  1.0000
  H   H389      1.0  0.82784  0.30181  0.26025  1.0000
  C   C385      1.0  0.73250  0.24161  0.00769  1.0000
  H   H390      1.0  0.74189  0.24616  0.42331  1.0000
  H   H391      1.0  0.82708  0.30254  0.48057  1.0000
  C   C386      1.0  0.73211  0.27968  0.46243  1.0000
  H   H392      1.0  0.79319  0.31066  0.43988  1.0000
  C   C387      1.0  0.77081  0.26962  0.25420  1.0000
  C   C388      1.0  0.77247  0.26672  0.22158  1.0000
  C   C389      1.0  0.74585  0.26875  0.20185  1.0000
  C   C390      1.0  0.71699  0.27347  0.21463  1.0000
  C   C391      1.0  0.71515  0.27608  0.24736  1.0000
  C   C392      1.0  0.74191  0.27427  0.26703  1.0000
  H   H393      1.0  0.79462  0.26299  0.21143  1.0000
  H   H394      1.0  0.74761  0.26655  0.17681  1.0000
  H   H395      1.0  0.69286  0.27956  0.25754  1.0000
  H   H396      1.0  0.74007  0.27631  0.29210  1.0000
  H   H397      1.0  0.75578  0.31692  0.29998  1.0000
  C   C393      1.0  0.96958  0.28082  0.36420  1.0000
  C   C394      1.0  0.97578  0.26932  0.38644  1.0000
  H   H398      1.0  0.64506  0.22993  0.02832  1.0000
  H   H399      1.0  0.95640  0.26429  0.39939  1.0000
  C   C395      1.0  0.52671  0.26959  0.09776  1.0000
  C   C396      1.0  0.53263  0.28420  0.08522  1.0000
  C   C397      1.0  0.75301  0.31038  0.24016  1.0000
  H   H400      1.0  0.54627  0.26237  0.10493  1.0000
  C   C398      1.0  0.58172  0.28136  0.00151  1.0000
  H   H401      1.0  0.56971  0.26152  0.04806  1.0000
  H   H402      1.0  0.78369  0.30052  0.16901  1.0000
  N   N32       1.0  0.59820  0.26687  0.00818  1.0000
  H   H403      1.0  0.69876  0.23169  0.44979  1.0000
  H   H404      1.0  0.73301  0.30849  0.19329  1.0000
  C   C399      1.0  0.78272  0.30312  0.19403  1.0000
  H   H405      1.0  0.71555  0.27061  0.46835  1.0000
  H   H406      1.0  0.59631  0.31890  0.12140  1.0000
  H   H407      1.0  0.59910  0.23776  0.06112  1.0000
  H   H408      1.0  0.79659  0.00398  0.01089  1.0000
  C   C400      1.0  0.73390  0.22591  0.99909  1.0000
  C   C401      1.0  0.64034  0.24919  0.99679  1.0000
  C   C402      1.0  0.65432  0.17540  0.47747  1.0000
  H   H409      1.0  0.75141  0.26402  0.99762  1.0000
  H   H410      1.0  0.51062  0.30470  0.06662  1.0000
  C   C403      1.0  0.63129  0.24007  0.02221  1.0000
  H   H411      1.0  0.77810  0.29937  0.30454  1.0000
  C   C404      1.0  0.77602  0.30202  0.44667  1.0000
  H   H412      1.0  0.62973  0.00016  0.44813  1.0000
  C   C405      1.0  0.60566  0.24451  0.04068  1.0000
  C   C406      1.0  0.77506  0.24343  0.46143  1.0000
  H   H413      1.0  0.70290  0.28935  0.42572  1.0000
  H   H414      1.0  0.74213  0.30955  0.41179  1.0000
  H   H415      1.0  0.72294  0.19380  0.46056  1.0000
  H   H416      1.0  0.99084  0.29593  0.33009  1.0000
  C   C407      1.0  0.62368  0.26273  0.99030  1.0000
  N   N33       1.0  0.77944  0.30865  0.25854  1.0000
  H   H417      1.0  0.55748  0.28141  0.01159  1.0000
  C   C408      1.0  0.80946  0.30121  0.21300  1.0000
  C   C409      1.0  0.58927  0.25803  0.03328  1.0000
  C   C410      1.0  0.72122  0.23312  0.46170  1.0000
  C   C411      1.0  0.74573  0.24137  0.44654  1.0000
  N   N34       1.0  0.78273  0.29169  0.47009  1.0000
  C   C412      1.0  0.71227  0.00424  0.44266  1.0000
  H   H418      1.0  0.62893  0.17676  0.47523  1.0000
  C   C413      1.0  0.75201  0.25193  0.99152  1.0000
  H   H419      1.0  0.88062  0.22826  0.99283  1.0000
  C   C414      1.0  0.74709  0.30144  0.43063  1.0000
  H   H420      1.0  0.98804  0.30725  0.41225  1.0000
  C   C415      1.0  0.75426  0.30769  0.20765  1.0000
  C   C416      1.0  0.67460  0.18641  0.46488  1.0000
  C   C417      1.0  0.99527  0.28713  0.34758  1.0000
  C   C418      1.0  0.50655  0.29341  0.07648  1.0000
  C   C419      1.0  0.72511  0.29013  0.43848  1.0000
  H   H421      1.0  0.70300  0.00566  0.41896  1.0000
  C   C420      1.0  0.64043  0.99317  0.46636  1.0000
  H   H422      1.0  0.71912  0.21773  0.01132  1.0000
  H   H423      1.0  0.59497  0.29110  0.01231  1.0000
  H   H424      1.0  0.69834  0.02681  0.45806  1.0000
  C   C421      1.0  0.70716  0.18489  0.46911  1.0000
  C   C422      1.0  0.80928  0.99503  0.99845  1.0000
  H   H425      1.0  0.66514  0.19649  0.45304  1.0000
  C   C423      1.0  0.77764  0.31079  0.29279  1.0000
  C   C424      1.0  0.70957  0.01610  0.46490  1.0000
  H   H426      1.0  0.82786  0.28185  0.47778  1.0000
  C   C425      1.0  0.76119  0.28066  0.47812  1.0000
  C   C426      1.0  0.72562  0.99022  0.45161  1.0000
  Fe  Fe73      1.0  0.82248  0.02705  0.82987  1.0000
  S   S143      1.0  0.80035  0.04111  0.86857  1.0000
  S   S144      1.0  0.79895  0.01830  0.78422  1.0000
  Fe  Fe74      1.0  0.88781  0.02698  0.86366  1.0000
  S   S145      1.0  0.86979  0.04136  0.90375  1.0000
  S   S146      1.0  0.93726  0.01739  0.87045  1.0000
  Fe  Fe75      1.0  0.82765  0.02552  0.90225  1.0000
  S   S147      1.0  0.80800  0.01523  0.94803  1.0000
  Fe  Fe76      1.0  0.84494  0.05546  0.86670  1.0000
  S   S148      1.0  0.85143  0.08100  0.85527  1.0000
  S   S149      1.0  0.84669  0.01060  0.86364  1.0000
  S   S150      1.0  0.86592  0.04188  0.82649  1.0000
  Fe  Fe77      1.0  0.60605  0.04286  0.60609  1.0000
  S   S151      1.0  0.63723  0.04295  0.56300  1.0000
  S   S152      1.0  0.55548  0.05107  0.59774  1.0000
  Fe  Fe78      1.0  0.66206  0.03536  0.65094  1.0000
  S   S153      1.0  0.69614  0.03470  0.61055  1.0000
  S   S154      1.0  0.67475  0.03532  0.70381  1.0000
  Fe  Fe79      1.0  0.67152  0.05619  0.59341  1.0000
  S   S155      1.0  0.70186  0.07698  0.58090  1.0000
  Fe  Fe80      1.0  0.65845  0.02144  0.58372  1.0000
  S   S156      1.0  0.67151  0.99907  0.55738  1.0000
  S   S157      1.0  0.63926  0.05750  0.63487  1.0000
  S   S158      1.0  0.62552  0.02069  0.62565  1.0000
  Fe  Fe81      1.0  0.69287  0.19467  0.62494  1.0000
  S   S159      1.0  0.70883  0.18383  0.57894  1.0000
  S   S160      1.0  0.72803  0.20237  0.66337  1.0000
  Fe  Fe82      1.0  0.62346  0.19842  0.60146  1.0000
  S   S161      1.0  0.63583  0.18832  0.55440  1.0000
  S   S162      1.0  0.57479  0.20726  0.61850  1.0000
  Fe  Fe83      1.0  0.66309  0.17044  0.58203  1.0000
  S   S163      1.0  0.64915  0.14569  0.56933  1.0000
  Fe  Fe84      1.0  0.68062  0.20269  0.55514  1.0000
  S   S164      1.0  0.69325  0.21636  0.50979  1.0000
  S   S165      1.0  0.64907  0.18010  0.62933  1.0000
  S   S166      1.0  0.66637  0.21400  0.60079  1.0000
  Fe  Fe85      1.0  0.87785  0.19206  0.86394  1.0000
  S   S167      1.0  0.86186  0.18956  0.91431  1.0000
  S   S168      1.0  0.92828  0.19750  0.84606  1.0000
  Fe  Fe86      1.0  0.81018  0.18550  0.83734  1.0000
  S   S169      1.0  0.79054  0.18251  0.88640  1.0000
  S   S170      1.0  0.77557  0.17783  0.79812  1.0000
  Fe  Fe87      1.0  0.81844  0.20344  0.90067  1.0000
  S   S171      1.0  0.80070  0.22498  0.92816  1.0000
  Fe  Fe88      1.0  0.83481  0.16886  0.89614  1.0000
  S   S172      1.0  0.83091  0.14600  0.92221  1.0000
  S   S173      1.0  0.83611  0.20729  0.85079  1.0000
  S   S174      1.0  0.85292  0.17062  0.84679  1.0000
  C   C427      1.0  0.74203  0.19477  0.69996  1.0000
  C   C428      1.0  0.72945  0.18145  0.71350  1.0000
  C   C429      1.0  0.74009  0.17648  0.74344  1.0000
  C   C430      1.0  0.76342  0.18471  0.76030  1.0000
  C   C431      1.0  0.77606  0.19798  0.74668  1.0000
  C   C432      1.0  0.76547  0.20293  0.71673  1.0000
  H   H427      1.0  0.71141  0.17504  0.70101  1.0000
  H   H428      1.0  0.73011  0.16619  0.75366  1.0000
  H   H429      1.0  0.79410  0.20441  0.75916  1.0000
  H   H430      1.0  0.77556  0.21320  0.70649  1.0000
  C   C433      1.0  0.93728  0.22728  0.89555  1.0000
  H   H431      1.0  0.73513  0.14492  0.50750  1.0000
  H   H432      1.0  0.72731  0.03707  0.51066  1.0000
  H   H433      1.0  0.79118  0.99019  0.82026  1.0000
  H   H434      1.0  0.63813  0.01128  0.50159  1.0000
  C   C434      1.0  0.63256  0.22107  0.67401  1.0000
  H   H435      1.0  0.51521  0.21653  0.64545  1.0000
  H   H436      1.0  0.74074  0.01007  0.89787  1.0000
  H   H437      1.0  0.52420  0.08194  0.60062  1.0000
  C   C435      1.0  0.77394  0.23090  0.95888  1.0000
  H   H438      1.0  0.69581  0.13860  0.51610  1.0000
  H   H439      1.0  0.75507  0.20848  0.96900  1.0000
  C   C436      1.0  0.96811  0.19525  0.86006  1.0000
  H   H440      1.0  0.81071  0.29114  0.51182  1.0000
  C   C437      1.0  0.97531  0.19063  0.89087  1.0000
  C   C438      1.0  0.77248  0.24661  0.96741  1.0000
  H   H441      1.0  0.95633  0.18772  0.90680  1.0000
  H   H442      1.0  0.71882  0.22550  0.73771  1.0000
  C   C439      1.0  0.53467  0.20277  0.60786  1.0000
  H   H443      1.0  0.75875  0.01135  0.84229  1.0000
  H   H444      1.0  0.92093  0.05857  0.85762  1.0000
  H   H445      1.0  0.54562  0.18826  0.56824  1.0000
  C   C440      1.0  0.68671  0.09607  0.57970  1.0000
  C   C441      1.0  0.65450  0.09900  0.57535  1.0000
  C   C442      1.0  0.64348  0.11428  0.57294  1.0000
  C   C443      1.0  0.66424  0.12684  0.57597  1.0000
  C   C444      1.0  0.69631  0.12392  0.58172  1.0000
  C   C445      1.0  0.70754  0.10861  0.58295  1.0000
  H   H446      1.0  0.63818  0.08949  0.57279  1.0000
  H   H447      1.0  0.61867  0.11637  0.56834  1.0000
  H   H448      1.0  0.71261  0.13342  0.58430  1.0000
  H   H449      1.0  0.73251  0.10648  0.58641  1.0000
  H   H450      1.0  0.81627  0.13091  0.78255  1.0000
  C   C446      1.0  0.72542  0.22673  0.49201  1.0000
  C   C447      1.0  0.94622  0.22306  0.92600  1.0000
  C   C448      1.0  0.51998  0.04115  0.60611  1.0000
  C   C449      1.0  0.49899  0.06968  0.65121  1.0000
  H   H451      1.0  0.60390  0.20079  0.67949  1.0000
  H   H452      1.0  0.53992  0.02514  0.63935  1.0000
  C   C450      1.0  0.50971  0.20917  0.62559  1.0000
  C   C451      1.0  0.84829  0.09868  0.87604  1.0000
  C   C452      1.0  0.85669  0.11228  0.86026  1.0000
  C   C453      1.0  0.85217  0.12680  0.87438  1.0000
  C   C454      1.0  0.83941  0.12789  0.90464  1.0000
  C   C455      1.0  0.83195  0.11426  0.92088  1.0000
  C   C456      1.0  0.83623  0.09970  0.90662  1.0000
  H   H453      1.0  0.86620  0.11161  0.83667  1.0000
  H   H454      1.0  0.85831  0.13714  0.86172  1.0000
  H   H455      1.0  0.82222  0.11498  0.94438  1.0000
  H   H456      1.0  0.82971  0.08933  0.91907  1.0000
  N   N35       1.0  0.71979  0.01401  0.49523  1.0000
  C   C457      1.0  0.97268  0.02497  0.85498  1.0000
  C   C458      1.0  0.97274  0.03621  0.83143  1.0000
  N   N36       1.0  0.69899  0.16147  0.49793  1.0000
  H   H457      1.0  0.95064  0.04007  0.82127  1.0000
  H   H458      1.0  0.78257  0.14383  0.78108  1.0000
  C   C459      1.0  0.76522  0.02421  0.76172  1.0000
  C   C460      1.0  0.76264  0.01953  0.72997  1.0000
  C   C461      1.0  0.73559  0.02310  0.71168  1.0000
  C   C462      1.0  0.71026  0.03108  0.72515  1.0000
  C   C463      1.0  0.71288  0.03583  0.75686  1.0000
  C   C464      1.0  0.74026  0.03260  0.77492  1.0000
  H   H459      1.0  0.78164  0.01295  0.71950  1.0000
  H   H460      1.0  0.73402  0.01927  0.68745  1.0000
  H   H461      1.0  0.69342  0.04192  0.76770  1.0000
  H   H462      1.0  0.74165  0.03620  0.79930  1.0000
  H   H463      1.0  0.98961  0.03756  0.93998  1.0000
  C   C465      1.0  0.76461  0.00147  0.85686  1.0000
  C   C466      1.0  0.70669  0.23120  0.71756  1.0000
  C   C467      1.0  0.75452  0.00066  0.88819  1.0000
  C   C468      1.0  0.66699  0.16294  0.49412  1.0000
  H   H464      1.0  0.76693  0.27216  0.49597  1.0000
  C   C469      1.0  0.93006  0.06779  0.87338  1.0000
  H   H465      1.0  0.93895  0.04663  0.91767  1.0000
  C   C470      1.0  0.99337  0.19895  0.83985  1.0000
  H   H466      1.0  0.72377  0.23160  0.69772  1.0000
  H   H467      1.0  0.95433  0.22691  0.87649  1.0000
  C   C471      1.0  0.81931  0.99772  0.96729  1.0000
  H   H468      1.0  0.66635  0.23944  0.67263  1.0000
  H   H469      1.0  0.85254  0.23689  0.96660  1.0000
  H   H470      1.0  0.89860  0.23402  0.86546  1.0000
  H   H471      1.0  0.91233  0.07002  0.89213  1.0000
  H   H472      1.0  0.61804  0.22575  0.65516  1.0000
  C   C472      1.0  0.71514  0.02640  0.51831  1.0000
  H   H473      1.0  0.68946  0.02875  0.52102  1.0000
  C   C473      1.0  0.75440  0.22058  0.97501  1.0000
  C   C474      1.0  0.64384  0.20090  0.71136  1.0000
  H   H474      1.0  0.63830  0.18981  0.72161  1.0000
  H   H475      1.0  0.93207  0.07854  0.85942  1.0000
  H   H476      1.0  0.80170  0.23847  0.50365  1.0000
  C   C475      1.0  0.62462  0.20702  0.68770  1.0000
  C   C476      1.0  0.67064  0.20904  0.72125  1.0000
  C   C477      1.0  0.90599  0.23134  0.88935  1.0000
  H   H477      1.0  0.75865  0.22395  0.53006  1.0000
  H   H478      1.0  0.52460  0.06878  0.65122  1.0000
  H   H479      1.0  0.93060  0.21948  0.97346  1.0000
  N   N37       1.0  0.70969  0.07456  0.68312  1.0000
  C   C478      1.0  0.70625  0.08563  0.66048  1.0000
  C   C479      1.0  0.68841  0.07353  0.70720  1.0000
  C   C480      1.0  0.68103  0.09606  0.66166  1.0000
  C   C481      1.0  0.66271  0.08363  0.70890  1.0000
  C   C482      1.0  0.65903  0.09496  0.68591  1.0000
  C   C483      1.0  0.73502  0.06310  0.68049  1.0000
  H   H480      1.0  0.72281  0.08633  0.64110  1.0000
  H   H481      1.0  0.69092  0.06467  0.72498  1.0000
  H   H482      1.0  0.67822  0.10475  0.64354  1.0000
  H   H483      1.0  0.64556  0.08247  0.72766  1.0000
  H   H484      1.0  0.63905  0.10278  0.68665  1.0000
  H   H485      1.0  0.72581  0.05266  0.66836  1.0000
  H   H486      1.0  0.75541  0.06759  0.66691  1.0000
  H   H487      1.0  0.74390  0.05962  0.70414  1.0000
  H   H488      1.0  0.97036  0.21946  0.93071  1.0000
  N   N38       1.0  0.78923  0.13272  0.82506  1.0000
  C   C484      1.0  0.77842  0.14230  0.84828  1.0000
  C   C485      1.0  0.78744  0.11708  0.82853  1.0000
  C   C486      1.0  0.76628  0.13630  0.87626  1.0000
  C   C487      1.0  0.77533  0.11068  0.85619  1.0000
  C   C488      1.0  0.76489  0.12038  0.88026  1.0000
  C   C489      1.0  0.80211  0.13939  0.79612  1.0000
  H   H489      1.0  0.77986  0.15468  0.84554  1.0000
  H   H490      1.0  0.79650  0.10942  0.81047  1.0000
  H   H491      1.0  0.75934  0.14398  0.89525  1.0000
  H   H492      1.0  0.77548  0.09828  0.85950  1.0000
  H   H493      1.0  0.75682  0.11560  0.90240  1.0000
  H   H494      1.0  0.81797  0.14922  0.80184  1.0000
  C   C490      1.0  0.75477  0.22874  0.50685  1.0000
  C   C491      1.0  0.71185  0.14874  0.51663  1.0000
  N   N39       1.0  0.67826  0.22282  0.70764  1.0000
  C   C492      1.0  0.77925  0.23702  0.49171  1.0000
  C   C493      1.0  0.81362  0.29188  0.48587  1.0000
  C   C494      1.0  0.66011  0.99090  0.52030  1.0000
  H   H495      1.0  0.70053  0.24311  0.72478  1.0000
  C   C495      1.0  0.73314  0.00032  0.50416  1.0000
  H   H496      1.0  0.65101  0.15462  0.50452  1.0000
  C   C496      1.0  0.96078  0.05193  0.90996  1.0000
  C   C497      1.0  0.52692  0.19328  0.58223  1.0000
  N   N40       1.0  0.96038  0.06303  0.88713  1.0000
  C   C498      1.0  0.88412  0.23144  0.91397  1.0000
  H   H497      1.0  0.78729  0.25479  0.95525  1.0000
  H   H498      1.0  0.74894  0.99851  0.95023  1.0000
  C   C499      1.0  0.65980  0.22878  0.68409  1.0000
  H   H499      1.0  0.74426  0.17161  0.49030  1.0000
  C   C500      1.0  0.78284  0.98955  0.84442  1.0000
  H   H500      1.0  0.68573  0.20408  0.73932  1.0000
  H   H501      1.0  0.74005  0.99841  0.52851  1.0000
  H   H502      1.0  0.98825  0.20258  0.81599  1.0000
  H   H503      1.0  0.85982  0.23455  0.90885  1.0000
  C   C501      1.0  0.51843  0.02936  0.62846  1.0000
  H   H504      1.0  0.50956  0.09929  0.61936  1.0000
  H   H505      1.0  0.63169  0.27005  0.97127  1.0000
  H   H506      1.0  0.72424  0.02322  0.54206  1.0000
  H   H507      1.0  0.71454  0.15249  0.54154  1.0000
  C   C502      1.0  0.64518  0.99954  0.49672  1.0000
  C   C503      1.0  0.92363  0.22309  0.95000  1.0000
  C   C504      1.0  0.50254  0.08828  0.60803  1.0000
  C   C505      1.0  0.98809  0.06896  0.87591  1.0000
  H   H508      1.0  0.98793  0.07719  0.85676  1.0000
  N   N41       1.0  0.89315  0.22751  0.94390  1.0000
  C   C506      1.0  0.71901  0.17237  0.48613  1.0000
  C   C507      1.0  0.98942  0.04673  0.92267  1.0000
  H   H509      1.0  0.85599  0.21625  0.96798  1.0000
  C   C508      1.0  0.86958  0.22720  0.96914  1.0000
  H   H510      1.0  0.57949  0.28328  0.97573  1.0000
  H   H511      1.0  0.66115  0.24611  0.98322  1.0000
  Fe  Fe89      1.0  0.88275  0.44430  0.34898  1.0000
  S   S175      1.0  0.87767  0.43150  0.39412  1.0000
  S   S176      1.0  0.93016  0.45346  0.33221  1.0000
  Fe  Fe90      1.0  0.81158  0.44204  0.33434  1.0000
  S   S177      1.0  0.80210  0.42902  0.37969  1.0000
  S   S178      1.0  0.77385  0.45083  0.29943  1.0000
  Fe  Fe91      1.0  0.83499  0.44640  0.40293  1.0000
  S   S179      1.0  0.83369  0.45616  0.45353  1.0000
  Fe  Fe92      1.0  0.84592  0.41537  0.36710  1.0000
  S   S180      1.0  0.86266  0.39029  0.36903  1.0000
  S   S181      1.0  0.84180  0.46011  0.35869  1.0000
  S   S182      1.0  0.85352  0.42757  0.32087  1.0000
  Fe  Fe93      1.0  0.60667  0.43717  0.11852  1.0000
  S   S183      1.0  0.61535  0.43302  0.06698  1.0000
  S   S184      1.0  0.56039  0.44596  0.13875  1.0000
  Fe  Fe94      1.0  0.67443  0.42847  0.13820  1.0000
  S   S185      1.0  0.68797  0.42380  0.08765  1.0000
  S   S186      1.0  0.70737  0.42065  0.17833  1.0000
  Fe  Fe95      1.0  0.66112  0.44555  0.07508  1.0000
  S   S187      1.0  0.68395  0.46268  0.04072  1.0000
  Fe  Fe96      1.0  0.64131  0.41173  0.08336  1.0000
  S   S188      1.0  0.63184  0.38915  0.05758  1.0000
  S   S189      1.0  0.65115  0.45109  0.12623  1.0000
  S   S190      1.0  0.62894  0.41501  0.13424  1.0000
  C   C509      1.0  0.56892  0.33537  0.09566  1.0000
  C   C510      1.0  0.82134  0.48786  0.45216  1.0000
  H   H512      1.0  0.89936  0.44881  0.46161  1.0000
  C   C511      1.0  0.91294  0.47016  0.41030  1.0000
  H   H513      1.0  0.62835  0.40784  0.99977  1.0000
  H   H514      1.0  0.90298  0.41397  0.27006  1.0000
  C   C512      1.0  0.81914  0.50255  0.46645  1.0000
  C   C513      1.0  0.90452  0.48343  0.39365  1.0000
  N   N42       1.0  0.91360  0.47018  0.44252  1.0000
  H   H515      1.0  0.65888  0.33332  0.13577  1.0000
  C   C514      1.0  0.75897  0.44259  0.26375  1.0000
  C   C515      1.0  0.74108  0.45185  0.24304  1.0000
  C   C516      1.0  0.72594  0.44550  0.21624  1.0000
  C   C517      1.0  0.72828  0.42972  0.20993  1.0000
  C   C518      1.0  0.74654  0.42051  0.23037  1.0000
  C   C519      1.0  0.76190  0.42688  0.25699  1.0000
  H   H516      1.0  0.73862  0.46402  0.24799  1.0000
  H   H517      1.0  0.71210  0.45276  0.20077  1.0000
  H   H518      1.0  0.74857  0.40829  0.22576  1.0000
  H   H519      1.0  0.77532  0.41955  0.27272  1.0000
  C   C520      1.0  0.52246  0.42413  0.10964  1.0000
  C   C521      1.0  0.52382  0.43740  0.12833  1.0000
  H   H520      1.0  0.68200  0.40703  0.02248  1.0000
  H   H521      1.0  0.54411  0.41891  0.10130  1.0000
  C   C522      1.0  0.92519  0.42032  0.27536  1.0000
  C   C523      1.0  0.96706  0.43695  0.37430  1.0000
  C   C524      1.0  0.96635  0.44686  0.34840  1.0000
  C   C525      1.0  0.99609  0.43148  0.38600  1.0000
  H   H522      1.0  0.94530  0.43323  0.38499  1.0000
  H   H523      1.0  0.62438  0.36573  0.13260  1.0000
  C   C526      1.0  0.81239  0.34322  0.37508  1.0000
  C   C527      1.0  0.79467  0.35693  0.37670  1.0000
  C   C528      1.0  0.80948  0.37146  0.37457  1.0000
  C   C529      1.0  0.84228  0.37241  0.37100  1.0000
  C   C530      1.0  0.85994  0.35869  0.36928  1.0000
  C   C531      1.0  0.84513  0.34418  0.37120  1.0000
  H   H524      1.0  0.76933  0.35633  0.37972  1.0000
  H   H525      1.0  0.79558  0.38189  0.37599  1.0000
  H   H526      1.0  0.88531  0.35927  0.36654  1.0000
  H   H527      1.0  0.85911  0.33376  0.36992  1.0000
  C   C532      1.0  0.68470  0.34388  0.07832  1.0000
  C   C533      1.0  0.69553  0.35785  0.09122  1.0000
  C   C534      1.0  0.67945  0.37177  0.08535  1.0000
  C   C535      1.0  0.65282  0.37192  0.06574  1.0000
  C   C536      1.0  0.64210  0.35797  0.05261  1.0000
  C   C537      1.0  0.65759  0.34397  0.05934  1.0000
  H   H528      1.0  0.93281  0.39060  0.36496  1.0000
  H   H529      1.0  0.68799  0.38241  0.09563  1.0000
  H   H530      1.0  0.62156  0.35796  0.03736  1.0000
  H   H531      1.0  0.64913  0.33331  0.04911  1.0000
  C   C538      1.0  0.63846  0.33699  0.15040  1.0000
  S   S191      1.0  0.79276  0.32520  0.37847  1.0000
  C   C539      1.0  0.97795  0.39897  0.34861  1.0000
  C   C540      1.0  0.60834  0.35715  0.12305  1.0000
  C   C541      1.0  0.66776  0.47455  0.01021  1.0000
  H   H532      1.0  0.81120  0.51226  0.45258  1.0000
  C   C542      1.0  0.72845  0.42777  0.01461  1.0000
  H   H533      1.0  0.71276  0.48495  0.99979  1.0000
  C   C543      1.0  0.56448  0.35093  0.08879  1.0000
  C   C544      1.0  0.83086  0.47508  0.46988  1.0000
  C   C545      1.0  0.89644  0.49674  0.41022  1.0000
  C   C546      1.0  0.99325  0.40778  0.32587  1.0000
  C   C547      1.0  0.58417  0.36192  0.10267  1.0000
  H   H534      1.0  0.71656  0.35790  0.10584  1.0000
  H   H535      1.0  0.98736  0.42220  0.28525  1.0000
  C   C548      1.0  0.59307  0.33103  0.11640  1.0000
  C   C549      1.0  0.90564  0.48317  0.45898  1.0000
  H   H536      1.0  0.98274  0.32512  0.36749  1.0000
  H   H537      1.0  0.58160  0.37403  0.09679  1.0000
  H   H538      1.0  0.99139  0.39390  0.36780  1.0000
  H   H539      1.0  0.54617  0.35447  0.07237  1.0000
  C   C550      1.0  0.97546  0.41482  0.30203  1.0000
  N   N43       1.0  0.66673  0.44034  0.26418  1.0000
  C   C551      1.0  0.65949  0.42753  0.24674  1.0000
  C   C552      1.0  0.65547  0.45448  0.25540  1.0000
  C   C553      1.0  0.64068  0.42872  0.21965  1.0000
  C   C554      1.0  0.63667  0.45607  0.22834  1.0000
  C   C555      1.0  0.62917  0.44307  0.21045  1.0000
  C   C556      1.0  0.68531  0.43878  0.29327  1.0000
  H   H540      1.0  0.66902  0.41637  0.25317  1.0000
  H   H541      1.0  0.66134  0.46464  0.26912  1.0000
  H   H542      1.0  0.63586  0.41860  0.20542  1.0000
  H   H543      1.0  0.62810  0.46731  0.22111  1.0000
  H   H544      1.0  0.61468  0.44414  0.18934  1.0000
  H   H545      1.0  0.69970  0.44927  0.29792  1.0000
  H   H546      1.0  0.66946  0.43674  0.31359  1.0000
  H   H547      1.0  0.70243  0.42909  0.29150  1.0000
  H   H548      1.0  0.91888  0.43220  0.28285  1.0000
  H   H549      1.0  0.73365  0.41675  0.02687  1.0000
  H   H550      1.0  0.55409  0.32663  0.08481  1.0000
  N   N44       1.0  0.61234  0.34187  0.12990  1.0000
  S   S192      1.0  0.70630  0.32676  0.08578  1.0000
  H   H551      1.0  0.81525  0.48638  0.42754  1.0000
  H   H552      1.0  0.74703  0.42962  0.99661  1.0000
  N   N45       1.0  0.94345  0.41273  0.30034  1.0000
  H   H553      1.0  0.91871  0.45982  0.39726  1.0000
  H   H554      1.0  0.99472  0.45914  0.31465  1.0000
  H   H555      1.0  0.90280  0.40275  0.32179  1.0000
  N   N46       1.0  0.69706  0.42773  0.99984  1.0000
  H   H556      1.0  0.61990  0.46650  0.01407  1.0000
  H   H557      1.0  0.99633  0.42358  0.40570  1.0000
  H   H558      1.0  0.89016  0.50685  0.45631  1.0000
  C   C557      1.0  0.92111  0.45590  0.45936  1.0000
  C   C558      1.0  0.63584  0.47399  0.00146  1.0000
  C   C559      1.0  0.92825  0.40417  0.32267  1.0000
  C   C560      1.0  0.67577  0.41636  0.00663  1.0000
  C   C561      1.0  0.94520  0.39718  0.34712  1.0000
  H   H559      1.0  0.93921  0.44908  0.44648  1.0000
  H   H560      1.0  0.90389  0.48322  0.36804  1.0000
  H   H561      1.0  0.88927  0.50703  0.39762  1.0000
  H   H562      1.0  0.93893  0.42097  0.25316  1.0000
  H   H563      1.0  0.64643  0.34646  0.16618  1.0000
  C   C562      1.0  0.64527  0.41675  0.99379  1.0000
  C   C563      1.0  0.89712  0.49667  0.44311  1.0000
  H   H564      1.0  0.63126  0.32717  0.16552  1.0000
  H   H565      1.0  0.72979  0.43724  0.03230  1.0000
  C   C564      1.0  0.68802  0.48438  0.99334  1.0000
  C   C565      1.0  0.99503  0.45142  0.33464  1.0000
  H   H566      1.0  0.78052  0.47913  0.55149  1.0000
  S   S193      1.0  0.70580  0.64334  0.85045  1.0000
  Fe  Fe97      1.0  0.64523  0.52318  0.89346  1.0000
  S   S194      1.0  0.64386  0.51860  0.84098  1.0000
  S   S195      1.0  0.62887  0.50400  0.92741  1.0000
  Fe  Fe98      1.0  0.64894  0.55863  0.88138  1.0000
  S   S196      1.0  0.64639  0.55615  0.82883  1.0000
  S   S197      1.0  0.64902  0.58178  0.90663  1.0000
  Fe  Fe99      1.0  0.60912  0.53826  0.83874  1.0000
  S   S198      1.0  0.56260  0.53513  0.81258  1.0000
  Fe  Fe100     1.0  0.68143  0.53687  0.83566  1.0000
  S   S199      1.0  0.72887  0.53633  0.80927  1.0000
  S   S200      1.0  0.60913  0.54222  0.89071  1.0000
  S   S201      1.0  0.68553  0.54010  0.88872  1.0000
  Fe  Fe101     1.0  0.85185  0.56300  0.60086  1.0000
  S   S202      1.0  0.85655  0.55057  0.64718  1.0000
  S   S203      1.0  0.86891  0.58800  0.60265  1.0000
  Fe  Fe102     1.0  0.83458  0.53273  0.56507  1.0000
  S   S204      1.0  0.83781  0.51867  0.60936  1.0000
  S   S205      1.0  0.82195  0.52344  0.51563  1.0000
  Fe  Fe103     1.0  0.81187  0.53817  0.63369  1.0000
  S   S206      1.0  0.76628  0.53510  0.66249  1.0000
  Fe  Fe104     1.0  0.88213  0.53246  0.61900  1.0000
  S   S207      1.0  0.92796  0.52141  0.63576  1.0000
  S   S208      1.0  0.80569  0.55159  0.58838  1.0000
  S   S209      1.0  0.88014  0.54549  0.57359  1.0000
  C   C566      1.0  0.73858  0.53625  0.76825  1.0000
  C   C567      1.0  0.77060  0.53709  0.75932  1.0000
  C   C568      1.0  0.77956  0.53701  0.72723  1.0000
  C   C569      1.0  0.75658  0.53593  0.70349  1.0000
  C   C570      1.0  0.72457  0.53514  0.71244  1.0000
  C   C571      1.0  0.71559  0.53539  0.74451  1.0000
  H   H567      1.0  0.78869  0.53764  0.77737  1.0000
  H   H568      1.0  0.80427  0.53752  0.72089  1.0000
  H   H569      1.0  0.70650  0.53428  0.69441  1.0000
  H   H570      1.0  0.69089  0.53471  0.75083  1.0000
  C   C572      1.0  0.96456  0.52854  0.62187  1.0000
  C   C573      1.0  0.73314  0.57644  0.89355  1.0000
  C   C574      1.0  0.96588  0.54174  0.60315  1.0000
  H   H571      1.0  0.58415  0.61154  0.90381  1.0000
  H   H572      1.0  0.94433  0.54726  0.59552  1.0000
  C   C575      1.0  0.52637  0.54915  0.85856  1.0000
  C   C576      1.0  0.52662  0.54065  0.83056  1.0000
  C   C577      1.0  0.50648  0.50934  0.87635  1.0000
  H   H573      1.0  0.54832  0.55300  0.86892  1.0000
  C   C578      1.0  0.73838  0.59198  0.90006  1.0000
  H   H574      1.0  0.56498  0.64802  0.90074  1.0000
  C   C579      1.0  0.64476  0.49300  0.95943  1.0000
  H   H575      1.0  0.76279  0.53655  0.53854  1.0000
  H   H576      1.0  0.83446  0.63290  0.51574  1.0000
  C   C580      1.0  0.75038  0.60154  0.87659  1.0000
  C   C581      1.0  0.83697  0.49205  0.51606  1.0000
  C   C582      1.0  0.62452  0.48309  0.97619  1.0000
  N   N47       1.0  0.75098  0.51517  0.55910  1.0000
  H   H577      1.0  0.84302  0.49351  0.54069  1.0000
  H   H578      1.0  0.75878  0.50478  0.63557  1.0000
  C   C583      1.0  0.68519  0.62703  0.86428  1.0000
  C   C584      1.0  0.68476  0.61355  0.84589  1.0000
  C   C585      1.0  0.67288  0.59967  0.85818  1.0000
  C   C586      1.0  0.66182  0.59914  0.88918  1.0000
  C   C587      1.0  0.66147  0.61272  0.90724  1.0000
  C   C588      1.0  0.67284  0.62664  0.89477  1.0000
  H   H579      1.0  0.69445  0.61374  0.82235  1.0000
  H   H580      1.0  0.67318  0.58930  0.84403  1.0000
  H   H581      1.0  0.65300  0.61239  0.93126  1.0000
  H   H582      1.0  0.67357  0.63689  0.90932  1.0000
  C   C589      1.0  0.81480  0.63297  0.58288  1.0000
  C   C590      1.0  0.84304  0.63306  0.60011  1.0000
  C   C591      1.0  0.85845  0.61911  0.60728  1.0000
  C   C592      1.0  0.84600  0.60492  0.59713  1.0000
  C   C593      1.0  0.81732  0.60479  0.58062  1.0000
  C   C594      1.0  0.80180  0.61876  0.57360  1.0000
  H   H583      1.0  0.85336  0.64387  0.60747  1.0000
  H   H584      1.0  0.88058  0.61934  0.62011  1.0000
  H   H585      1.0  0.80750  0.59396  0.57260  1.0000
  H   H586      1.0  0.77989  0.61855  0.56035  1.0000
  H   H587      1.0  0.59075  0.63652  0.92557  1.0000
  C   C595      1.0  0.77149  0.48941  0.56295  1.0000
  H   H588      1.0  0.76510  0.60302  0.82841  1.0000
  H   H589      1.0  0.77001  0.58197  0.79358  1.0000
  C   C596      1.0  0.77033  0.49035  0.59575  1.0000
  N   N48       1.0  0.75166  0.58010  0.84063  1.0000
  C   C597      1.0  0.75672  0.59539  0.84674  1.0000
  C   C598      1.0  0.91378  0.61605  0.55432  1.0000
  H   H590      1.0  0.77217  0.56315  0.81082  1.0000
  H   H591      1.0  0.60871  0.63191  0.79808  1.0000
  H   H592      1.0  0.73209  0.59670  0.92290  1.0000
  H   H593      1.0  0.58509  0.51047  0.87382  1.0000
  H   H594      1.0  0.92048  0.55087  0.67972  1.0000
  C   C599      1.0  0.99299  0.52162  0.63175  1.0000
  H   H595      1.0  0.61281  0.42949  0.96449  1.0000
  C   C600      1.0  0.75748  0.57375  0.80912  1.0000
  H   H596      1.0  0.73572  0.52515  0.51556  1.0000
  C   C601      1.0  0.56291  0.50399  0.86954  1.0000
  C   C602      1.0  0.93312  0.62697  0.56891  1.0000
  H   H597      1.0  0.99579  0.55890  0.58211  1.0000
  H   H598      1.0  0.91803  0.57395  0.64515  1.0000
  H   H599      1.0  0.59981  0.48251  0.96969  1.0000
  C   C603      1.0  0.85435  0.64121  0.51385  1.0000
  C   C604      1.0  0.59896  0.63732  0.84676  1.0000
  H   H600      1.0  0.76348  0.50134  0.51941  1.0000
  H   H601      1.0  0.72292  0.56904  0.91138  1.0000
  C   C605      1.0  0.58911  0.61612  0.88059  1.0000
  C   C606      1.0  0.60309  0.62735  0.82116  1.0000
  H   H602      1.0  0.94122  0.65124  0.57662  1.0000
  N   N49       1.0  0.88130  0.63632  0.53323  1.0000
  C   C607      1.0  0.54258  0.51765  0.91586  1.0000
  H   H603      1.0  0.84588  0.46754  0.51597  1.0000
  C   C608      1.0  0.94196  0.55693  0.67347  1.0000
  H   H604      1.0  0.87249  0.61237  0.52581  1.0000
  H   H605      1.0  0.77834  0.48078  0.61012  1.0000
  C   C609      1.0  0.74233  0.52857  0.53997  1.0000
  H   H606      1.0  0.56685  0.49186  0.87670  1.0000
  H   H607      1.0  0.65186  0.45008  0.95244  1.0000
  C   C610      1.0  0.74006  0.57065  0.86356  1.0000
  C   C611      1.0  0.94065  0.56981  0.65393  1.0000
  C   C612      1.0  0.92648  0.64261  0.56526  1.0000
  H   H608      1.0  0.60097  0.64966  0.84315  1.0000
  H   H609      1.0  0.75344  0.61377  0.88108  1.0000
  C   C613      1.0  0.60012  0.61150  0.82564  1.0000
  C   C614      1.0  0.90043  0.64711  0.54707  1.0000
  H   H610      1.0  0.55832  0.50462  0.84373  1.0000
  H   H611      1.0  0.72195  0.53481  0.55041  1.0000
  C   C615      1.0  0.76170  0.50201  0.54488  1.0000
  C   C616      1.0  0.58855  0.64239  0.90243  1.0000
  N   N50       1.0  0.59262  0.63164  0.87609  1.0000
  H   H612      1.0  0.73466  0.57055  0.79774  1.0000
  H   H613      1.0  0.91813  0.60383  0.55769  1.0000
  H   H614      1.0  0.73577  0.55858  0.85855  1.0000
  H   H615      1.0  0.50189  0.50400  0.85367  1.0000
  C   C617      1.0  0.59289  0.60583  0.85548  1.0000
  H   H616      1.0  0.95303  0.62334  0.58327  1.0000
  H   H617      1.0  0.90506  0.48307  0.48454  1.0000
  H   H618      1.0  0.74210  0.52675  0.60258  1.0000
  N   N51       1.0  0.53675  0.51067  0.88748  1.0000
  C   C618      1.0  0.83852  0.47731  0.50195  1.0000
  C   C619      1.0  0.82695  0.50478  0.49847  1.0000
  C   C620      1.0  0.74991  0.51621  0.59125  1.0000
  C   C621      1.0  0.75249  0.65464  0.67022  1.0000
  C   C622      1.0  0.75935  0.50379  0.61005  1.0000
  H   H619      1.0  0.60696  0.65152  0.90169  1.0000
  H   H620      1.0  0.56655  0.51847  0.92492  1.0000
  C   C623      1.0  0.88788  0.62096  0.53635  1.0000
  C   C624      1.0  0.63660  0.42887  0.97403  1.0000
  H   H621      1.0  0.69260  0.50109  0.95568  1.0000
  H   H622      1.0  0.59105  0.59350  0.85939  1.0000
  C   C625      1.0  0.67665  0.49359  0.96826  1.0000
  S   S210      1.0  0.79583  0.65029  0.57124  1.0000
  C   C626      1.0  0.96865  0.57704  0.64501  1.0000
  H   H623      1.0  0.97206  0.54105  0.69794  1.0000
  H   H624      1.0  0.84487  0.65246  0.52204  1.0000
  C   C627      1.0  0.97132  0.55138  0.68365  1.0000
  H   H625      1.0  0.71461  0.65154  0.70317  1.0000
  H   H626      1.0  0.73988  0.64941  0.65061  1.0000
  H   H627      1.0  0.60359  0.60359  0.80612  1.0000
  C   C628      1.0  0.99516  0.54834  0.59559  1.0000
  H   H628      1.0  0.99221  0.51137  0.64617  1.0000
  C   C629      1.0  0.51784  0.52413  0.93325  1.0000
  H   H629      1.0  0.96792  0.58684  0.62926  1.0000
  H   H630      1.0  0.74306  0.65247  0.76876  1.0000
  N   N52       1.0  0.99868  0.55842  0.67447  1.0000
  H   H631      1.0  0.52271  0.53015  0.95515  1.0000
  H   H632      1.0  0.86157  0.64224  0.48884  1.0000
  C   C630      1.0  0.99765  0.57120  0.65565  1.0000
  C   C631      1.0  0.68880  0.43958  0.98027  1.0000
  C   C632      1.0  0.65850  0.44035  0.96709  1.0000
  H   H633      1.0  0.70525  0.44892  0.97592  1.0000
  H   H634      1.0  0.93051  0.45829  0.48335  1.0000
  Fe  Fe105     1.0  0.80940  0.76386  0.05912  1.0000
  S   S211      1.0  0.84489  0.75892  0.09825  1.0000
  S   S212      1.0  0.79331  0.74253  0.02993  1.0000
  Fe  Fe106     1.0  0.81348  0.79879  0.07273  1.0000
  S   S213      1.0  0.84859  0.79592  0.11183  1.0000
  S   S214      1.0  0.79680  0.82250  0.05650  1.0000
  Fe  Fe107     1.0  0.87339  0.77900  0.08020  1.0000
  S   S215      1.0  0.92534  0.78218  0.06481  1.0000
  Fe  Fe108     1.0  0.81727  0.77626  0.12728  1.0000
  S   S216      1.0  0.80931  0.77485  0.18085  1.0000
  S   S217      1.0  0.83952  0.78295  0.03967  1.0000
  S   S218      1.0  0.78047  0.78007  0.08952  1.0000
  Fe  Fe109     1.0  0.67938  0.76932  0.38964  1.0000
  S   S219      1.0  0.64556  0.76114  0.35129  1.0000
  S   S220      1.0  0.69498  0.75030  0.42496  1.0000
  Fe  Fe110     1.0  0.67830  0.80229  0.36326  1.0000
  S   S221      1.0  0.64554  0.79576  0.32400  1.0000
  S   S222      1.0  0.69581  0.82699  0.35850  1.0000
  Fe  Fe111     1.0  0.61741  0.78285  0.36031  1.0000
  S   S223      1.0  0.56467  0.79009  0.35871  1.0000
  Fe  Fe112     1.0  0.67608  0.77492  0.31802  1.0000
  S   S224      1.0  0.68728  0.76651  0.26802  1.0000
  S   S225      1.0  0.64930  0.79042  0.40047  1.0000
  S   S226      1.0  0.71092  0.78196  0.35542  1.0000
  Fe  Fe113     1.0  0.64788  0.91264  0.38705  1.0000
  S   S227      1.0  0.64176  0.91281  0.33458  1.0000
  S   S228      1.0  0.64950  0.89050  0.41556  1.0000
  Fe  Fe114     1.0  0.64939  0.94815  0.39291  1.0000
  S   S229      1.0  0.64416  0.95053  0.34003  1.0000
  S   S230      1.0  0.64700  0.97142  0.41932  1.0000
  Fe  Fe115     1.0  0.60711  0.93200  0.34406  1.0000
  S   S231      1.0  0.56003  0.93483  0.31863  1.0000
  Fe  Fe116     1.0  0.67937  0.93117  0.33483  1.0000
  S   S232      1.0  0.72518  0.92876  0.30607  1.0000
  S   S233      1.0  0.61049  0.93058  0.39666  1.0000
  S   S234      1.0  0.68737  0.93005  0.38764  1.0000
  Fe  Fe117     1.0  0.83589  0.94030  0.06475  1.0000
  S   S235      1.0  0.83810  0.95390  0.10989  1.0000
  S   S236      1.0  0.83580  0.95008  0.01414  1.0000
  Fe  Fe118     1.0  0.84904  0.90952  0.10020  1.0000
  S   S237      1.0  0.85286  0.92150  0.14718  1.0000
  S   S238      1.0  0.86256  0.88414  0.10299  1.0000
  Fe  Fe119     1.0  0.80963  0.93461  0.13193  1.0000
  S   S239      1.0  0.76379  0.93737  0.16059  1.0000
  Fe  Fe120     1.0  0.88098  0.93934  0.12118  1.0000
  S   S240      1.0  0.92718  0.95003  0.13791  1.0000
  S   S241      1.0  0.80447  0.92175  0.08560  1.0000
  S   S242      1.0  0.88004  0.92662  0.07542  1.0000
  C   C633      1.0  0.96375  0.94089  0.12960  1.0000
  H   H635      1.0  0.71707  0.89957  0.40922  1.0000
  C   C634      1.0  0.96504  0.92715  0.11240  1.0000
  C   C635      1.0  0.73321  0.88946  0.40880  1.0000
  H   H636      1.0  0.94341  0.92156  0.10512  1.0000
  C   C636      1.0  0.52369  0.93095  0.33758  1.0000
  H   H637      1.0  0.92168  0.75569  0.00032  1.0000
  C   C637      1.0  0.52275  0.92471  0.36788  1.0000
  N   N53       1.0  0.92758  0.96327  0.05474  1.0000
  H   H638      1.0  0.54448  0.92159  0.37972  1.0000
  C   C638      1.0  0.73519  0.93119  0.26540  1.0000
  C   C639      1.0  0.76674  0.92882  0.25594  1.0000
  C   C640      1.0  0.77598  0.93065  0.22415  1.0000
  C   C641      1.0  0.75372  0.93486  0.20122  1.0000
  C   C642      1.0  0.72212  0.93708  0.21063  1.0000
  C   C643      1.0  0.71288  0.93527  0.24243  1.0000
  H   H639      1.0  0.78431  0.92574  0.27342  1.0000
  H   H640      1.0  0.80041  0.92902  0.21753  1.0000
  H   H641      1.0  0.70463  0.94035  0.19321  1.0000
  H   H642      1.0  0.68855  0.93714  0.24914  1.0000
  C   C644      1.0  0.59056  0.83270  0.41891  1.0000
  H   H643      1.0  0.89884  0.97288  0.09078  1.0000
  H   H644      1.0  0.73750  0.89572  0.30104  1.0000
  C   C645      1.0  0.59546  0.82702  0.38845  1.0000
  H   H645      1.0  0.84947  0.75491  0.99630  1.0000
  H   H646      1.0  0.57816  0.96918  0.32243  1.0000
  C   C646      1.0  0.74616  0.74588  0.35577  1.0000
  C   C647      1.0  0.52613  0.78181  0.36349  1.0000
  C   C648      1.0  0.52140  0.76628  0.37088  1.0000
  H   H647      1.0  0.59053  0.82488  0.43882  1.0000
  H   H648      1.0  0.54161  0.75878  0.37391  1.0000
  H   H649      1.0  0.95758  0.75092  0.04528  1.0000
  C   C649      1.0  0.65887  0.87244  0.39862  1.0000
  C   C650      1.0  0.66298  0.87063  0.36613  1.0000
  C   C651      1.0  0.67197  0.85623  0.35375  1.0000
  C   C652      1.0  0.67684  0.84353  0.37366  1.0000
  C   C653      1.0  0.67167  0.84522  0.40600  1.0000
  C   C654      1.0  0.66282  0.85964  0.41841  1.0000
  H   H650      1.0  0.66004  0.88038  0.35062  1.0000
  H   H651      1.0  0.67639  0.85508  0.32875  1.0000
  H   H652      1.0  0.67600  0.83562  0.42164  1.0000
  H   H653      1.0  0.65971  0.86094  0.44358  1.0000
  C   C655      1.0  0.96445  0.77890  0.07982  1.0000
  H   H654      1.0  0.80680  0.97892  0.03738  1.0000
  C   C656      1.0  0.97038  0.77058  0.10745  1.0000
  C   C657      1.0  0.99442  0.92061  0.10449  1.0000
  H   H655      1.0  0.95079  0.76626  0.12111  1.0000
  C   C658      1.0  0.72025  0.77090  0.24349  1.0000
  C   C659      1.0  0.71861  0.76731  0.21112  1.0000
  C   C660      1.0  0.74518  0.76903  0.19134  1.0000
  C   C661      1.0  0.77405  0.77406  0.20382  1.0000
  C   C662      1.0  0.77563  0.77772  0.23619  1.0000
  C   C663      1.0  0.74887  0.77635  0.25581  1.0000
  H   H656      1.0  0.69672  0.76297  0.20129  1.0000
  H   H657      1.0  0.74354  0.76605  0.16661  1.0000
  H   H658      1.0  0.79782  0.78161  0.24615  1.0000
  H   H659      1.0  0.75063  0.77911  0.28063  1.0000
  C   C664      1.0  0.81281  0.83976  0.07192  1.0000
  C   C665      1.0  0.83649  0.83955  0.09494  1.0000
  C   C666      1.0  0.85052  0.85337  0.10502  1.0000
  C   C667      1.0  0.84076  0.86756  0.09258  1.0000
  C   C668      1.0  0.81594  0.86791  0.07073  1.0000
  C   C669      1.0  0.80221  0.85402  0.06024  1.0000
  H   H660      1.0  0.84469  0.82873  0.10438  1.0000
  H   H661      1.0  0.86961  0.85300  0.12207  1.0000
  H   H662      1.0  0.80826  0.87880  0.06096  1.0000
  H   H663      1.0  0.78373  0.85428  0.04253  1.0000
  C   C670      1.0  0.56264  0.96313  0.41439  1.0000
  C   C671      1.0  0.97960  0.94591  0.03623  1.0000
  H   H664      1.0  0.58482  0.87073  0.40096  1.0000
  H   H665      1.0  0.52620  0.95518  0.44568  1.0000
  H   H666      1.0  0.58319  0.85311  0.44700  1.0000
  H   H667      1.0  0.94815  0.93596  0.00164  1.0000
  C   C672      1.0  0.72610  0.74419  0.45122  1.0000
  C   C673      1.0  0.89446  0.72974  0.06857  1.0000
  C   C674      1.0  0.92614  0.83862  0.07961  1.0000
  N   N54       1.0  0.73668  0.88345  0.37669  1.0000
  N   N55       1.0  0.74044  0.73910  0.29188  1.0000
  C   C675      1.0  0.71616  0.73573  0.31193  1.0000
  C   C676      1.0  0.76744  0.74589  0.30306  1.0000
  C   C677      1.0  0.71869  0.73903  0.34415  1.0000
  C   C678      1.0  0.77064  0.74946  0.33511  1.0000
  C   C679      1.0  0.73815  0.73458  0.25861  1.0000
  H   H668      1.0  0.69449  0.73067  0.30296  1.0000
  H   H669      1.0  0.78653  0.74873  0.28710  1.0000
  H   H670      1.0  0.79187  0.75501  0.34388  1.0000
  H   H671      1.0  0.74444  0.72226  0.25582  1.0000
  H   H672      1.0  0.71377  0.73651  0.24949  1.0000
  H   H673      1.0  0.75406  0.74162  0.24360  1.0000
  N   N56       1.0  0.89044  0.84747  0.03928  1.0000
  C   C680      1.0  0.91266  0.85056  0.06196  1.0000
  C   C681      1.0  0.88151  0.83261  0.03316  1.0000
  H   H674      1.0  0.75660  0.76367  0.44430  1.0000
  C   C682      1.0  0.89460  0.82042  0.05028  1.0000
  C   C683      1.0  0.91701  0.82345  0.07365  1.0000
  C   C684      1.0  0.83038  0.96884  0.99751  1.0000
  H   H675      1.0  0.91940  0.86237  0.06714  1.0000
  H   H676      1.0  0.78150  0.71311  0.00036  1.0000
  H   H677      1.0  0.87661  0.87101  0.03424  1.0000
  H   H678      1.0  0.79846  0.75427  0.48090  1.0000
  C   C685      1.0  0.87712  0.86007  0.02050  1.0000
  C   C686      1.0  0.55408  0.97319  0.32904  1.0000
  C   C687      1.0  0.95599  0.96520  0.06971  1.0000
  C   C688      1.0  0.98243  0.95661  0.06062  1.0000
  C   C689      1.0  0.58692  0.85836  0.39757  1.0000
  C   C690      1.0  0.58628  0.84848  0.42344  1.0000
  H   H679      1.0  0.59110  0.81904  0.32863  1.0000
  H   H680      1.0  0.53774  0.96785  0.31155  1.0000
  C   C691      1.0  0.72299  0.73009  0.46744  1.0000
  C   C692      1.0  0.59191  0.85228  0.36743  1.0000
  H   H681      1.0  0.62810  0.82948  0.32830  1.0000
  H   H682      1.0  0.93977  0.73473  0.08986  1.0000
  H   H683      1.0  0.59345  0.86009  0.34760  1.0000
  C   C693      1.0  0.60214  0.83059  0.33167  1.0000
  H   H684      1.0  0.85132  0.72740  0.04219  1.0000
  H   H685      1.0  0.86354  0.83012  0.01555  1.0000
  H   H686      1.0  0.59926  0.81478  0.38515  1.0000
  H   H687      1.0  0.59235  0.83813  0.31291  1.0000
  H   H688      1.0  0.90253  0.98443  0.05537  1.0000
  N   N57       1.0  0.88493  0.74130  0.01797  1.0000
  H   H689      1.0  0.99508  0.90999  0.09113  1.0000
  H   H690      1.0  0.59372  0.97066  0.37768  1.0000
  H   H691      1.0  0.69937  0.73644  0.36007  1.0000
  N   N58       1.0  0.76727  0.86853  0.13960  1.0000
  C   C694      1.0  0.74818  0.88111  0.13556  1.0000
  C   C695      1.0  0.79561  0.86991  0.15502  1.0000
  C   C696      1.0  0.75734  0.89555  0.14708  1.0000
  C   C697      1.0  0.80568  0.88422  0.16644  1.0000
  C   C698      1.0  0.78623  0.89705  0.16267  1.0000
  C   C699      1.0  0.75658  0.85345  0.12815  1.0000
  H   H692      1.0  0.72571  0.88004  0.12338  1.0000
  H   H693      1.0  0.81092  0.86000  0.15810  1.0000
  H   H694      1.0  0.74233  0.90560  0.14389  1.0000
  H   H695      1.0  0.82864  0.88541  0.17768  1.0000
  H   H696      1.0  0.79357  0.90818  0.17168  1.0000
  H   H697      1.0  0.77582  0.84471  0.12881  1.0000
  H   H698      1.0  0.73681  0.84919  0.14287  1.0000
  H   H699      1.0  0.74860  0.85424  0.10320  1.0000
  C   C700      1.0  0.74249  0.86810  0.37204  1.0000
  C   C701      1.0  0.73538  0.89332  0.35161  1.0000
  C   C702      1.0  0.74621  0.86220  0.34156  1.0000
  C   C703      1.0  0.73899  0.88782  0.32083  1.0000
  C   C704      1.0  0.74429  0.87214  0.31582  1.0000
  H   H700      1.0  0.74321  0.86021  0.39183  1.0000
  H   H701      1.0  0.74955  0.84991  0.33798  1.0000
  H   H702      1.0  0.73130  0.90553  0.35523  1.0000
  H   H703      1.0  0.88609  0.72292  0.08822  1.0000
  H   H704      1.0  0.58135  0.96245  0.43194  1.0000
  C   C705      1.0  0.93455  0.74542  0.04443  1.0000
  H   H705      1.0  0.87775  0.96760  0.05581  1.0000
  C   C706      1.0  0.75364  0.75280  0.45633  1.0000
  H   H706      1.0  0.98638  0.79069  0.04095  1.0000
  H   H707      1.0  0.74821  0.74859  0.38070  1.0000
  H   H708      1.0  0.72238  0.88073  0.42456  1.0000
  H   H709      1.0  0.75660  0.89291  0.41836  1.0000
  C   C707      1.0  0.99221  0.94793  0.13904  1.0000
  N   N59       1.0  0.59572  0.83676  0.36317  1.0000
  N   N60       1.0  0.54630  0.96833  0.36115  1.0000
  H   H710      1.0  0.84689  0.73473  0.98747  1.0000
  C   C708      1.0  0.91414  0.74803  0.01897  1.0000
  C   C709      1.0  0.92450  0.73635  0.06951  1.0000
  C   C710      1.0  0.65012  0.97803  0.45916  1.0000
  C   C711      1.0  0.87486  0.73235  0.04246  1.0000
  H   H711      1.0  0.85228  0.85755  0.01359  1.0000
  H   H712      1.0  0.95804  0.97303  0.08958  1.0000
  C   C712      1.0  0.76868  0.73709  0.99694  1.0000
  C   C713      1.0  0.56955  0.96775  0.38361  1.0000
  C   C714      1.0  0.92483  0.95316  0.03008  1.0000
  H   H713      1.0  0.55288  0.98591  0.32717  1.0000
  C   C715      1.0  0.95068  0.94422  0.02068  1.0000
  H   H714      1.0  0.88719  0.80868  0.04569  1.0000
  H   H715      1.0  0.92712  0.81404  0.08720  1.0000
  C   C716      1.0  0.51570  0.96494  0.36879  1.0000
  H   H716      1.0  0.74669  0.86768  0.29205  1.0000
  H   H717      1.0  0.50247  0.80332  0.35395  1.0000
  H   H718      1.0  0.94329  0.84111  0.09798  1.0000
  C   C717      1.0  0.81506  0.98079  0.01359  1.0000
  H   H719      1.0  0.89144  0.86179  0.99895  1.0000
  H   H720      1.0  0.90245  0.95179  0.01786  1.0000
  H   H721      1.0  0.70194  0.72325  0.46375  1.0000
  C   C718      1.0  0.99050  0.78434  0.06247  1.0000
  H   H722      1.0  0.99145  0.95854  0.15239  1.0000
  C   C719      1.0  0.50798  0.96014  0.39926  1.0000
  H   H723      1.0  0.67153  0.95755  0.47806  1.0000
  H   H724      1.0  0.72660  0.98073  0.43491  1.0000
  C   C720      1.0  0.90036  0.97253  0.06460  1.0000
  C   C721      1.0  0.53170  0.95914  0.42211  1.0000
  C   C722      1.0  0.49928  0.79130  0.35970  1.0000
  C   C723      1.0  0.86366  0.74442  0.99136  1.0000
  C   C724      1.0  0.76766  0.72149  0.98750  1.0000
  C   C725      1.0  0.77742  0.74742  0.47724  1.0000
  C   C726      1.0  0.66388  0.96918  0.48308  1.0000
  C   C727      1.0  0.73633  0.98825  0.48249  1.0000
  H   H725      1.0  0.75073  0.75970  0.98659  1.0000
  Fe  Fe121     1.0  0.81761  0.67403  0.57789  1.0000
  S   S243      1.0  0.85163  0.67848  0.61725  1.0000
  Fe  Fe122     1.0  0.81901  0.70759  0.55423  1.0000
  S   S244      1.0  0.85413  0.71401  0.59272  1.0000
  S   S245      1.0  0.80520  0.72738  0.52014  1.0000
  Fe  Fe123     1.0  0.88007  0.69191  0.58175  1.0000
  S   S246      1.0  0.93228  0.68458  0.57513  1.0000
  Fe  Fe124     1.0  0.82295  0.69998  0.62498  1.0000
  S   S247      1.0  0.81066  0.70773  0.67502  1.0000
  S   S248      1.0  0.84686  0.68623  0.54141  1.0000
  S   S249      1.0  0.78687  0.69483  0.58757  1.0000
  Fe  Fe125     1.0  0.67828  0.69374  0.80931  1.0000
  S   S250      1.0  0.71720  0.68816  0.84350  1.0000
  S   S251      1.0  0.68526  0.69690  0.75602  1.0000
  Fe  Fe126     1.0  0.62530  0.68659  0.85852  1.0000
  S   S252      1.0  0.66175  0.68031  0.89551  1.0000
  S   S253      1.0  0.57438  0.68077  0.87383  1.0000
  Fe  Fe127     1.0  0.68885  0.70142  0.87990  1.0000
  S   S254      1.0  0.70548  0.72164  0.91196  1.0000
  Fe  Fe128     1.0  0.68691  0.66771  0.85638  1.0000
  S   S255      1.0  0.65092  0.70827  0.84437  1.0000
  S   S256      1.0  0.64935  0.67277  0.82079  1.0000
  C   C728      1.0  0.78299  0.66029  0.66582  1.0000
  C   C729      1.0  0.62367  0.72231  0.92257  1.0000
  C   C730      1.0  0.74683  0.72468  0.48826  1.0000
  H   H726      1.0  0.82250  0.67182  0.68775  1.0000
  C   C731      1.0  0.53513  0.68722  0.86461  1.0000
  C   C732      1.0  0.77436  0.73330  0.49337  1.0000
  C   C733      1.0  0.52904  0.69947  0.84405  1.0000
  H   H727      1.0  0.76405  0.97943  0.95359  1.0000
  H   H728      1.0  0.54846  0.70503  0.83213  1.0000
  C   C734      1.0  0.73040  0.72713  0.94470  1.0000
  C   C735      1.0  0.57112  0.71794  0.90492  1.0000
  C   C736      1.0  0.83544  0.98593  0.95154  1.0000
  H   H729      1.0  0.72489  0.98240  0.93747  1.0000
  H   H730      1.0  0.80583  0.96794  0.85415  1.0000
  C   C737      1.0  0.97096  0.69223  0.58274  1.0000
  H   H731      1.0  0.64901  0.74085  0.90027  1.0000
  C   C738      1.0  0.97624  0.70771  0.59036  1.0000
  C   C739      1.0  0.78032  0.97656  0.89459  1.0000
  H   H732      1.0  0.95632  0.71543  0.59287  1.0000
  H   H733      1.0  0.84332  0.98773  0.92761  1.0000
  C   C740      1.0  0.75041  0.74768  0.97988  1.0000
  C   C741      1.0  0.84058  0.97157  0.96642  1.0000
  H   H734      1.0  0.51351  0.67071  0.89572  1.0000
  C   C742      1.0  0.59349  0.70126  0.94603  1.0000
  C   C743      1.0  0.72068  0.69963  0.73419  1.0000
  C   C744      1.0  0.74850  0.70511  0.74815  1.0000
  C   C745      1.0  0.77572  0.70754  0.72968  1.0000
  C   C746      1.0  0.77578  0.70418  0.69721  1.0000
  C   C747      1.0  0.74821  0.69832  0.68337  1.0000
  C   C748      1.0  0.72074  0.69627  0.70168  1.0000
  H   H735      1.0  0.74883  0.70784  0.77306  1.0000
  H   H736      1.0  0.79687  0.71210  0.74066  1.0000
  H   H737      1.0  0.74795  0.69549  0.65853  1.0000
  H   H738      1.0  0.69939  0.69198  0.69065  1.0000
  H   H739      1.0  0.71752  0.75110  0.94133  1.0000
  N   N61       1.0  0.59626  0.71400  0.92364  1.0000
  C   C749      1.0  0.50930  0.68016  0.87968  1.0000
  C   C750      1.0  0.79105  0.97708  0.86344  1.0000
  C   C751      1.0  0.73840  0.65587  0.69996  1.0000
  H   H740      1.0  0.79686  0.67348  0.73990  1.0000
  H   H741      1.0  0.99353  0.69962  0.51230  1.0000
  H   H742      1.0  0.61591  0.69458  0.94709  1.0000
  H   H743      1.0  0.74388  0.71381  0.50027  1.0000
  H   H744      1.0  0.64349  0.71935  0.93773  1.0000
  C   C752      1.0  0.57354  0.73005  0.88339  1.0000
  C   C753      1.0  0.74878  0.71655  0.96169  1.0000
  C   C754      1.0  0.62684  0.73458  0.90153  1.0000
  H   H745      1.0  0.68054  0.96880  0.53132  1.0000
  H   H746      1.0  0.85246  0.96247  0.95365  1.0000
  N   N62       1.0  0.76791  0.73757  0.60499  1.0000
  C   C755      1.0  0.75157  0.72996  0.62792  1.0000
  C   C756      1.0  0.75446  0.74005  0.57607  1.0000
  C   C757      1.0  0.72144  0.72402  0.62171  1.0000
  C   C758      1.0  0.72453  0.73416  0.56892  1.0000
  C   C759      1.0  0.70801  0.72603  0.59188  1.0000
  C   C760      1.0  0.79935  0.74380  0.61194  1.0000
  H   H747      1.0  0.76187  0.72838  0.65116  1.0000
  H   H748      1.0  0.76706  0.74645  0.55814  1.0000
  H   H749      1.0  0.70869  0.71788  0.63992  1.0000
  H   H750      1.0  0.71438  0.73586  0.54561  1.0000
  H   H751      1.0  0.68481  0.72136  0.58660  1.0000
  H   H752      1.0  0.79727  0.75583  0.62055  1.0000
  H   H753      1.0  0.81172  0.73679  0.63017  1.0000
  H   H754      1.0  0.81443  0.74361  0.59048  1.0000
  H   H755      1.0  0.74894  0.67307  0.77003  1.0000
  C   C761      1.0  0.60168  0.73837  0.88163  1.0000
  H   H756      1.0  0.74840  0.70453  0.95503  1.0000
  H   H757      1.0  0.78681  0.96683  0.90926  1.0000
  H   H758      1.0  0.89547  0.65930  0.54446  1.0000
  C   C762      1.0  0.79906  0.66703  0.69110  1.0000
  C   C763      1.0  0.73146  0.74273  0.95411  1.0000
  H   H759      1.0  0.55378  0.73282  0.86800  1.0000
  H   H760      1.0  0.87698  0.74606  0.96914  1.0000
  C   C764      1.0  0.78434  0.66799  0.72055  1.0000
  H   H761      1.0  0.57468  0.69304  0.93867  1.0000
  H   H762      1.0  0.54916  0.71154  0.90614  1.0000
  C   C765      1.0  0.66899  0.97562  0.51333  1.0000
  H   H763      1.0  0.60410  0.74766  0.86477  1.0000
  H   H764      1.0  0.58790  0.70580  0.96984  1.0000
  C   C766      1.0  0.74928  0.98705  0.93846  1.0000
  H   H765      1.0  0.99388  0.67046  0.57373  1.0000
  C   C767      1.0  0.99744  0.68246  0.57960  1.0000
  H   H766      1.0  0.74577  0.97723  0.48997  1.0000
  N   N63       1.0  0.76223  0.98826  0.90654  1.0000
  H   H767      1.0  0.71348  0.66559  0.75351  1.0000
  N   N64       1.0  0.75425  0.66259  0.72458  1.0000
  H   H768      1.0  0.79403  0.65950  0.64278  1.0000
  C   C768      1.0  0.73931  0.66339  0.75571  1.0000
