data_image0
_chemical_formula_structural       FeS2FeS2FeSFeS3FeS2FeS2FeSFeS3FeS2FeS2FeSFeS3FeS2FeS2FeSFeS3CHC2HC3H3C2H2C6H4C2NCHCHC6H4NC2H2CHCH2C6H4C6H6NC6H10NC2H2CHCH2CHC3HC2H3C4HCH3CH4C3NC4HCHC2HC2H4C3HC3HCNH6C3N2C4HCHNH5C3H9CHCHCH3FeS2FeS2FeHFeS3FeS2FeS2FeCFeS3C2H2C7H4C2NHC4H2CH4C5H2CH3C2HC2H4C3HCH2C2H3CH3CH4CHNC2HNC2HCHC2NCFeS2FeS2FeSFeS3FeS2FeS2FeSFeS3C6H4C2H3C2NHC7H4C6H4SHNH2C4HNH3CHNHCH2CH2C2HCHC2HCNC6H10C2HC3HC2H4CH4C2HSCH4CH3CH2C4H3CFeS2FeS2FeSFeS3FeS2FeS2FeSFeS3C3H2C2H4C6H4CH2CH2CHC6H4C6H4CHC2H2C3NH2CHC4HCH2CHCHNC3HNC2H2C2SC2H3CH4C4SHCHNH2C3HCH5CH3CHFeS2FeS2FeHFeS3FeS2FeS2FeCFeS3HCH3C6H4C3H2C2H3C3H2CHCHC3H2NH3CH2C6NHCH4C4HC3H5CFeS2FeS2FeCFeS3FeS2FeS2FeSFeS3FeS2FeSCFeSFeS3FeS2FeS2FeSFeS3C2HC3HC2SHCNSCHC2NH2C6H4C3H2C6H4CNHCH2C6H4C6H4C3H2NC2H3CHC2NCH2NC6H10CHCHCNHC2HC3HCH2C2HC3HCH2C2H3CNH6C4H9CHC2H3C5H2CHCH2C2H9CFeSCFeS2FeSFeS3FeS2FeS2FeSFeS3FeS2FeS2FeCFeS3FeS2FeS2FeSFeS3C2H3C3HC7H4C2H2C5HCHC6H4C3H2C6H4C6H4C3H2CH2NH2CNC2H4C2NHCSCHCHCHNC6H10CH3C2H2NH2CH2CH2NHSC3H2NC6H11CHCHC3HCH2CHCNCH2CHC2H3CHFeS2FeS2FeCFeS3FeSNFeS2FeSFeS3C4HC6H4C2H3C3H3CHCH4C4H2C3H4NHC3H3NC3HCHCH6C2H3C2H4CHC2HCFeS2FeS2FeSFeS3FeS2FeS2FeSFeS3CHC2HC6H4C6H4C6H5C2SHCH3C5H3CHC3H10CH3CNC4HCSHC2HCHC2NH3C3H2CNC2HC3HCHN2HC2H2CH4NH3C2FeS2FeS2FeSFeS3FeS2FeS2FeSFeS3C3H2C6H4C2H3CHCHC7H4C6H4C2H3NC6H8C2H2CH2SCH2NH3CNCHCSC2HCH2C3HNHCHC2HCH2C3H2CH6CHSNFeS2FeSFeS3FeS2FeS2FeSFe2S2C2H2C7H4C2H2CH4C4H4CH3CH4C2HC2NC2H2CH3C2H2CHCNHC3HC4HC2H3CH2CHCFeS2FeS2FeCFeS3FeS2FeS2FeSFeS3FeS2FeS2FeSFeS3FeS2FeS2FeSFeS3C2H7CH2NCNC8H4C2H2C2H2C6H4C3HC2H6C7H4C6H5C2HC2H4CH2CSHCHCHCH7C2NCH2CHC6HN2C2NC4H6NC6H9CHC2NCHCH3C2HC2HC3H2CH2CH2C2HCH2C2H3C
_chemical_formula_sum              "Fe128 S256 C768 H768 N64"
_cell_length_a       37.2385
_cell_length_b       79.8565
_cell_length_c       47.3995
_cell_angle_alpha    89.507
_cell_angle_beta     89.705
_cell_angle_gamma    88.7911

_space_group_name_H-M_alt    "P 1"
_space_group_IT_number       1

loop_
  _space_group_symop_operation_xyz
  'x, y, z'

loop_
  _atom_site_type_symbol
  _atom_site_label
  _atom_site_symmetry_multiplicity
  _atom_site_fract_x
  _atom_site_fract_y
  _atom_site_fract_z
  _atom_site_occupancy
  Fe  Fe1       1.0  0.29845  0.02981  0.38028  1.0000
  S   S1        1.0  0.34328  0.04784  0.37168  1.0000
  S   S2        1.0  0.30283  0.02031  0.42641  1.0000
  Fe  Fe2       1.0  0.27185  0.03372  0.31812  1.0000
  S   S3        1.0  0.31559  0.05123  0.30631  1.0000
  S   S4        1.0  0.22996  0.02651  0.28525  1.0000
  Fe  Fe3       1.0  0.35204  0.03406  0.33136  1.0000
  S   S5        1.0  0.40555  0.02358  0.31557  1.0000
  Fe  Fe4       1.0  0.30264  0.06355  0.34783  1.0000
  S   S6        1.0  0.30298  0.09200  0.34766  1.0000
  S   S7        1.0  0.30918  0.01525  0.34049  1.0000
  S   S8        1.0  0.25682  0.04684  0.35893  1.0000
  Fe  Fe5       1.0  0.16789  0.16651  0.36701  1.0000
  S   S9        1.0  0.21614  0.18134  0.35595  1.0000
  S   S10       1.0  0.17164  0.13962  0.38295  1.0000
  Fe  Fe6       1.0  0.11562  0.19435  0.34875  1.0000
  S   S11       1.0  0.16164  0.21113  0.33544  1.0000
  S   S12       1.0  0.05709  0.20333  0.34096  1.0000
  Fe  Fe7       1.0  0.18704  0.18802  0.31561  1.0000
  S   S13       1.0  0.22157  0.18124  0.27654  1.0000
  Fe  Fe8       1.0  0.18760  0.20321  0.37681  1.0000
  S   S14       1.0  0.22396  0.22023  0.40346  1.0000
  S   S15       1.0  0.13965  0.17200  0.32621  1.0000
  S   S16       1.0  0.14063  0.18767  0.39088  1.0000
  Fe  Fe9       1.0  0.16074  0.02418  0.05795  1.0000
  S   S17       1.0  0.11570  0.04337  0.05466  1.0000
  S   S18       1.0  0.16129  0.00104  0.02875  1.0000
  Fe  Fe10      1.0  0.18369  0.03773  0.11752  1.0000
  S   S19       1.0  0.13872  0.05689  0.11749  1.0000
  S   S20       1.0  0.22744  0.03913  0.15173  1.0000
  Fe  Fe11      1.0  0.10386  0.03694  0.09979  1.0000
  S   S21       1.0  0.04888  0.02981  0.11653  1.0000
  Fe  Fe12      1.0  0.15499  0.06174  0.07249  1.0000
  S   S22       1.0  0.15626  0.08920  0.05906  1.0000
  S   S23       1.0  0.14764  0.01716  0.10322  1.0000
  S   S24       1.0  0.20127  0.04315  0.07249  1.0000
  Fe  Fe13      1.0  0.29232  0.16377  0.07656  1.0000
  S   S25       1.0  0.24541  0.18174  0.07169  1.0000
  S   S26       1.0  0.29218  0.13535  0.07336  1.0000
  Fe  Fe14      1.0  0.34636  0.19139  0.08850  1.0000
  S   S27       1.0  0.30278  0.21141  0.08503  1.0000
  S   S28       1.0  0.40225  0.19970  0.10245  1.0000
  Fe  Fe15      1.0  0.26826  0.19386  0.11062  1.0000
  S   S29       1.0  0.23320  0.20408  0.14674  1.0000
  Fe  Fe16      1.0  0.28334  0.19796  0.04653  1.0000
  S   S30       1.0  0.27617  0.20962  0.00195  1.0000
  S   S31       1.0  0.31288  0.17494  0.11672  1.0000
  S   S32       1.0  0.32912  0.17882  0.04877  1.0000
  C   C1        1.0  0.26413  0.16318  0.99636  1.0000
  H   H1        1.0  0.24702  0.00199  0.20233  1.0000
  C   C2        1.0  0.47919  0.02508  0.31747  1.0000
  C   C3        1.0  0.18404  0.11486  0.13334  1.0000
  H   H2        1.0  0.35950  0.00786  0.39088  1.0000
  C   C4        1.0  0.44615  0.19291  0.09138  1.0000
  C   C5        1.0  0.26490  0.15047  0.42111  1.0000
  C   C6        1.0  0.45165  0.18067  0.07074  1.0000
  H   H3        1.0  0.17539  0.15598  0.47040  1.0000
  H   H4        1.0  0.42876  0.17501  0.06097  1.0000
  H   H5        1.0  0.26566  0.23478  0.17090  1.0000
  C   C7        1.0  0.21072  0.18059  0.98670  1.0000
  C   C8        1.0  0.38675  0.00253  0.38661  1.0000
  H   H6        1.0  0.31560  0.19622  0.23491  1.0000
  H   H7        1.0  0.03258  0.05186  0.06850  1.0000
  C   C9        1.0  0.19417  0.10187  0.06359  1.0000
  C   C10       1.0  0.22859  0.09488  0.06715  1.0000
  C   C11       1.0  0.25829  0.10534  0.06993  1.0000
  C   C12       1.0  0.25381  0.12286  0.06986  1.0000
  C   C13       1.0  0.21933  0.12988  0.06668  1.0000
  C   C14       1.0  0.18972  0.11941  0.06316  1.0000
  H   H8        1.0  0.23237  0.08141  0.06730  1.0000
  H   H9        1.0  0.28491  0.09980  0.07214  1.0000
  H   H10       1.0  0.21555  0.14335  0.06651  1.0000
  H   H11       1.0  0.16313  0.12490  0.06038  1.0000
  C   C15       1.0  0.22767  0.22883  0.43818  1.0000
  C   C16       1.0  0.48689  0.17568  0.06277  1.0000
  N   N1        1.0  0.04637  0.00336  0.05247  1.0000
  C   C17       1.0  0.25870  0.23773  0.44514  1.0000
  H   H12       1.0  0.47268  0.20955  0.11976  1.0000
  C   C18       1.0  0.35178  0.19303  0.19949  1.0000
  H   H13       1.0  0.27995  0.23888  0.42963  1.0000
  C   C19       1.0  0.22261  0.18735  0.24021  1.0000
  C   C20       1.0  0.24521  0.17833  0.22153  1.0000
  C   C21       1.0  0.24811  0.18297  0.19277  1.0000
  C   C22       1.0  0.22862  0.19684  0.18230  1.0000
  C   C23       1.0  0.20589  0.20580  0.20092  1.0000
  C   C24       1.0  0.20279  0.20108  0.22964  1.0000
  H   H14       1.0  0.26074  0.16771  0.22942  1.0000
  H   H15       1.0  0.26582  0.17598  0.17883  1.0000
  H   H16       1.0  0.19058  0.21652  0.19312  1.0000
  H   H17       1.0  0.18529  0.20816  0.24363  1.0000
  N   N2        1.0  0.21172  0.16439  0.43894  1.0000
  C   C25       1.0  0.01386  0.19529  0.34995  1.0000
  C   C26       1.0  0.29337  0.23364  0.16210  1.0000
  H   H18       1.0  0.03236  0.17751  0.38124  1.0000
  H   H19       1.0  0.29012  0.23174  0.13905  1.0000
  C   C27       1.0  0.44644  0.03296  0.32498  1.0000
  H   H20       1.0  0.16149  0.12344  0.12980  1.0000
  C   C28       1.0  0.44693  0.04771  0.34065  1.0000
  H   H21       1.0  0.27333  0.19277  0.41899  1.0000
  H   H22       1.0  0.42196  0.05395  0.34648  1.0000
  C   C29       1.0  0.22742  0.03240  0.24884  1.0000
  C   C30       1.0  0.19749  0.02762  0.23295  1.0000
  C   C31       1.0  0.19616  0.03030  0.20344  1.0000
  C   C32       1.0  0.22498  0.03767  0.18932  1.0000
  C   C33       1.0  0.25437  0.04295  0.20534  1.0000
  C   C34       1.0  0.25551  0.04047  0.23489  1.0000
  H   H23       1.0  0.17550  0.02143  0.24344  1.0000
  H   H24       1.0  0.17332  0.02615  0.19153  1.0000
  H   H25       1.0  0.27682  0.04870  0.19473  1.0000
  H   H26       1.0  0.27873  0.04423  0.24669  1.0000
  C   C35       1.0  0.26685  0.10497  0.35910  1.0000
  C   C36       1.0  0.26859  0.12230  0.35422  1.0000
  C   C37       1.0  0.23961  0.13302  0.36143  1.0000
  C   C38       1.0  0.20879  0.12653  0.37400  1.0000
  C   C39       1.0  0.20742  0.10925  0.37963  1.0000
  C   C40       1.0  0.23622  0.09847  0.37200  1.0000
  H   H27       1.0  0.29226  0.12743  0.34434  1.0000
  H   H28       1.0  0.24121  0.14630  0.35722  1.0000
  H   H29       1.0  0.18376  0.10414  0.38952  1.0000
  H   H30       1.0  0.23468  0.08514  0.37599  1.0000
  H   H31       1.0  0.08629  0.01195  0.02358  1.0000
  H   H32       1.0  0.28716  0.99765  0.27269  1.0000
  N   N3        1.0  0.20653  0.12143  0.30027  1.0000
  C   C41       1.0  0.17552  0.11511  0.31123  1.0000
  C   C42       1.0  0.23446  0.11091  0.29288  1.0000
  C   C43       1.0  0.17210  0.09784  0.31544  1.0000
  C   C44       1.0  0.23200  0.09359  0.29691  1.0000
  C   C45       1.0  0.20061  0.08703  0.30826  1.0000
  C   C46       1.0  0.20929  0.13956  0.29581  1.0000
  H   H33       1.0  0.15359  0.12349  0.31749  1.0000
  H   H34       1.0  0.25932  0.11590  0.28470  1.0000
  H   H35       1.0  0.14780  0.09292  0.32476  1.0000
  H   H36       1.0  0.25476  0.08535  0.29215  1.0000
  H   H37       1.0  0.19869  0.07363  0.31194  1.0000
  H   H38       1.0  0.19568  0.14347  0.27594  1.0000
  H   H39       1.0  0.19664  0.14653  0.31358  1.0000
  H   H40       1.0  0.23769  0.14355  0.29478  1.0000
  H   H41       1.0  0.20503  0.22559  0.01288  1.0000
  H   H42       1.0  0.29559  0.11365  0.16181  1.0000
  N   N4        1.0  0.24755  0.11002  0.13891  1.0000
  C   C47       1.0  0.47671  0.02197  0.39375  1.0000
  C   C48       1.0  0.22395  0.13436  0.99835  1.0000
  H   H43       1.0  0.34876  0.21660  0.13968  1.0000
  H   H44       1.0  0.30779  0.24544  0.16573  1.0000
  C   C49       1.0  0.00817  0.03628  0.10019  1.0000
  H   H45       1.0  0.16669  0.28046  0.44025  1.0000
  C   C50       1.0  0.01057  0.00299  0.05902  1.0000
  H   H46       1.0  0.17651  0.22072  0.45382  1.0000
  H   H47       1.0  0.26499  0.08445  0.14287  1.0000
  C   C51       1.0  0.20788  0.08669  0.13829  1.0000
  H   H48       1.0  0.45529  0.00149  0.37066  1.0000
  C   C52       1.0  0.16308  0.99640  0.99182  1.0000
  C   C53       1.0  0.47648  0.20009  0.10377  1.0000
  C   C54       1.0  0.23024  0.14993  0.43256  1.0000
  H   H49       1.0  0.20131  0.26434  0.44148  1.0000
  C   C55       1.0  0.33572  0.01092  0.26455  1.0000
  C   C56       1.0  0.24032  0.28650  0.46615  1.0000
  H   H50       1.0  0.21776  0.13787  0.43553  1.0000
  H   H51       1.0  0.20787  0.12318  0.99984  1.0000
  H   H52       1.0  0.21052  0.18801  0.00646  1.0000
  C   C57       1.0  0.18389  0.27273  0.45453  1.0000
  C   C58       1.0  0.29582  0.00182  0.44728  1.0000
  C   C59       1.0  0.40708  0.02668  0.41359  1.0000
  C   C60       1.0  0.34519  0.01950  0.21627  1.0000
  H   H53       1.0  0.20404  0.07326  0.13903  1.0000
  C   C61       1.0  0.30361  0.00354  0.25660  1.0000
  H   H54       1.0  0.27367  0.12128  0.00811  1.0000
  H   H55       1.0  0.28185  0.21973  0.21277  1.0000
  H   H56       1.0  0.36104  0.02586  0.20036  1.0000
  C   C62       1.0  0.26164  0.18063  0.42300  1.0000
  H   H57       1.0  0.17885  0.15079  0.99015  1.0000
  H   H58       1.0  0.30145  0.11038  0.12420  1.0000
  H   H59       1.0  0.38303  0.19297  0.16097  1.0000
  H   H60       1.0  0.36658  0.18257  0.20891  1.0000
  C   C63       1.0  0.34136  0.21218  0.16060  1.0000
  C   C64       1.0  0.36096  0.19882  0.17261  1.0000
  C   C65       1.0  0.30437  0.21406  0.20147  1.0000
  N   N5        1.0  0.31315  0.21946  0.17488  1.0000
  C   C66       1.0  0.20064  0.22741  0.45867  1.0000
  C   C67       1.0  0.22702  0.17962  0.43441  1.0000
  C   C68       1.0  0.32340  0.20072  0.21412  1.0000
  C   C69       1.0  0.00913  0.18292  0.37070  1.0000
  H   H61       1.0  0.04281  0.02753  0.99354  1.0000
  C   C70       1.0  0.30792  0.00137  0.47544  1.0000
  H   H62       1.0  0.15182  0.09280  0.13178  1.0000
  C   C71       1.0  0.99685  0.02026  0.01832  1.0000
  C   C72       1.0  0.21890  0.12089  0.13568  1.0000
  H   H63       1.0  0.42723  0.04811  0.43553  1.0000
  C   C73       1.0  0.28058  0.16594  0.41619  1.0000
  C   C74       1.0  0.31317  0.01177  0.20893  1.0000
  H   H64       1.0  0.26852  0.98791  0.41552  1.0000
  H   H65       1.0  0.21238  0.19114  0.43923  1.0000
  H   H66       1.0  0.38124  0.02495  0.25052  1.0000
  H   H67       1.0  0.22295  0.13428  0.13398  1.0000
  C   C75       1.0  0.47990  0.05437  0.34903  1.0000
  C   C76       1.0  0.46879  0.03533  0.41165  1.0000
  C   C77       1.0  0.00773  0.04687  0.07654  1.0000
  H   H68       1.0  0.34447  0.01044  0.28630  1.0000
  C   C78       1.0  0.43379  0.03770  0.42176  1.0000
  C   C79       1.0  0.21346  0.22887  0.99171  1.0000
  C   C80       1.0  0.24237  0.09312  0.14047  1.0000
  H   H69       1.0  0.30718  0.16657  0.40684  1.0000
  C   C81       1.0  0.28415  0.11635  0.14064  1.0000
  N   N6        1.0  0.41487  0.01395  0.39525  1.0000
  H   H70       1.0  0.30432  0.01232  0.18713  1.0000
  H   H71       1.0  0.28498  0.13009  0.13664  1.0000
  H   H72       1.0  0.48969  0.04400  0.41710  1.0000
  H   H73       1.0  0.17100  0.29812  0.98947  1.0000
  H   H74       1.0  0.48003  0.06571  0.36136  1.0000
  H   H75       1.0  0.27908  0.13894  0.41545  1.0000
  C   C82       1.0  0.17860  0.09765  0.13448  1.0000
  C   C83       1.0  0.26090  0.13326  0.00293  1.0000
  C   C84       1.0  0.07210  0.99425  0.07053  1.0000
  N   N7        1.0  0.22789  0.16416  0.99180  1.0000
  N   N8        1.0  0.20512  0.28354  0.47258  1.0000
  C   C85       1.0  0.20771  0.15003  0.99304  1.0000
  C   C86       1.0  0.35649  0.01903  0.24431  1.0000
  C   C87       1.0  0.05792  0.01175  0.02893  1.0000
  C   C88       1.0  0.28114  0.14776  0.00211  1.0000
  H   H76       1.0  0.37992  0.02857  0.42163  1.0000
  C   C89       1.0  0.44920  0.01142  0.38552  1.0000
  H   H77       1.0  0.47909  0.01369  0.30528  1.0000
  N   N9        1.0  0.29267  0.00409  0.22909  1.0000
  H   H78       1.0  0.15751  0.15719  0.43502  1.0000
  H   H79       1.0  0.23935  0.99636  0.23831  1.0000
  H   H80       1.0  0.38847  0.00021  0.36353  1.0000
  H   H81       1.0  0.30969  0.14708  0.00662  1.0000
  H   H82       1.0  0.28005  0.17441  0.99585  1.0000
  C   C90       1.0  0.24672  0.22297  0.98156  1.0000
  C   C91       1.0  0.03340  0.02048  0.01168  1.0000
  C   C92       1.0  0.17520  0.16338  0.45046  1.0000
  H   H83       1.0  0.16517  0.24338  0.98253  1.0000
  H   H84       1.0  0.16667  0.26448  0.46761  1.0000
  H   H85       1.0  0.16323  0.17596  0.45491  1.0000
  H   H86       1.0  0.00152  0.99668  0.07804  1.0000
  H   H87       1.0  0.25329  0.28023  0.44850  1.0000
  H   H88       1.0  0.38951  0.99048  0.39833  1.0000
  H   H89       1.0  0.28835  0.29949  0.47779  1.0000
  H   H90       1.0  0.49066  0.16617  0.04685  1.0000
  H   H91       1.0  0.28646  0.25213  0.47666  1.0000
  C   C93       1.0  0.25962  0.99574  0.22098  1.0000
  H   H92       1.0  0.10025  0.99748  0.06537  1.0000
  C   C94       1.0  0.26252  0.24528  0.47188  1.0000
  H   H93       1.0  0.06753  0.99758  0.09303  1.0000
  C   C95       1.0  0.27817  0.98783  0.43701  1.0000
  H   H94       1.0  0.18515  0.27677  0.98326  1.0000
  H   H95       1.0  0.18266  0.17958  0.97917  1.0000
  H   H96       1.0  0.18561  0.01970  0.97817  1.0000
  Fe  Fe17      1.0  0.27310  0.27023  0.55447  1.0000
  S   S33       1.0  0.32239  0.28525  0.54378  1.0000
  S   S34       1.0  0.23637  0.25497  0.52520  1.0000
  Fe  Fe18      1.0  0.27137  0.28256  0.61705  1.0000
  S   S35       1.0  0.32055  0.29796  0.61013  1.0000
  S   S36       1.0  0.23772  0.28789  0.65708  1.0000
  Fe  Fe19      1.0  0.29581  0.30597  0.56907  1.0000
  H   H97       1.0  0.03265  0.26614  0.79870  1.0000
  Fe  Fe20      1.0  0.34413  0.27630  0.58578  1.0000
  S   S37       1.0  0.40226  0.26819  0.59657  1.0000
  S   S38       1.0  0.24537  0.29190  0.57683  1.0000
  S   S39       1.0  0.29624  0.25993  0.59551  1.0000
  Fe  Fe21      1.0  0.17034  0.27033  0.88287  1.0000
  S   S40       1.0  0.14598  0.29665  0.88200  1.0000
  S   S41       1.0  0.17174  0.25693  0.92632  1.0000
  Fe  Fe22      1.0  0.18176  0.27094  0.81794  1.0000
  S   S42       1.0  0.15761  0.29659  0.81340  1.0000
  S   S43       1.0  0.20717  0.25740  0.78022  1.0000
  Fe  Fe23      1.0  0.19032  0.30298  0.85127  1.0000
  C   C96       1.0  0.09467  0.23445  0.79957  1.0000
  Fe  Fe24      1.0  0.11485  0.28800  0.84410  1.0000
  S   S44       1.0  0.05746  0.29513  0.83001  1.0000
  S   S45       1.0  0.21655  0.27737  0.85485  1.0000
  S   S46       1.0  0.13710  0.26156  0.84612  1.0000
  C   C97       1.0  0.26026  0.29741  0.48254  1.0000
  C   C98       1.0  0.01345  0.29003  0.84227  1.0000
  H   H98       1.0  0.08161  0.28242  0.73969  1.0000
  H   H99       1.0  0.03030  0.27595  0.87894  1.0000
  C   C99       1.0  0.11274  0.25706  0.76889  1.0000
  C   C100      1.0  0.22875  0.27861  0.69067  1.0000
  C   C101      1.0  0.20471  0.28695  0.70913  1.0000
  C   C102      1.0  0.19818  0.28077  0.73663  1.0000
  C   C103      1.0  0.21510  0.26593  0.74592  1.0000
  C   C104      1.0  0.23872  0.25744  0.72736  1.0000
  C   C105      1.0  0.24576  0.26380  0.69999  1.0000
  H   H100      1.0  0.19144  0.29844  0.70219  1.0000
  H   H101      1.0  0.17993  0.28748  0.75053  1.0000
  H   H102      1.0  0.25183  0.24590  0.73420  1.0000
  H   H103      1.0  0.26427  0.25721  0.68610  1.0000
  C   C106      1.0  0.44573  0.27392  0.58411  1.0000
  C   C107      1.0  0.45058  0.28466  0.56097  1.0000
  N   N10       1.0  0.08160  0.26572  0.77497  1.0000
  H   H104      1.0  0.42746  0.28918  0.54923  1.0000
  C   C108      1.0  0.27724  0.30074  0.73954  1.0000
  C   C109      1.0  0.23438  0.23765  0.93654  1.0000
  C   C110      1.0  0.20105  0.24348  0.94665  1.0000
  C   C111      1.0  0.25808  0.29063  0.92647  1.0000
  H   H105      1.0  0.24281  0.24094  0.91537  1.0000
  H   H106      1.0  0.47305  0.25961  0.61661  1.0000
  C   C112      1.0  0.18892  0.29129  0.49506  1.0000
  H   H107      1.0  0.15091  0.28608  0.96156  1.0000
  H   H108      1.0  0.25042  0.00001  0.56627  1.0000
  H   H109      1.0  0.29075  0.28862  0.73779  1.0000
  H   H110      1.0  0.48872  0.29815  0.53540  1.0000
  C   C113      1.0  0.24382  0.30549  0.50531  1.0000
  C   C114      1.0  0.18042  0.00261  0.94312  1.0000
  C   C115      1.0  0.25253  0.30607  0.91304  1.0000
  C   C116      1.0  0.26334  0.29463  0.78934  1.0000
  C   C117      1.0  0.48991  0.31178  0.61894  1.0000
  H   H111      1.0  0.13270  0.26242  0.75492  1.0000
  H   H112      1.0  0.28243  0.22293  0.94559  1.0000
  C   C118      1.0  0.06311  0.24343  0.80585  1.0000
  H   H113      1.0  0.38099  0.31197  0.56876  1.0000
  H   H114      1.0  0.27142  0.31044  0.89721  1.0000
  H   H115      1.0  0.25898  0.31399  0.51821  1.0000
  C   C119      1.0  0.47637  0.26798  0.59876  1.0000
  C   C120      1.0  0.07565  0.28245  0.76267  1.0000
  H   H116      1.0  0.22589  0.18767  0.97038  1.0000
  C   C121      1.0  0.27465  0.31099  0.71551  1.0000
  C   C122      1.0  0.48544  0.28969  0.55313  1.0000
  H   H117      1.0  0.14477  0.23464  0.77640  1.0000
  H   H118      1.0  0.19180  0.01123  0.92794  1.0000
  H   H119      1.0  0.04743  0.28697  0.76568  1.0000
  H   H120      1.0  0.17339  0.31726  0.94392  1.0000
  C   C123      1.0  0.25687  0.22743  0.95382  1.0000
  C   C124      1.0  0.17686  0.00749  0.97167  1.0000
  C   C125      1.0  0.00763  0.28045  0.86666  1.0000
  H   H121      1.0  0.27843  0.30075  0.80646  1.0000
  C   C126      1.0  0.11967  0.24128  0.78096  1.0000
  H   H122      1.0  0.09321  0.29153  0.77327  1.0000
  H   H123      1.0  0.45874  0.29636  0.64702  1.0000
  C   C127      1.0  0.20794  0.30241  0.51168  1.0000
  C   C128      1.0  0.23513  0.24418  0.49215  1.0000
  H   H124      1.0  0.04379  0.23846  0.82079  1.0000
  H   H125      1.0  0.28589  0.30680  0.69551  1.0000
  H   H126      1.0  0.16120  0.28876  0.50042  1.0000
  C   C129      1.0  0.19744  0.30983  0.93947  1.0000
  H   H127      1.0  0.19508  0.30840  0.52967  1.0000
  H   H128      1.0  0.10011  0.22238  0.80953  1.0000
  H   H129      1.0  0.18296  0.23405  0.50076  1.0000
  C   C130      1.0  0.23309  0.28516  0.94647  1.0000
  H   H130      1.0  0.23746  0.27306  0.95659  1.0000
  H   H131      1.0  0.40108  0.30366  0.62403  1.0000
  H   H132      1.0  0.27624  0.28227  0.78468  1.0000
  H   H133      1.0  0.32152  0.01209  0.48375  1.0000
  C   C131      1.0  0.05696  0.25913  0.79327  1.0000
  H   H134      1.0  0.28131  0.28283  0.92119  1.0000
  N   N11       1.0  0.20316  0.29471  0.95265  1.0000
  C   C132      1.0  0.20438  0.23503  0.48535  1.0000
  C   C133      1.0  0.45807  0.30525  0.62957  1.0000
  H   H135      1.0  0.23581  0.29209  0.79709  1.0000
  N   N12       1.0  0.26149  0.30558  0.76441  1.0000
  C   C134      1.0  0.42549  0.30944  0.61645  1.0000
  C   C135      1.0  0.19085  0.23900  0.97436  1.0000
  H   H136      1.0  0.31190  0.98720  0.51463  1.0000
  C   C136      1.0  0.22213  0.31579  0.91964  1.0000
  H   H137      1.0  0.23074  0.99201  0.51858  1.0000
  C   C137      1.0  0.23211  0.98975  0.56370  1.0000
  C   C138      1.0  0.30250  0.98724  0.49307  1.0000
  N   N13       1.0  0.42461  0.31995  0.59351  1.0000
  C   C139      1.0  0.17631  0.28868  0.97284  1.0000
  Fe  Fe25      1.0  0.17294  0.52199  0.37540  1.0000
  S   S47       1.0  0.16123  0.54963  0.38124  1.0000
  S   S48       1.0  0.15775  0.50234  0.40941  1.0000
  Fe  Fe26      1.0  0.18623  0.52743  0.31046  1.0000
  S   S49       1.0  0.17325  0.55491  0.31264  1.0000
  S   S50       1.0  0.20395  0.51417  0.26976  1.0000
  Fe  Fe27      1.0  0.20750  0.55431  0.35149  1.0000
  S   S51       1.0  0.25445  0.57223  0.35273  1.0000
  Fe  Fe28      1.0  0.12792  0.54771  0.34185  1.0000
  S   S52       1.0  0.07272  0.56055  0.34170  1.0000
  S   S53       1.0  0.22213  0.52673  0.34860  1.0000
  S   S54       1.0  0.13798  0.52017  0.33667  1.0000
  Fe  Fe29      1.0  0.35905  0.54521  0.07204  1.0000
  S   S55       1.0  0.34339  0.52174  0.09492  1.0000
  S   S56       1.0  0.41583  0.55158  0.05796  1.0000
  Fe  Fe30      1.0  0.28023  0.55588  0.06208  1.0000
  S   S57       1.0  0.25956  0.53244  0.08265  1.0000
  S   S58       1.0  0.23822  0.57487  0.04679  1.0000
  Fe  Fe31      1.0  0.30005  0.53752  0.11661  1.0000
  S   S59       1.0  0.28627  0.54449  0.16263  1.0000
  Fe  Fe32      1.0  0.30420  0.51886  0.05878  1.0000
  S   S60       1.0  0.30373  0.49366  0.03539  1.0000
  S   S61       1.0  0.31953  0.56133  0.09606  1.0000
  S   S62       1.0  0.32116  0.54194  0.03568  1.0000
  C   C140      1.0  0.24043  0.59629  0.05578  1.0000
  C   C141      1.0  0.27060  0.60265  0.06904  1.0000
  C   C142      1.0  0.27117  0.61959  0.07681  1.0000
  C   C143      1.0  0.24147  0.63033  0.07176  1.0000
  C   C144      1.0  0.21138  0.62406  0.05817  1.0000
  C   C145      1.0  0.21097  0.60710  0.05011  1.0000
  H   H138      1.0  0.29358  0.59454  0.07321  1.0000
  H   H139      1.0  0.29458  0.62436  0.08722  1.0000
  H   H140      1.0  0.18838  0.63222  0.05413  1.0000
  H   H141      1.0  0.18761  0.60230  0.03967  1.0000
  C   C146      1.0  0.45549  0.53953  0.10345  1.0000
  C   C147      1.0  0.45579  0.54536  0.07556  1.0000
  H   H142      1.0  0.48771  0.53225  0.13945  1.0000
  H   H143      1.0  0.43018  0.53786  0.11433  1.0000
  H   H144      1.0  0.22466  0.65294  0.44004  1.0000
  C   C148      1.0  0.03172  0.54968  0.33986  1.0000
  C   C149      1.0  0.03096  0.53232  0.33628  1.0000
  N   N14       1.0  0.39515  0.50519  0.01110  1.0000
  H   H145      1.0  0.05579  0.52529  0.33333  1.0000
  C   C150      1.0  0.00887  0.64738  0.06397  1.0000
  C   C151      1.0  0.22336  0.52314  0.23877  1.0000
  C   C152      1.0  0.23426  0.51255  0.21654  1.0000
  C   C153      1.0  0.25202  0.51892  0.19242  1.0000
  C   C154      1.0  0.25927  0.53601  0.19028  1.0000
  C   C155      1.0  0.24758  0.54665  0.21220  1.0000
  C   C156      1.0  0.22978  0.54029  0.23628  1.0000
  H   H146      1.0  0.22933  0.49927  0.21814  1.0000
  H   H147      1.0  0.26090  0.51053  0.17588  1.0000
  H   H148      1.0  0.25306  0.55988  0.21088  1.0000
  H   H149      1.0  0.22156  0.54861  0.25312  1.0000
  C   C157      1.0  0.24966  0.59390  0.36017  1.0000
  C   C158      1.0  0.27985  0.60415  0.35794  1.0000
  C   C159      1.0  0.27701  0.62148  0.36326  1.0000
  C   C160      1.0  0.24394  0.62869  0.37109  1.0000
  C   C161      1.0  0.21385  0.61842  0.37361  1.0000
  C   C162      1.0  0.21659  0.60114  0.36795  1.0000
  H   H150      1.0  0.30563  0.59863  0.35224  1.0000
  H   H151      1.0  0.30046  0.62921  0.36163  1.0000
  H   H152      1.0  0.18816  0.62386  0.37972  1.0000
  H   H153      1.0  0.19318  0.59339  0.36982  1.0000
  S   S63       1.0  0.23849  0.65047  0.37720  1.0000
  H   H154      1.0  0.08488  0.50349  0.37993  1.0000
  N   N15       1.0  0.25559  0.63813  0.29514  1.0000
  H   H155      1.0  0.31287  0.46321  0.00386  1.0000
  H   H156      1.0  0.40651  0.51575  0.05151  1.0000
  C   C163      1.0  0.20802  0.49715  0.45286  1.0000
  C   C164      1.0  0.17406  0.49368  0.44207  1.0000
  C   C165      1.0  0.48892  0.54758  0.06180  1.0000
  C   C166      1.0  0.25292  0.58970  0.14097  1.0000
  H   H157      1.0  0.22536  0.50556  0.44143  1.0000
  N   N16       1.0  0.05246  0.52072  0.40311  1.0000
  H   H158      1.0  0.23704  0.44888  0.47525  1.0000
  H   H159      1.0  0.37951  0.49737  0.05209  1.0000
  H   H160      1.0  0.27270  0.58004  0.14648  1.0000
  C   C167      1.0  0.99907  0.55864  0.34325  1.0000
  H   H161      1.0  0.22531  0.61749  0.31048  1.0000
  N   N17       1.0  0.22200  0.58559  0.12742  1.0000
  H   H162      1.0  0.46691  0.57610  0.10488  1.0000
  C   C168      1.0  0.39151  0.52072  0.99888  1.0000
  H   H163      1.0  0.99765  0.51056  0.33411  1.0000
  H   H164      1.0  0.18361  0.62422  0.12050  1.0000
  C   C169      1.0  0.25983  0.60641  0.14731  1.0000
  H   H165      1.0  0.19865  0.56240  0.13831  1.0000
  H   H166      1.0  0.29985  0.62953  0.27044  1.0000
  C   C170      1.0  0.21495  0.56804  0.12116  1.0000
  C   C171      1.0  0.99793  0.52400  0.33673  1.0000
  H   H167      1.0  0.24006  0.63198  0.14388  1.0000
  C   C172      1.0  0.19691  0.59771  0.12065  1.0000
  H   H168      1.0  0.20087  0.56691  0.10064  1.0000
  C   C173      1.0  0.23457  0.61887  0.14017  1.0000
  C   C174      1.0  0.15209  0.48264  0.45744  1.0000
  H   H169      1.0  0.07715  0.49780  0.41624  1.0000
  C   C175      1.0  0.22509  0.63069  0.30487  1.0000
  N   N18       1.0  0.29953  0.52480  0.27929  1.0000
  C   C176      1.0  0.29522  0.53834  0.29660  1.0000
  C   C177      1.0  0.31367  0.52671  0.25278  1.0000
  C   C178      1.0  0.30409  0.55437  0.28719  1.0000
  C   C179      1.0  0.32320  0.54255  0.24276  1.0000
  C   C180      1.0  0.31812  0.55646  0.26005  1.0000
  C   C181      1.0  0.29058  0.50803  0.28959  1.0000
  H   H170      1.0  0.28457  0.53689  0.31778  1.0000
  H   H171      1.0  0.31664  0.51604  0.23888  1.0000
  H   H172      1.0  0.29978  0.56506  0.30094  1.0000
  H   H173      1.0  0.33317  0.54405  0.22131  1.0000
  H   H174      1.0  0.32470  0.56885  0.25232  1.0000
  H   H175      1.0  0.28000  0.50030  0.27219  1.0000
  H   H176      1.0  0.31463  0.50174  0.29888  1.0000
  H   H177      1.0  0.26880  0.50865  0.30570  1.0000
  H   H178      1.0  0.28491  0.60971  0.15711  1.0000
  H   H179      1.0  0.24039  0.56065  0.11921  1.0000
  C   C182      1.0  0.30706  0.47312  0.98874  1.0000
  C   C183      1.0  0.18996  0.43524  0.46465  1.0000
  H   H180      1.0  0.39424  0.53194  0.01137  1.0000
  C   C184      1.0  0.40252  0.50344  0.04135  1.0000
  C   C185      1.0  0.28926  0.62843  0.29231  1.0000
  C   C186      1.0  0.20276  0.61451  0.12698  1.0000
  H   H181      1.0  0.47357  0.58269  0.06925  1.0000
  C   C187      1.0  0.07759  0.53254  0.40816  1.0000
  C   C188      1.0  0.30128  0.48961  0.99843  1.0000
  H   H182      1.0  0.48940  0.55214  0.04025  1.0000
  H   H183      1.0  0.42728  0.49573  0.04481  1.0000
  H   H184      1.0  0.46785  0.59818  0.09668  1.0000
  H   H185      1.0  0.17268  0.59447  0.10952  1.0000
  C   C189      1.0  0.06723  0.54924  0.41270  1.0000
  H   H186      1.0  0.28567  0.61494  0.29734  1.0000
  H   H187      1.0  0.18021  0.44472  0.44984  1.0000
  H   H188      1.0  0.10591  0.52913  0.40807  1.0000
  H   H189      1.0  0.04210  0.49556  0.39025  1.0000
  C   C190      1.0  0.17015  0.42091  0.47003  1.0000
  C   C191      1.0  0.06447  0.50350  0.39717  1.0000
  H   H190      1.0  0.12579  0.47980  0.44945  1.0000
  S   S64       1.0  0.24256  0.65096  0.08505  1.0000
  C   C192      1.0  0.03085  0.55374  0.41246  1.0000
  H   H191      1.0  0.28934  0.51500  0.98553  1.0000
  H   H192      1.0  0.08739  0.55871  0.41530  1.0000
  H   H193      1.0  0.01810  0.63415  0.06177  1.0000
  H   H194      1.0  0.99937  0.57209  0.34585  1.0000
  C   C193      1.0  0.48812  0.53642  0.11767  1.0000
  H   H195      1.0  0.02256  0.56677  0.41474  1.0000
  H   H196      1.0  0.14477  0.41913  0.45945  1.0000
  H   H197      1.0  0.02598  0.65345  0.07995  1.0000
  C   C194      1.0  0.47993  0.58576  0.09149  1.0000
  H   H198      1.0  0.39315  0.47880  0.00519  1.0000
  H   H199      1.0  0.30949  0.63331  0.30718  1.0000
  C   C195      1.0  0.01664  0.52494  0.40351  1.0000
  C   C196      1.0  0.39140  0.49109  0.99530  1.0000
  C   C197      1.0  0.19343  0.64015  0.30884  1.0000
  C   C198      1.0  0.00529  0.54150  0.40818  1.0000
  H   H200      1.0  0.23071  0.46047  0.98236  1.0000
  H   H201      1.0  0.16967  0.63430  0.31741  1.0000
  H   H202      1.0  0.99665  0.51569  0.39889  1.0000
  C   C199      1.0  0.29389  0.50226  0.97854  1.0000
  Fe  Fe33      1.0  0.18647  0.45091  0.55625  1.0000
  S   S65       1.0  0.14377  0.43381  0.54133  1.0000
  S   S66       1.0  0.21483  0.46873  0.52528  1.0000
  Fe  Fe34      1.0  0.18031  0.43829  0.61845  1.0000
  S   S67       1.0  0.13578  0.42087  0.60673  1.0000
  S   S68       1.0  0.18930  0.43696  0.66661  1.0000
  Fe  Fe35      1.0  0.17029  0.41420  0.56926  1.0000
  S   S69       1.0  0.17252  0.38695  0.55528  1.0000
  Fe  Fe36      1.0  0.11314  0.44178  0.58005  1.0000
  S   S70       1.0  0.05589  0.45205  0.57532  1.0000
  S   S71       1.0  0.21588  0.43057  0.58171  1.0000
  S   S72       1.0  0.15483  0.45993  0.59413  1.0000
  Fe  Fe37      1.0  0.30226  0.44149  0.81362  1.0000
  S   S73       1.0  0.31696  0.41517  0.82729  1.0000
  S   S74       1.0  0.30259  0.44844  0.76637  1.0000
  Fe  Fe38      1.0  0.30170  0.45418  0.87602  1.0000
  S   S75       1.0  0.31563  0.42857  0.89313  1.0000
  S   S76       1.0  0.29237  0.47777  0.90312  1.0000
  Fe  Fe39      1.0  0.35555  0.42714  0.85720  1.0000
  S   S77       1.0  0.41114  0.41537  0.86355  1.0000
  Fe  Fe40      1.0  0.27599  0.41892  0.86168  1.0000
  S   S78       1.0  0.23187  0.40097  0.87467  1.0000
  S   S79       1.0  0.34393  0.45323  0.84154  1.0000
  S   S80       1.0  0.25896  0.44480  0.84657  1.0000
  C   C200      1.0  0.45216  0.42554  0.85678  1.0000
  C   C201      1.0  0.45307  0.44219  0.84745  1.0000
  C   C202      1.0  0.38362  0.52241  0.97015  1.0000
  H   H203      1.0  0.42830  0.44938  0.84519  1.0000
  H   H204      1.0  0.21916  0.48921  0.92478  1.0000
  C   C203      1.0  0.29758  0.48192  0.93985  1.0000
  C   C204      1.0  0.29192  0.49841  0.94954  1.0000
  H   H205      1.0  0.11544  0.42504  0.66893  1.0000
  H   H206      1.0  0.23116  0.32451  0.78602  1.0000
  H   H207      1.0  0.28566  0.50831  0.93449  1.0000
  H   H208      1.0  0.30999  0.45656  0.95267  1.0000
  C   C205      1.0  0.23204  0.37941  0.86580  1.0000
  C   C206      1.0  0.20146  0.36989  0.87169  1.0000
  C   C207      1.0  0.20092  0.35264  0.86553  1.0000
  C   C208      1.0  0.23121  0.34471  0.85371  1.0000
  C   C209      1.0  0.26172  0.35423  0.84777  1.0000
  C   C210      1.0  0.26212  0.37150  0.85365  1.0000
  H   H209      1.0  0.17801  0.37592  0.88100  1.0000
  H   H210      1.0  0.17717  0.34551  0.87006  1.0000
  H   H211      1.0  0.28534  0.34823  0.83871  1.0000
  H   H212      1.0  0.28586  0.37864  0.84912  1.0000
  C   C211      1.0  0.19776  0.47861  0.49383  1.0000
  H   H213      1.0  0.14633  0.46686  0.49462  1.0000
  H   H214      1.0  0.26976  0.42084  0.53303  1.0000
  C   C212      1.0  0.48881  0.32246  0.59551  1.0000
  H   H215      1.0  0.03971  0.42013  0.60332  1.0000
  H   H216      1.0  0.17790  0.48489  0.94371  1.0000
  C   C213      1.0  0.16369  0.47525  0.48315  1.0000
  H   H217      1.0  0.38045  0.48110  0.95402  1.0000
  C   C214      1.0  0.22181  0.43998  0.69372  1.0000
  C   C215      1.0  0.21304  0.43544  0.72170  1.0000
  C   C216      1.0  0.23738  0.43777  0.74409  1.0000
  C   C217      1.0  0.27088  0.44485  0.73888  1.0000
  C   C218      1.0  0.27961  0.44943  0.71091  1.0000
  C   C219      1.0  0.25537  0.44698  0.68848  1.0000
  H   H218      1.0  0.18728  0.42997  0.72614  1.0000
  H   H219      1.0  0.23014  0.43416  0.76538  1.0000
  H   H220      1.0  0.30534  0.45495  0.70652  1.0000
  H   H221      1.0  0.26260  0.45060  0.66719  1.0000
  C   C220      1.0  0.20877  0.37235  0.55939  1.0000
  C   C221      1.0  0.20172  0.35514  0.55826  1.0000
  C   C222      1.0  0.22989  0.34309  0.55911  1.0000
  C   C223      1.0  0.26558  0.34815  0.55998  1.0000
  C   C224      1.0  0.27269  0.36536  0.56133  1.0000
  C   C225      1.0  0.24442  0.37740  0.56158  1.0000
  H   H222      1.0  0.17425  0.35111  0.55671  1.0000
  H   H223      1.0  0.22398  0.32993  0.55851  1.0000
  H   H224      1.0  0.30021  0.36939  0.56216  1.0000
  H   H225      1.0  0.25029  0.39057  0.56282  1.0000
  C   C226      1.0  0.07668  0.45584  0.64709  1.0000
  H   H226      1.0  0.36941  0.32745  0.59500  1.0000
  C   C227      1.0  0.22533  0.42987  0.93344  1.0000
  C   C228      1.0  0.21291  0.43962  0.91084  1.0000
  H   H227      1.0  0.22454  0.40249  0.51878  1.0000
  H   H228      1.0  0.26834  0.44210  0.52108  1.0000
  C   C229      1.0  0.26742  0.42889  0.51384  1.0000
  C   C230      1.0  0.01471  0.42658  0.59821  1.0000
  C   C231      1.0  0.18291  0.40900  0.48944  1.0000
  N   N19       1.0  0.21416  0.46420  0.93966  1.0000
  H   H229      1.0  0.09730  0.43176  0.70235  1.0000
  H   H230      1.0  0.44153  0.46574  0.76254  1.0000
  C   C232      1.0  0.45704  0.42561  0.78455  1.0000
  H   H231      1.0  0.37862  0.45579  0.76496  1.0000
  C   C233      1.0  0.46451  0.44196  0.77582  1.0000
  C   C234      1.0  0.08038  0.47218  0.63677  1.0000
  C   C235      1.0  0.30554  0.46931  0.95968  1.0000
  C   C236      1.0  0.22556  0.45468  0.96218  1.0000
  H   H232      1.0  0.10916  0.49515  0.64073  1.0000
  C   C237      1.0  0.41510  0.40310  0.79501  1.0000
  H   H233      1.0  0.41434  0.39493  0.77623  1.0000
  H   H234      1.0  0.25288  0.33407  0.69832  1.0000
  C   C238      1.0  0.37996  0.50808  0.95384  1.0000
  H   H235      1.0  0.36694  0.42677  0.77990  1.0000
  C   C239      1.0  0.24036  0.33120  0.74261  1.0000
  H   H236      1.0  0.43586  0.39827  0.80997  1.0000
  N   N20       1.0  0.09660  0.45021  0.66955  1.0000
  C   C240      1.0  0.23176  0.43742  0.95932  1.0000
  C   C241      1.0  0.12561  0.47677  0.67193  1.0000
  C   C242      1.0  0.43620  0.45294  0.76889  1.0000
  H   H237      1.0  0.22568  0.34305  0.74408  1.0000
  N   N21       1.0  0.42233  0.42039  0.78641  1.0000
  C   C243      1.0  0.22210  0.43755  0.47913  1.0000
  C   C244      1.0  0.12076  0.46045  0.68201  1.0000
  H   H238      1.0  0.14576  0.48458  0.68128  1.0000
  H   H239      1.0  0.05819  0.44762  0.63666  1.0000
  C   C245      1.0  0.10522  0.48265  0.64917  1.0000
  C   C246      1.0  0.39025  0.32343  0.57944  1.0000
  S   S81       1.0  0.23305  0.32290  0.84675  1.0000
  C   C247      1.0  0.24352  0.32066  0.76625  1.0000
  C   C248      1.0  0.09391  0.43277  0.67912  1.0000
  H   H240      1.0  0.37305  0.50915  0.93166  1.0000
  H   H241      1.0  0.38910  0.40240  0.80655  1.0000
  H   H242      1.0  0.20762  0.43381  0.89071  1.0000
  C   C249      1.0  0.01524  0.44205  0.58415  1.0000
  H   H243      1.0  0.13751  0.45580  0.69917  1.0000
  H   H244      1.0  0.06746  0.42748  0.67373  1.0000
  H   H245      1.0  0.19918  0.46443  0.89627  1.0000
  H   H246      1.0  0.06489  0.47647  0.61866  1.0000
  C   C250      1.0  0.40095  0.44741  0.77037  1.0000
  C   C251      1.0  0.39447  0.43096  0.77901  1.0000
  C   C252      1.0  0.38415  0.49231  0.96640  1.0000
  C   C253      1.0  0.21511  0.41174  0.50355  1.0000
  S   S82       1.0  0.30186  0.33345  0.55739  1.0000
  H   H247      1.0  0.23008  0.41651  0.93074  1.0000
  C   C254      1.0  0.20783  0.45688  0.91422  1.0000
  H   H248      1.0  0.29077  0.42627  0.49980  1.0000
  N   N22       1.0  0.23388  0.42604  0.49872  1.0000
  H   H249      1.0  0.45527  0.33436  0.56426  1.0000
  H   H250      1.0  0.37990  0.53475  0.96074  1.0000
  C   C255      1.0  0.48464  0.41640  0.85961  1.0000
  C   C256      1.0  0.20725  0.48223  0.94285  1.0000
  C   C257      1.0  0.45572  0.32643  0.58294  1.0000
  H   H251      1.0  0.39205  0.33360  0.56339  1.0000
  C   C258      1.0  0.25584  0.32625  0.71704  1.0000
  H   H252      1.0  0.48420  0.40353  0.86693  1.0000
  H   H253      1.0  0.24621  0.49233  0.48636  1.0000
  H   H254      1.0  0.47916  0.41732  0.79067  1.0000
  H   H255      1.0  0.21972  0.48711  0.96232  1.0000
  H   H256      1.0  0.21741  0.32771  0.90899  1.0000
  C   C259      1.0  0.48612  0.44942  0.84025  1.0000
  H   H257      1.0  0.48649  0.46218  0.83241  1.0000
  H   H258      1.0  0.49206  0.44619  0.77531  1.0000
  H   H259      1.0  0.16757  0.39789  0.49422  1.0000
  C   C260      1.0  0.21979  0.48960  0.47843  1.0000
  H   H260      1.0  0.24164  0.42997  0.97699  1.0000
  Fe  Fe41      1.0  0.28402  0.70877  0.37678  1.0000
  S   S83       1.0  0.30874  0.68587  0.39718  1.0000
  S   S84       1.0  0.25485  0.73017  0.40100  1.0000
  Fe  Fe42      1.0  0.29651  0.69440  0.31634  1.0000
  S   S85       1.0  0.32242  0.67067  0.33379  1.0000
  S   S86       1.0  0.29419  0.69418  0.26772  1.0000
  Fe  Fe43      1.0  0.27783  0.67098  0.36569  1.0000
  H   H261      1.0  0.19881  0.74234  0.09837  1.0000
  Fe  Fe44      1.0  0.35201  0.68750  0.36337  1.0000
  S   S87       1.0  0.41003  0.68163  0.37757  1.0000
  S   S88       1.0  0.25030  0.69376  0.34692  1.0000
  S   S89       1.0  0.32886  0.71137  0.34432  1.0000
  Fe  Fe45      1.0  0.19349  0.70903  0.06219  1.0000
  S   S90       1.0  0.17212  0.68473  0.04602  1.0000
  S   S91       1.0  0.21857  0.73161  0.03882  1.0000
  Fe  Fe46      1.0  0.17680  0.69892  0.12470  1.0000
  S   S92       1.0  0.15355  0.67424  0.11239  1.0000
  S   S93       1.0  0.17788  0.70807  0.17049  1.0000
  Fe  Fe47      1.0  0.20085  0.67222  0.08267  1.0000
  C   C261      1.0  0.25529  0.65483  0.28851  1.0000
  Fe  Fe48      1.0  0.12589  0.68866  0.07711  1.0000
  S   S94       1.0  0.06831  0.68448  0.06117  1.0000
  S   S95       1.0  0.22529  0.69629  0.09692  1.0000
  S   S96       1.0  0.14593  0.71359  0.09131  1.0000
  H   H262      1.0  0.17862  0.73885  0.13223  1.0000
  C   C262      1.0  0.02528  0.68953  0.07605  1.0000
  H   H263      1.0  0.18661  0.70816  0.40711  1.0000
  H   H264      1.0  0.31524  0.72129  0.11030  1.0000
  H   H265      1.0  0.04366  0.69366  0.11831  1.0000
  C   C263      1.0  0.26014  0.69720  0.24165  1.0000
  C   C264      1.0  0.26639  0.69107  0.21423  1.0000
  C   C265      1.0  0.24098  0.69370  0.19250  1.0000
  C   C266      1.0  0.20918  0.70282  0.19776  1.0000
  C   C267      1.0  0.20286  0.70889  0.22521  1.0000
  C   C268      1.0  0.22798  0.70600  0.24707  1.0000
  H   H266      1.0  0.29120  0.68431  0.20970  1.0000
  H   H267      1.0  0.24641  0.68901  0.17152  1.0000
  H   H268      1.0  0.17847  0.71604  0.22954  1.0000
  H   H269      1.0  0.22286  0.71099  0.26789  1.0000
  C   C269      1.0  0.45324  0.68569  0.36267  1.0000
  C   C270      1.0  0.27232  0.97379  0.45476  1.0000
  C   C271      1.0  0.45788  0.69602  0.33898  1.0000
  H   H270      1.0  0.26661  0.66293  0.43304  1.0000
  H   H271      1.0  0.43459  0.70157  0.32870  1.0000
  C   C272      1.0  0.22916  0.72316  0.98190  1.0000
  C   C273      1.0  0.23245  0.73520  0.00299  1.0000
  H   H272      1.0  0.24979  0.76025  0.01146  1.0000
  H   H273      1.0  0.32374  0.71854  0.16232  1.0000
  H   H274      1.0  0.06929  0.98056  0.06790  1.0000
  C   C274      1.0  0.22589  0.74925  0.44438  1.0000
  C   C275      1.0  0.25058  0.73630  0.43723  1.0000
  C   C276      1.0  0.22024  0.75411  0.47275  1.0000
  H   H275      1.0  0.21067  0.75546  0.42779  1.0000
  H   H276      1.0  0.28897  0.71844  0.45410  1.0000
  C   C277      1.0  0.24689  0.75083  0.99541  1.0000
  H   H277      1.0  0.27531  0.72842  0.19479  1.0000
  C   C278      1.0  0.15206  0.98054  0.98272  1.0000
  H   H278      1.0  0.21886  0.74036  0.17525  1.0000
  C   C279      1.0  0.27225  0.72986  0.17211  1.0000
  C   C280      1.0  0.02047  0.69303  0.10472  1.0000
  C   C281      1.0  0.21315  0.68640  0.42550  1.0000
  H   H279      1.0  0.25414  0.65801  0.46869  1.0000
  H   H280      1.0  0.21767  0.68053  0.40521  1.0000
  N   N23       1.0  0.23563  0.73779  0.13237  1.0000
  H   H281      1.0  0.25876  0.73369  0.09161  1.0000
  H   H282      1.0  0.16887  0.66480  0.30582  1.0000
  H   H283      1.0  0.26560  0.98243  0.21594  1.0000
  C   C282      1.0  0.19305  0.65725  0.30248  1.0000
  H   H284      1.0  0.14140  0.97179  0.99800  1.0000
  H   H285      1.0  0.20034  0.75849  0.12471  1.0000
  C   C283      1.0  0.29455  0.72577  0.12474  1.0000
  C   C284      1.0  0.26246  0.73277  0.11429  1.0000
  C   C285      1.0  0.29933  0.72424  0.15386  1.0000
  C   C286      1.0  0.20174  0.74476  0.12133  1.0000
  C   C287      1.0  0.24357  0.66240  0.44798  1.0000
  C   C288      1.0  0.24038  0.73664  0.16092  1.0000
  N   N24       1.0  0.22541  0.67884  0.44971  1.0000
  H   H286      1.0  0.25822  0.96318  0.44658  1.0000
  C   C289      1.0  0.26988  0.72840  0.45907  1.0000
  H   H287      1.0  0.17622  0.72188  0.45336  1.0000
  H   H288      1.0  0.99789  0.68608  0.03661  1.0000
  H   H289      1.0  0.21830  0.71106  0.98721  1.0000
  H   H290      1.0  0.48087  0.67057  0.39397  1.0000
  C   C290      1.0  0.18939  0.70964  0.45242  1.0000
  C   C291      1.0  0.19505  0.70190  0.42647  1.0000
  C   C292      1.0  0.22034  0.68644  0.47526  1.0000
  C   C293      1.0  0.49276  0.69928  0.32866  1.0000
  H   H291      1.0  0.22424  0.67793  0.28716  1.0000
  C   C294      1.0  0.48403  0.67861  0.37568  1.0000
  C   C295      1.0  0.22408  0.66463  0.29207  1.0000
  C   C296      1.0  0.99460  0.68868  0.05884  1.0000
  H   H292      1.0  0.22721  0.96890  0.98560  1.0000
  H   H293      1.0  0.27946  0.66070  0.28074  1.0000
  H   H294      1.0  0.21216  0.93868  0.98682  1.0000
  H   H295      1.0  0.01352  0.65420  0.04376  1.0000
  H   H296      1.0  0.20077  0.76391  0.47766  1.0000
  C   C297      1.0  0.20228  0.70196  0.47700  1.0000
  Fe  Fe49      1.0  0.35206  0.94280  0.59165  1.0000
  S   S97       1.0  0.30758  0.96210  0.58588  1.0000
  S   S98       1.0  0.40776  0.95225  0.60176  1.0000
  Fe  Fe50      1.0  0.30121  0.91368  0.58333  1.0000
  S   S99       1.0  0.25349  0.93093  0.57630  1.0000
  S   S100      1.0  0.30348  0.88515  0.58722  1.0000
  Fe  Fe51      1.0  0.29101  0.94645  0.54915  1.0000
  C   C298      1.0  0.48249  0.95243  0.52711  1.0000
  Fe  Fe52      1.0  0.27416  0.94519  0.61372  1.0000
  S   S101      1.0  0.23777  0.95658  0.64835  1.0000
  S   S102      1.0  0.33734  0.92792  0.55365  1.0000
  S   S103      1.0  0.31996  0.92724  0.62200  1.0000
  Fe  Fe53      1.0  0.17823  0.80771  0.56634  1.0000
  S   S104      1.0  0.22579  0.79220  0.58060  1.0000
  S   S105      1.0  0.18201  0.83457  0.55020  1.0000
  Fe  Fe54      1.0  0.12409  0.78005  0.57939  1.0000
  S   S106      1.0  0.16862  0.76278  0.59542  1.0000
  S   S107      1.0  0.06746  0.76889  0.58157  1.0000
  Fe  Fe55      1.0  0.19093  0.78513  0.61776  1.0000
  S   S108      1.0  0.20393  0.79010  0.66439  1.0000
  Fe  Fe56      1.0  0.20003  0.77106  0.55674  1.0000
  S   S109      1.0  0.23430  0.75198  0.53094  1.0000
  S   S110      1.0  0.14420  0.80175  0.60420  1.0000
  S   S111      1.0  0.15463  0.78719  0.53986  1.0000
  Fe  Fe57      1.0  0.17227  0.93754  0.81640  1.0000
  S   S112      1.0  0.14928  0.91415  0.83604  1.0000
  S   S113      1.0  0.20021  0.93097  0.77415  1.0000
  Fe  Fe58      1.0  0.16610  0.95638  0.87442  1.0000
  S   S114      1.0  0.14530  0.93374  0.89666  1.0000
  C   C299      1.0  0.41732  0.91506  0.64479  1.0000
  Fe  Fe59      1.0  0.18625  0.91875  0.87205  1.0000
  S   S115      1.0  0.22711  0.90021  0.89057  1.0000
  Fe  Fe60      1.0  0.10981  0.93123  0.85846  1.0000
  S   S116      1.0  0.05253  0.92419  0.87036  1.0000
  S   S117      1.0  0.21021  0.94160  0.85240  1.0000
  S   S118      1.0  0.12938  0.95454  0.83646  1.0000
  Fe  Fe61      1.0  0.28542  0.76764  0.88075  1.0000
  S   S119      1.0  0.30468  0.79304  0.89313  1.0000
  S   S120      1.0  0.26379  0.74660  0.90974  1.0000
  Fe  Fe62      1.0  0.29739  0.77546  0.81651  1.0000
  S   S121      1.0  0.31820  0.80119  0.82510  1.0000
  S   S122      1.0  0.29258  0.76393  0.77252  1.0000
  Fe  Fe63      1.0  0.34931  0.78883  0.86080  1.0000
  S   S123      1.0  0.40625  0.79568  0.87470  1.0000
  Fe  Fe64      1.0  0.27260  0.80325  0.85636  1.0000
  S   S124      1.0  0.22862  0.82353  0.85452  1.0000
  S   S125      1.0  0.33155  0.76285  0.85036  1.0000
  S   S126      1.0  0.25036  0.77802  0.84587  1.0000
  C   C300      1.0  0.25366  0.74246  0.94616  1.0000
  C   C301      1.0  0.07633  0.76595  0.65176  1.0000
  H   H297      1.0  0.45161  0.88031  0.61455  1.0000
  C   C302      1.0  0.23980  0.72676  0.95381  1.0000
  C   C303      1.0  0.35909  0.73928  0.90854  1.0000
  C   C304      1.0  0.25456  0.79594  0.50827  1.0000
  H   H298      1.0  0.23677  0.71732  0.93780  1.0000
  C   C305      1.0  0.45011  0.78994  0.86201  1.0000
  C   C306      1.0  0.45562  0.77948  0.83878  1.0000
  S   S127      1.0  0.17815  0.98070  0.89823  1.0000
  H   H299      1.0  0.43275  0.77514  0.82713  1.0000
  C   C307      1.0  0.25746  0.75444  0.96729  1.0000
  N   N25       1.0  0.25653  0.95792  0.92050  1.0000
  S   S128      1.0  0.27404  0.95565  0.50476  1.0000
  C   C308      1.0  0.48177  0.91389  0.64995  1.0000
  H   H300      1.0  0.48400  0.90597  0.56555  1.0000
  C   C309      1.0  0.45053  0.89189  0.62632  1.0000
  C   C310      1.0  0.39037  0.73630  0.89270  1.0000
  N   N26       1.0  0.19877  0.97183  0.53340  1.0000
  H   H301      1.0  0.18205  0.74138  0.91729  1.0000
  H   H302      1.0  0.22539  0.92095  0.94477  1.0000
  C   C311      1.0  0.22732  0.87886  0.88070  1.0000
  C   C312      1.0  0.25639  0.86829  0.88843  1.0000
  C   C313      1.0  0.25748  0.85129  0.88050  1.0000
  C   C314      1.0  0.22917  0.84472  0.86511  1.0000
  C   C315      1.0  0.20007  0.85529  0.85755  1.0000
  C   C316      1.0  0.19924  0.87229  0.86510  1.0000
  H   H303      1.0  0.27823  0.87327  0.90053  1.0000
  H   H304      1.0  0.28004  0.84329  0.88644  1.0000
  H   H305      1.0  0.17806  0.85032  0.84563  1.0000
  H   H306      1.0  0.17664  0.88025  0.85912  1.0000
  C   C317      1.0  0.24838  0.94128  0.92100  1.0000
  C   C318      1.0  0.45058  0.74374  0.87672  1.0000
  C   C319      1.0  0.16988  0.98668  0.93410  1.0000
  H   H307      1.0  0.43829  0.76955  0.91163  1.0000
  H   H308      1.0  0.27984  0.72721  0.50397  1.0000
  C   C320      1.0  0.23041  0.78292  0.69358  1.0000
  C   C321      1.0  0.22829  0.79186  0.71906  1.0000
  C   C322      1.0  0.24724  0.78634  0.74329  1.0000
  C   C323      1.0  0.26856  0.77170  0.74242  1.0000
  C   C324      1.0  0.27060  0.76273  0.71695  1.0000
  C   C325      1.0  0.25173  0.76829  0.69268  1.0000
  H   H309      1.0  0.21187  0.80318  0.72009  1.0000
  H   H310      1.0  0.24533  0.79338  0.76265  1.0000
  H   H311      1.0  0.28699  0.75140  0.71600  1.0000
  H   H312      1.0  0.25361  0.76120  0.67336  1.0000
  C   C326      1.0  0.02284  0.77757  0.58149  1.0000
  N   N27       1.0  0.28615  0.79595  0.52288  1.0000
  H   H313      1.0  0.47662  0.80367  0.89459  1.0000
  C   C327      1.0  0.48040  0.79553  0.87665  1.0000
  H   H314      1.0  0.03722  0.80270  0.57022  1.0000
  H   H315      1.0  0.19373  0.95349  0.50168  1.0000
  C   C328      1.0  0.22817  0.94932  0.68344  1.0000
  C   C329      1.0  0.20669  0.95941  0.70139  1.0000
  C   C330      1.0  0.19802  0.95414  0.72917  1.0000
  C   C331      1.0  0.21055  0.93861  0.73942  1.0000
  C   C332      1.0  0.23203  0.92852  0.72147  1.0000
  C   C333      1.0  0.24086  0.93382  0.69376  1.0000
  H   H316      1.0  0.13752  0.74896  0.92717  1.0000
  H   H317      1.0  0.18148  0.96208  0.74255  1.0000
  H   H318      1.0  0.24194  0.91648  0.72899  1.0000
  H   H319      1.0  0.25726  0.92586  0.68033  1.0000
  C   C334      1.0  0.26802  0.87165  0.57822  1.0000
  C   C335      1.0  0.26919  0.85495  0.58795  1.0000
  C   C336      1.0  0.24239  0.84362  0.58038  1.0000
  C   C337      1.0  0.21444  0.84879  0.56248  1.0000
  C   C338      1.0  0.21328  0.86548  0.55273  1.0000
  C   C339      1.0  0.23973  0.87690  0.56072  1.0000
  H   H320      1.0  0.29088  0.85076  0.60155  1.0000
  H   H321      1.0  0.24362  0.83084  0.58812  1.0000
  H   H322      1.0  0.19184  0.86961  0.53882  1.0000
  H   H323      1.0  0.23856  0.88967  0.55294  1.0000
  C   C340      1.0  0.45003  0.92645  0.57992  1.0000
  C   C341      1.0  0.44885  0.94197  0.59335  1.0000
  C   C342      1.0  0.01229  0.93005  0.85297  1.0000
  H   H324      1.0  0.42534  0.92071  0.57354  1.0000
  H   H325      1.0  0.44796  0.93435  0.66451  1.0000
  N   N28       1.0  0.17797  0.76730  0.92669  1.0000
  C   C343      1.0  0.17833  0.77365  0.89979  1.0000
  C   C344      1.0  0.18705  0.77713  0.94897  1.0000
  H   H326      1.0  0.21125  0.81100  0.49041  1.0000
  H   H327      1.0  0.24262  0.78424  0.50232  1.0000
  H   H328      1.0  0.48040  0.96134  0.61183  1.0000
  C   C345      1.0  0.22016  0.98080  0.58722  1.0000
  H   H329      1.0  0.44362  0.74499  0.85400  1.0000
  C   C346      1.0  0.44891  0.92215  0.65457  1.0000
  C   C347      1.0  0.19788  0.80026  0.91712  1.0000
  N   N29       1.0  0.12463  0.76865  0.68470  1.0000
  C   C348      1.0  0.19741  0.96734  0.58358  1.0000
  H   H330      1.0  0.05204  0.78904  0.63668  1.0000
  H   H331      1.0  0.14685  0.96347  0.94765  1.0000
  N   N30       1.0  0.24674  0.88530  0.80246  1.0000
  C   C349      1.0  0.22354  0.88418  0.78031  1.0000
  C   C350      1.0  0.26447  0.87131  0.81252  1.0000
  C   C351      1.0  0.21741  0.86871  0.76772  1.0000
  C   C352      1.0  0.25883  0.85563  0.80053  1.0000
  C   C353      1.0  0.23509  0.85435  0.77804  1.0000
  C   C354      1.0  0.25211  0.90165  0.81541  1.0000
  H   H332      1.0  0.20951  0.89530  0.77236  1.0000
  H   H333      1.0  0.28253  0.87211  0.83030  1.0000
  H   H334      1.0  0.19894  0.86790  0.75018  1.0000
  H   H335      1.0  0.27218  0.84448  0.80907  1.0000
  H   H336      1.0  0.23032  0.84221  0.76877  1.0000
  H   H337      1.0  0.26244  0.91068  0.79948  1.0000
  H   H338      1.0  0.22614  0.90665  0.82367  1.0000
  H   H339      1.0  0.27106  0.90090  0.83343  1.0000
  H   H340      1.0  0.14365  0.74960  0.71306  1.0000
  H   H341      1.0  0.39173  0.72553  0.87890  1.0000
  C   C355      1.0  0.18781  0.79026  0.89467  1.0000
  H   H342      1.0  0.38321  0.77572  0.93895  1.0000
  C   C356      1.0  0.23682  0.81101  0.50129  1.0000
  H   H343      1.0  0.20138  0.97402  0.48831  1.0000
  C   C357      1.0  0.23369  0.96093  0.96774  1.0000
  N   N31       1.0  0.41839  0.90006  0.63105  1.0000
  H   H344      1.0  0.29171  0.77507  0.55051  1.0000
  C   C358      1.0  0.01190  0.93606  0.82518  1.0000
  C   C359      1.0  0.48115  0.94934  0.60136  1.0000
  H   H345      1.0  0.15780  0.96924  0.50283  1.0000
  C   C360      1.0  0.23241  0.93410  0.94483  1.0000
  C   C361      1.0  0.15511  0.97576  0.95410  1.0000
  C   C362      1.0  0.35652  0.75346  0.92547  1.0000
  H   H346      1.0  0.19666  0.97141  0.69377  1.0000
  C   C363      1.0  0.15342  0.76078  0.70150  1.0000
  H   H347      1.0  0.36248  0.89496  0.63482  1.0000
  H   H348      1.0  0.28560  0.95598  0.88152  1.0000
  C   C364      1.0  0.41638  0.76081  0.91095  1.0000
  C   C365      1.0  0.28337  0.82603  0.52481  1.0000
  H   H349      1.0  0.17603  0.75697  0.68737  1.0000
  C   C366      1.0  0.16666  0.75002  0.93142  1.0000
  C   C367      1.0  0.12039  0.78572  0.68387  1.0000
  C   C368      1.0  0.09411  0.79332  0.66676  1.0000
  H   H350      1.0  0.30010  0.77048  0.51393  1.0000
  C   C369      1.0  0.48267  0.89864  0.63579  1.0000
  H   H351      1.0  0.32438  0.81073  0.54434  1.0000
  H   H352      1.0  0.23760  0.83789  0.50471  1.0000
  C   C370      1.0  0.23963  0.74625  0.49457  1.0000
  C   C371      1.0  0.01538  0.79440  0.57503  1.0000
  H   H353      1.0  0.37789  0.90001  0.59969  1.0000
  H   H354      1.0  0.20542  0.80135  0.96210  1.0000
  H   H355      1.0  0.33200  0.75614  0.93721  1.0000
  C   C372      1.0  0.18714  0.96697  0.50517  1.0000
  N   N32       1.0  0.41852  0.74699  0.89410  1.0000
  H   H356      1.0  0.18857  0.96013  0.60177  1.0000
  H   H357      1.0  0.45338  0.95205  0.52820  1.0000
  H   H358      1.0  0.09173  0.80686  0.66535  1.0000
  H   H359      1.0  0.20606  0.81306  0.91316  1.0000
  H   H360      1.0  0.18787  0.79531  0.87333  1.0000
  H   H361      1.0  0.17157  0.76581  0.88209  1.0000
  C   C373      1.0  0.25162  0.82613  0.50934  1.0000
  C   C374      1.0  0.28442  0.97335  0.48291  1.0000
  C   C375      1.0  0.18704  0.96296  0.55636  1.0000
  C   C376      1.0  0.38526  0.76434  0.92664  1.0000
  H   H362      1.0  0.25385  0.93345  0.90285  1.0000
  H   H363      1.0  0.17186  0.74571  0.95344  1.0000
  H   H364      1.0  0.03699  0.93800  0.81411  1.0000
  H   H365      1.0  0.26809  0.76657  0.96195  1.0000
  H   H366      1.0  0.33648  0.73096  0.90706  1.0000
  H   H367      1.0  0.39212  0.92193  0.64749  1.0000
  H   H368      1.0  0.10736  0.74531  0.66861  1.0000
  H   H369      1.0  0.16418  0.76954  0.71734  1.0000
  H   H370      1.0  0.13820  0.79360  0.69570  1.0000
  C   C377      1.0  0.10328  0.75879  0.66869  1.0000
  H   H371      1.0  0.38758  0.87975  0.61516  1.0000
  C   C378      1.0  0.30375  0.77999  0.53066  1.0000
  C   C379      1.0  0.30022  0.81071  0.53168  1.0000
  H   H372      1.0  0.17001  0.95224  0.55367  1.0000
  H   H373      1.0  0.33308  0.78136  0.53364  1.0000
  H   H374      1.0  0.05970  0.75813  0.63880  1.0000
  C   C380      1.0  0.38514  0.89336  0.61964  1.0000
  C   C381      1.0  0.07195  0.78334  0.65064  1.0000
  C   C382      1.0  0.48327  0.91815  0.57540  1.0000
  C   C383      1.0  0.24896  0.96778  0.94332  1.0000
  C   C384      1.0  0.49086  0.77453  0.83063  1.0000
  H   H375      1.0  0.23051  0.68064  0.49445  1.0000
  H   H376      1.0  0.18677  0.77211  0.97032  1.0000
  C   C385      1.0  0.27164  0.96548  0.89488  1.0000
  H   H377      1.0  0.99924  0.75398  0.59276  1.0000
  C   C386      1.0  0.26453  0.73339  0.48742  1.0000
  H   H378      1.0  0.29139  0.97518  0.90022  1.0000
  H   H379      1.0  0.29411  0.83774  0.53216  1.0000
  C   C387      1.0  0.22090  0.98514  0.53678  1.0000
  C   C388      1.0  0.19754  0.79368  0.94449  1.0000
  H   H380      1.0  0.25373  0.98113  0.94244  1.0000
  H   H381      1.0  0.47221  0.75279  0.88097  1.0000
  H   H382      1.0  0.22902  0.98405  0.60825  1.0000
  H   H383      1.0  0.19905  0.70822  0.49713  1.0000
  H   H384      1.0  0.00222  0.88859  0.86385  1.0000
  H   H385      1.0  0.46162  0.73095  0.88090  1.0000
  H   H386      1.0  0.24972  0.97150  0.88228  1.0000
  H   H387      1.0  0.48491  0.97683  0.54540  1.0000
  H   H388      1.0  0.48872  0.92758  0.51008  1.0000
  C   C389      1.0  0.22507  0.94401  0.96835  1.0000
  Fe  Fe65      1.0  0.66566  0.01852  0.36452  1.0000
  S   S129      1.0  0.65011  0.04415  0.38005  1.0000
  C   C390      1.0  0.72654  0.24823  0.98851  1.0000
  Fe  Fe66      1.0  0.66287  0.03029  0.30144  1.0000
  S   S130      1.0  0.64588  0.05653  0.31327  1.0000
  S   S131      1.0  0.66704  0.02232  0.25496  1.0000
  Fe  Fe67      1.0  0.68788  0.05421  0.34705  1.0000
  S   S132      1.0  0.73402  0.07203  0.35388  1.0000
  Fe  Fe68      1.0  0.60916  0.04419  0.34494  1.0000
  S   S133      1.0  0.55305  0.05428  0.35560  1.0000
  S   S134      1.0  0.70676  0.02844  0.33370  1.0000
  S   S135      1.0  0.62289  0.01800  0.33095  1.0000
  Fe  Fe69      1.0  0.76502  0.17087  0.36346  1.0000
  S   S136      1.0  0.74130  0.19512  0.34651  1.0000
  S   S137      1.0  0.72199  0.15121  0.36939  1.0000
  Fe  Fe70      1.0  0.84198  0.18489  0.36309  1.0000
  S   S138      1.0  0.82249  0.20963  0.34536  1.0000
  S   S139      1.0  0.89991  0.17860  0.37725  1.0000
  Fe  Fe71      1.0  0.77728  0.20788  0.37767  1.0000
  S   S140      1.0  0.76040  0.23115  0.40395  1.0000
  Fe  Fe72      1.0  0.78780  0.19451  0.31608  1.0000
  S   S141      1.0  0.78699  0.19513  0.26741  1.0000
  S   S142      1.0  0.79806  0.18366  0.39642  1.0000
  S   S143      1.0  0.81031  0.16980  0.33217  1.0000
  Fe  Fe73      1.0  0.76798  0.05125  0.06214  1.0000
  S   S144      1.0  0.74876  0.02711  0.08134  1.0000
  S   S145      1.0  0.72408  0.07009  0.04972  1.0000
  Fe  Fe74      1.0  0.84692  0.04008  0.06660  1.0000
  S   S146      1.0  0.83308  0.01544  0.08670  1.0000
  S   S147      1.0  0.90279  0.04826  0.05337  1.0000
  Fe  Fe75      1.0  0.79018  0.01436  0.05307  1.0000
  C   C391      1.0  0.54502  0.22300  0.04134  1.0000
  Fe  Fe76      1.0  0.79282  0.03046  0.11286  1.0000
  S   S148      1.0  0.78928  0.02987  0.16133  1.0000
  S   S149      1.0  0.80589  0.03831  0.03183  1.0000
  S   S150      1.0  0.81011  0.05523  0.09480  1.0000
  Fe  Fe77      1.0  0.68193  0.20490  0.05798  1.0000
  S   S151      1.0  0.66180  0.18002  0.04360  1.0000
  S   S152      1.0  0.70136  0.22747  0.03121  1.0000
  Fe  Fe78      1.0  0.67114  0.19518  0.12157  1.0000
  S   S153      1.0  0.64960  0.16987  0.11091  1.0000
  S   S154      1.0  0.67276  0.20453  0.16730  1.0000
  Fe  Fe79      1.0  0.69452  0.16851  0.07905  1.0000
  S   S155      1.0  0.73703  0.14754  0.07841  1.0000
  Fe  Fe80      1.0  0.61797  0.18335  0.07675  1.0000
  S   S156      1.0  0.56096  0.17622  0.06359  1.0000
  S   S157      1.0  0.71771  0.19326  0.09149  1.0000
  S   S158      1.0  0.63641  0.20888  0.08926  1.0000
  C   C392      1.0  0.78836  0.99452  0.21196  1.0000
  C   C393      1.0  0.97421  0.17775  0.37823  1.0000
  H   H389      1.0  0.97493  0.05897  0.04460  1.0000
  H   H390      1.0  0.76938  0.04300  0.37951  1.0000
  H   H391      1.0  0.71522  0.01334  0.46062  1.0000
  C   C394      1.0  0.51174  0.19507  0.09583  1.0000
  C   C395      1.0  0.51720  0.18275  0.07532  1.0000
  C   C396      1.0  0.88724  0.23803  0.38130  1.0000
  H   H392      1.0  0.53466  0.20067  0.10570  1.0000
  C   C397      1.0  0.73273  0.04454  0.41486  1.0000
  C   C398      1.0  0.72828  0.09174  0.05654  1.0000
  C   C399      1.0  0.69830  0.10258  0.05314  1.0000
  C   C400      1.0  0.70044  0.11976  0.05948  1.0000
  C   C401      1.0  0.73283  0.12627  0.06885  1.0000
  C   C402      1.0  0.76286  0.11545  0.07187  1.0000
  C   C403      1.0  0.76057  0.09826  0.06598  1.0000
  H   H393      1.0  0.67320  0.09765  0.04582  1.0000
  H   H394      1.0  0.67713  0.12796  0.05707  1.0000
  H   H395      1.0  0.78809  0.12038  0.07893  1.0000
  H   H396      1.0  0.78390  0.09010  0.06855  1.0000
  C   C404      1.0  0.94251  0.04429  0.07292  1.0000
  C   C405      1.0  0.94287  0.03392  0.09686  1.0000
  H   H397      1.0  0.95697  0.01144  0.04763  1.0000
  H   H398      1.0  0.91804  0.02878  0.10466  1.0000
  C   C406      1.0  0.72535  0.25535  0.47556  1.0000
  C   C407      1.0  0.74645  0.23508  0.43974  1.0000
  C   C408      1.0  0.60458  0.23259  0.03055  1.0000
  C   C409      1.0  0.64676  0.00020  0.44481  1.0000
  C   C410      1.0  0.73596  0.25149  0.44755  1.0000
  H   H399      1.0  0.91750  0.20231  0.43161  1.0000
  C   C411      1.0  0.72769  0.02006  0.44328  1.0000
  H   H400      1.0  0.73610  0.26135  0.43175  1.0000
  C   C412      1.0  0.75336  0.19643  0.24063  1.0000
  C   C413      1.0  0.71920  0.20354  0.24540  1.0000
  C   C414      1.0  0.69461  0.20548  0.22290  1.0000
  C   C415      1.0  0.70340  0.20006  0.19545  1.0000
  C   C416      1.0  0.73713  0.19246  0.19089  1.0000
  C   C417      1.0  0.76202  0.19086  0.21323  1.0000
  H   H401      1.0  0.71216  0.20810  0.26617  1.0000
  H   H402      1.0  0.66874  0.21149  0.22672  1.0000
  H   H403      1.0  0.74443  0.18824  0.16996  1.0000
  H   H404      1.0  0.78836  0.18539  0.20921  1.0000
  C   C418      1.0  0.94341  0.18464  0.36497  1.0000
  C   C419      1.0  0.97558  0.02997  0.11044  1.0000
  C   C420      1.0  0.94815  0.19677  0.34383  1.0000
  H   H405      1.0  0.73716  0.00784  0.28424  1.0000
  H   H406      1.0  0.92490  0.20224  0.33337  1.0000
  C   C421      1.0  0.69915  0.02760  0.22844  1.0000
  C   C422      1.0  0.69178  0.02391  0.20005  1.0000
  C   C423      1.0  0.71828  0.02559  0.17881  1.0000
  C   C424      1.0  0.75279  0.03071  0.18583  1.0000
  C   C425      1.0  0.75972  0.03503  0.21401  1.0000
  C   C426      1.0  0.73303  0.03365  0.23514  1.0000
  H   H407      1.0  0.66568  0.01923  0.19460  1.0000
  H   H408      1.0  0.71250  0.02210  0.15734  1.0000
  H   H409      1.0  0.78629  0.03902  0.21971  1.0000
  H   H410      1.0  0.73915  0.03663  0.25678  1.0000
  C   C427      1.0  0.73016  0.09401  0.35849  1.0000
  C   C428      1.0  0.69696  0.10205  0.36310  1.0000
  C   C429      1.0  0.69513  0.11954  0.36691  1.0000
  C   C430      1.0  0.72631  0.12918  0.36579  1.0000
  C   C431      1.0  0.75950  0.12114  0.36107  1.0000
  C   C432      1.0  0.76139  0.10362  0.35764  1.0000
  H   H411      1.0  0.67273  0.09481  0.36390  1.0000
  H   H412      1.0  0.66934  0.12565  0.37061  1.0000
  H   H413      1.0  0.78368  0.12842  0.36017  1.0000
  H   H414      1.0  0.78722  0.09750  0.35420  1.0000
  C   C433      1.0  0.51218  0.03170  0.32597  1.0000
  C   C434      1.0  0.51265  0.04632  0.34202  1.0000
  C   C435      1.0  0.75816  0.03647  0.39760  1.0000
  H   H415      1.0  0.53720  0.02540  0.32041  1.0000
  H   H416      1.0  0.62587  0.24154  0.03311  1.0000
  C   C436      1.0  0.78991  0.22140  0.11743  1.0000
  H   H417      1.0  0.69434  0.00714  0.02201  1.0000
  H   H418      1.0  0.72450  0.05733  0.40974  1.0000
  N   N33       1.0  0.71124  0.00814  0.97897  1.0000
  H   H419      1.0  0.98621  0.21170  0.32054  1.0000
  H   H420      1.0  0.51966  0.22430  0.05261  1.0000
  C   C437      1.0  0.93398  0.21965  0.39950  1.0000
  N   N34       1.0  0.87404  0.21828  0.41829  1.0000
  C   C438      1.0  0.90900  0.21266  0.41808  1.0000
  C   C439      1.0  0.58999  0.19217  0.99305  1.0000
  H   H421      1.0  0.97569  0.02183  0.12880  1.0000
  H   H422      1.0  0.78692  0.01329  0.38962  1.0000
  H   H423      1.0  0.85289  0.21614  0.45976  1.0000
  H   H424      1.0  0.79391  0.21621  0.16226  1.0000
  C   C440      1.0  0.70462  0.01486  0.00498  1.0000
  C   C441      1.0  0.86314  0.23101  0.40059  1.0000
  N   N35       1.0  0.58385  0.20699  0.01062  1.0000
  H   H425      1.0  0.85212  0.19710  0.43911  1.0000
  C   C442      1.0  0.75293  0.01159  0.42640  1.0000
  S   S159      1.0  0.68162  0.99597  0.39269  1.0000
  C   C443      1.0  0.72607  0.04159  0.98874  1.0000
  H   H426      1.0  0.56756  0.24531  0.05864  1.0000
  C   C444      1.0  0.98526  0.01130  0.04192  1.0000
  H   H427      1.0  0.73449  0.22931  0.17321  1.0000
  C   C445      1.0  0.72334  0.23575  0.12988  1.0000
  H   H428      1.0  0.61881  0.19044  0.98730  1.0000
  N   N36       1.0  0.73495  0.10246  0.13898  1.0000
  C   C446      1.0  0.70761  0.09492  0.12506  1.0000
  C   C447      1.0  0.76181  0.09298  0.15117  1.0000
  C   C448      1.0  0.70684  0.07747  0.12294  1.0000
  C   C449      1.0  0.76159  0.07548  0.14979  1.0000
  C   C450      1.0  0.73393  0.06771  0.13552  1.0000
  C   C451      1.0  0.73578  0.12077  0.14105  1.0000
  H   H429      1.0  0.68668  0.10239  0.11485  1.0000
  H   H430      1.0  0.78372  0.09895  0.16189  1.0000
  H   H431      1.0  0.68588  0.07157  0.11097  1.0000
  H   H432      1.0  0.78300  0.06792  0.15929  1.0000
  H   H433      1.0  0.73387  0.05417  0.13386  1.0000
  H   H434      1.0  0.71316  0.12701  0.12951  1.0000
  H   H435      1.0  0.73413  0.12466  0.16344  1.0000
  H   H436      1.0  0.76095  0.12552  0.13143  1.0000
  H   H437      1.0  0.69667  0.24078  0.13449  1.0000
  H   H438      1.0  0.70620  0.03703  0.03074  1.0000
  C   C452      1.0  0.77788  0.22182  0.14546  1.0000
  H   H439      1.0  0.77156  0.23814  0.05419  1.0000
  H   H440      1.0  0.63508  0.01162  0.43610  1.0000
  H   H441      1.0  0.75382  0.20983  0.45519  1.0000
  C   C453      1.0  0.57191  0.23471  0.04478  1.0000
  C   C454      1.0  0.74610  0.22254  0.46062  1.0000
  H   H442      1.0  0.97105  0.16836  0.39460  1.0000
  H   H443      1.0  0.71949  0.24022  0.08528  1.0000
  N   N37       1.0  0.74356  0.99234  0.24844  1.0000
  H   H444      1.0  0.53053  0.20004  0.02156  1.0000
  H   H445      1.0  0.70403  0.99218  0.28162  1.0000
  C   C455      1.0  0.76808  0.01985  0.40333  1.0000
  H   H446      1.0  0.79667  0.00084  0.25532  1.0000
  H   H447      1.0  0.73217  0.05460  0.99281  1.0000
  C   C456      1.0  0.76380  0.98900  0.19217  1.0000
  H   H448      1.0  0.77132  0.98845  0.17002  1.0000
  H   H449      1.0  0.63581  0.21692  0.00286  1.0000
  N   N38       1.0  0.76945  0.22835  0.09627  1.0000
  H   H450      1.0  0.82032  0.21371  0.43225  1.0000
  S   S160      1.0  0.77757  0.99022  0.02894  1.0000
  C   C457      1.0  0.74449  0.22916  0.15165  1.0000
  C   C458      1.0  0.71201  0.23247  0.99503  1.0000
  C   C459      1.0  0.73633  0.23528  0.10214  1.0000
  H   H451      1.0  0.83550  0.23558  0.40086  1.0000
  H   H452      1.0  0.87813  0.24770  0.36665  1.0000
  N   N39       1.0  0.72193  0.15125  0.29217  1.0000
  C   C460      1.0  0.75665  0.14960  0.28282  1.0000
  C   C461      1.0  0.70261  0.13740  0.29895  1.0000
  C   C462      1.0  0.77331  0.13377  0.28106  1.0000
  C   C463      1.0  0.71817  0.12135  0.29684  1.0000
  C   C464      1.0  0.75389  0.11957  0.28822  1.0000
  C   C465      1.0  0.70479  0.16787  0.29448  1.0000
  H   H453      1.0  0.77192  0.16056  0.27716  1.0000
  H   H454      1.0  0.67534  0.13874  0.30690  1.0000
  H   H455      1.0  0.80122  0.13260  0.27459  1.0000
  H   H456      1.0  0.70306  0.11041  0.30298  1.0000
  H   H457      1.0  0.76661  0.10722  0.28765  1.0000
  H   H458      1.0  0.68455  0.16974  0.27757  1.0000
  H   H459      1.0  0.69169  0.16925  0.31552  1.0000
  H   H460      1.0  0.72466  0.17800  0.29251  1.0000
  H   H461      1.0  0.75942  0.99849  0.43051  1.0000
  H   H462      1.0  0.81176  0.22744  0.06554  1.0000
  H   H463      1.0  0.77223  0.21566  0.05721  1.0000
  C   C466      1.0  0.61013  0.21857  0.01346  1.0000
  H   H464      1.0  0.94174  0.23723  0.36548  1.0000
  C   C467      1.0  0.55134  0.20926  0.02376  1.0000
  H   H465      1.0  0.73150  0.25691  0.00536  1.0000
  C   C468      1.0  0.97500  0.05090  0.06305  1.0000
  C   C469      1.0  0.66934  0.99017  0.42796  1.0000
  C   C470      1.0  0.71164  0.03169  0.01016  1.0000
  H   H466      1.0  0.50372  0.02025  0.38536  1.0000
  C   C471      1.0  0.78198  0.22734  0.06694  1.0000
  H   H467      1.0  0.81553  0.21533  0.11270  1.0000
  H   H468      1.0  0.58203  0.18069  0.00482  1.0000
  C   C472      1.0  0.84864  0.21097  0.43840  1.0000
  H   H469      1.0  0.96143  0.21477  0.39877  1.0000
  C   C473      1.0  0.73302  0.99463  0.27804  1.0000
  N   N40       1.0  0.71791  0.03632  0.43740  1.0000
  C   C474      1.0  0.98303  0.20216  0.33664  1.0000
  H   H470      1.0  0.66287  0.04142  0.44539  1.0000
  H   H471      1.0  0.81491  0.99828  0.20516  1.0000
  C   C475      1.0  0.77776  0.99607  0.24021  1.0000
  H   H472      1.0  0.58784  0.27183  0.47002  1.0000
  C   C476      1.0  0.68953  0.04454  0.45413  1.0000
  C   C477      1.0  0.63944  0.99549  0.47309  1.0000
  H   H473      1.0  0.97751  0.02735  0.00568  1.0000
  H   H474      1.0  0.80268  0.00835  0.97832  1.0000
  H   H475      1.0  0.69222  0.05839  0.45380  1.0000
  C   C478      1.0  0.92286  0.23223  0.38074  1.0000
  H   H476      1.0  0.69065  0.04034  0.47654  1.0000
  Fe  Fe81      1.0  0.66678  0.27429  0.62318  1.0000
  S   S161      1.0  0.64011  0.29894  0.61210  1.0000
  S   S162      1.0  0.66326  0.26897  0.67081  1.0000
  Fe  Fe82      1.0  0.68733  0.26788  0.56038  1.0000
  S   S163      1.0  0.66317  0.29278  0.54640  1.0000
  S   S164      1.0  0.71203  0.24681  0.53241  1.0000
  Fe  Fe83      1.0  0.68895  0.30352  0.58537  1.0000
  C   C479      1.0  0.97223  0.27692  0.87555  1.0000
  Fe  Fe84      1.0  0.61617  0.28622  0.57485  1.0000
  S   S165      1.0  0.55890  0.29200  0.55861  1.0000
  S   S166      1.0  0.71637  0.27908  0.59755  1.0000
  S   S167      1.0  0.63919  0.26100  0.58743  1.0000
  Fe  Fe85      1.0  0.77084  0.30271  0.84640  1.0000
  S   S168      1.0  0.73800  0.28004  0.83677  1.0000
  N   N41       1.0  0.75405  0.22766  0.80645  1.0000
  Fe  Fe86      1.0  0.83977  0.28133  0.85740  1.0000
  S   S169      1.0  0.81082  0.25765  0.84729  1.0000
  S   S170      1.0  0.89807  0.27817  0.87302  1.0000
  Fe  Fe87      1.0  0.78555  0.27186  0.81087  1.0000
  S   S171      1.0  0.78495  0.26235  0.76537  1.0000
  Fe  Fe88      1.0  0.76539  0.26766  0.87456  1.0000
  S   S172      1.0  0.73594  0.24766  0.90155  1.0000
  S   S173      1.0  0.81786  0.29468  0.81911  1.0000
  S   S174      1.0  0.79508  0.29110  0.88609  1.0000
  C   C480      1.0  0.94210  0.28272  0.86010  1.0000
  C   C481      1.0  0.73286  0.03463  0.96229  1.0000
  C   C482      1.0  0.94798  0.29205  0.83543  1.0000
  C   C483      1.0  0.73469  0.25299  0.96033  1.0000
  H   H477      1.0  0.92524  0.29666  0.82332  1.0000
  C   C484      1.0  0.69805  0.26802  0.69645  1.0000
  C   C485      1.0  0.73330  0.26311  0.68961  1.0000
  C   C486      1.0  0.75946  0.26144  0.71097  1.0000
  C   C487      1.0  0.75107  0.26513  0.73926  1.0000
  C   C488      1.0  0.71609  0.27052  0.74599  1.0000
  C   C489      1.0  0.68964  0.27167  0.72477  1.0000
  H   H478      1.0  0.74013  0.26009  0.66800  1.0000
  H   H479      1.0  0.78639  0.25723  0.70549  1.0000
  H   H480      1.0  0.70922  0.27348  0.76761  1.0000
  H   H481      1.0  0.66245  0.27545  0.73032  1.0000
  C   C490      1.0  0.73507  0.22995  0.78203  1.0000
  C   C491      1.0  0.51594  0.28419  0.56837  1.0000
  H   H482      1.0  0.73022  0.01248  0.93703  1.0000
  H   H483      1.0  0.67787  0.30606  0.67425  1.0000
  H   H484      1.0  0.53432  0.26866  0.60291  1.0000
  C   C492      1.0  0.71338  0.22639  0.94450  1.0000
  C   C493      1.0  0.72797  0.24214  0.93796  1.0000
  C   C494      1.0  0.70262  0.31585  0.72358  1.0000
  H   H485      1.0  0.70809  0.21780  0.92757  1.0000
  H   H486      1.0  0.74573  0.26516  0.95589  1.0000
  H   H487      1.0  0.64897  0.22429  0.52485  1.0000
  C   C495      1.0  0.72534  0.24284  0.49648  1.0000
  H   H488      1.0  0.98740  0.30315  0.80779  1.0000
  C   C496      1.0  0.70280  0.23704  0.83349  1.0000
  H   H489      1.0  0.68476  0.23791  0.76326  1.0000
  H   H490      1.0  0.54308  0.23891  0.55367  1.0000
  H   H491      1.0  0.71977  0.29902  0.66018  1.0000
  H   H492      1.0  0.75345  0.22954  0.85140  1.0000
  C   C497      1.0  0.59580  0.22980  0.54126  1.0000
  C   C498      1.0  0.70576  0.22152  0.97272  1.0000
  C   C499      1.0  0.79180  0.22211  0.80488  1.0000
  C   C500      1.0  0.69939  0.23579  0.78277  1.0000
  H   H493      1.0  0.76332  0.31073  0.77650  1.0000
  H   H494      1.0  0.80724  0.99979  0.92804  1.0000
  C   C501      1.0  0.77228  0.30425  0.73291  1.0000
  C   C502      1.0  0.73576  0.22642  0.48868  1.0000
  C   C503      1.0  0.68326  0.23942  0.80870  1.0000
  H   H495      1.0  0.54563  0.26412  0.52323  1.0000
  H   H496      1.0  0.62217  0.00344  0.48589  1.0000
  H   H497      1.0  0.59517  0.21875  0.55472  1.0000
  H   H498      1.0  0.57394  0.19329  0.97344  1.0000
  N   N42       1.0  0.59860  0.25865  0.50815  1.0000
  H   H499      1.0  0.65586  0.24428  0.80957  1.0000
  C   C504      1.0  0.62591  0.23286  0.52451  1.0000
  C   C505      1.0  0.75703  0.30382  0.70598  1.0000
  C   C506      1.0  0.71709  0.31651  0.75078  1.0000
  H   H500      1.0  0.79478  0.21098  0.79113  1.0000
  H   H501      1.0  0.80274  0.21872  0.82600  1.0000
  H   H502      1.0  0.69502  0.20929  0.97710  1.0000
  N   N43       1.0  0.72244  0.30937  0.70169  1.0000
  C   C507      1.0  0.62673  0.24738  0.50783  1.0000
  C   C508      1.0  0.56838  0.25543  0.52363  1.0000
  C   C509      1.0  0.73837  0.23111  0.83198  1.0000
  H   H503      1.0  0.74793  0.22783  0.76173  1.0000
  C   C510      1.0  0.51122  0.27309  0.59102  1.0000
  H   H504      1.0  0.80828  0.23237  0.79600  1.0000
  C   C511      1.0  0.70693  0.30898  0.67331  1.0000
  H   H505      1.0  0.69080  0.24004  0.85382  1.0000
  H   H506      1.0  0.73580  0.21657  0.50449  1.0000
  H   H507      1.0  0.56686  0.98853  0.52816  1.0000
  H   H508      1.0  0.74436  0.04220  0.94557  1.0000
  H   H509      1.0  0.96812  0.26972  0.89468  1.0000
  H   H510      1.0  0.79916  0.29918  0.73654  1.0000
  C   C512      1.0  0.79991  0.99066  0.94393  1.0000
  C   C513      1.0  0.98337  0.29571  0.82667  1.0000
  H   H511      1.0  0.71757  0.26805  0.48099  1.0000
  H   H512      1.0  0.77267  0.29856  0.68871  1.0000
  H   H513      1.0  0.62848  0.27787  0.48775  1.0000
  C   C514      1.0  0.56667  0.24109  0.54071  1.0000
  C   C515      1.0  0.72484  0.01783  0.95764  1.0000
  H   H514      1.0  0.53838  0.98984  0.55925  1.0000
  H   H515      1.0  0.65035  0.24970  0.49503  1.0000
  H   H516      1.0  0.51555  0.30807  0.62812  1.0000
  H   H517      1.0  0.58594  0.28454  0.50154  1.0000
  C   C516      1.0  0.75206  0.31058  0.75541  1.0000
  H   H518      1.0  0.89653  0.99501  0.81978  1.0000
  C   C517      1.0  0.60023  0.27395  0.49090  1.0000
  C   C518      1.0  0.79741  0.99557  0.97250  1.0000
  H   H519      1.0  0.67286  0.98997  0.96864  1.0000
  C   C519      1.0  0.70185  0.99072  0.97362  1.0000
  Fe  Fe89      1.0  0.80277  0.52580  0.38287  1.0000
  S   S175      1.0  0.85104  0.54132  0.39156  1.0000
  S   S176      1.0  0.77630  0.50571  0.41044  1.0000
  Fe  Fe90      1.0  0.79458  0.54017  0.32138  1.0000
  S   S177      1.0  0.84352  0.55609  0.32577  1.0000
  S   S178      1.0  0.75031  0.54358  0.28803  1.0000
  Fe  Fe91      1.0  0.86931  0.53384  0.34810  1.0000
  S   S179      1.0  0.92496  0.52166  0.34396  1.0000
  Fe  Fe92      1.0  0.82139  0.56236  0.36872  1.0000
  S   S180      1.0  0.82033  0.58960  0.38195  1.0000
  S   S181      1.0  0.82194  0.51725  0.34015  1.0000
  S   S182      1.0  0.77181  0.54754  0.36373  1.0000
  Fe  Fe93      1.0  0.69724  0.53561  0.12218  1.0000
  S   S183      1.0  0.65659  0.55668  0.12359  1.0000
  S   S184      1.0  0.74007  0.52872  0.15529  1.0000
  Fe  Fe94      1.0  0.67259  0.52439  0.06245  1.0000
  S   S185      1.0  0.63044  0.54507  0.05985  1.0000
  S   S186      1.0  0.67925  0.50096  0.03448  1.0000
  Fe  Fe95      1.0  0.67257  0.56176  0.07850  1.0000
  S   S187      1.0  0.67309  0.58922  0.06463  1.0000
  Fe  Fe96      1.0  0.61753  0.53873  0.10490  1.0000
  S   S188      1.0  0.56139  0.53643  0.12370  1.0000
  S   S189      1.0  0.71589  0.54160  0.07771  1.0000
  S   S190      1.0  0.65710  0.51711  0.10697  1.0000
  C   C520      1.0  0.52127  0.53895  0.10410  1.0000
  H   H520      1.0  0.73855  0.49758  0.12091  1.0000
  C   C521      1.0  0.52153  0.54439  0.07598  1.0000
  C   C522      1.0  0.69633  0.52944  0.38810  1.0000
  H   H521      1.0  0.54683  0.54646  0.06535  1.0000
  C   C523      1.0  0.70995  0.60296  0.06690  1.0000
  C   C524      1.0  0.74551  0.59701  0.06842  1.0000
  C   C525      1.0  0.77408  0.60836  0.06791  1.0000
  C   C526      1.0  0.76745  0.62577  0.06659  1.0000
  C   C527      1.0  0.73186  0.63172  0.06588  1.0000
  C   C528      1.0  0.70333  0.62037  0.06569  1.0000
  H   H522      1.0  0.75103  0.58366  0.06922  1.0000
  H   H523      1.0  0.80148  0.60361  0.06839  1.0000
  H   H524      1.0  0.91755  0.49573  0.46477  1.0000
  H   H525      1.0  0.67597  0.62511  0.06441  1.0000
  C   C529      1.0  0.74861  0.53964  0.25098  1.0000
  C   C530      1.0  0.77685  0.53174  0.23632  1.0000
  C   C531      1.0  0.77374  0.52858  0.20712  1.0000
  C   C532      1.0  0.74256  0.53336  0.19207  1.0000
  C   C533      1.0  0.71444  0.54138  0.20671  1.0000
  C   C534      1.0  0.71744  0.54444  0.23594  1.0000
  H   H526      1.0  0.80098  0.52793  0.24747  1.0000
  H   H527      1.0  0.79570  0.52236  0.19613  1.0000
  H   H528      1.0  0.69026  0.54512  0.19555  1.0000
  H   H529      1.0  0.69535  0.55053  0.24694  1.0000
  C   C535      1.0  0.78054  0.60210  0.37993  1.0000
  C   C536      1.0  0.78237  0.61945  0.38424  1.0000
  C   C537      1.0  0.75143  0.62983  0.38192  1.0000
  C   C538      1.0  0.71827  0.62285  0.37577  1.0000
  C   C539      1.0  0.71639  0.60549  0.37165  1.0000
  C   C540      1.0  0.74741  0.59517  0.37346  1.0000
  H   H530      1.0  0.80787  0.62490  0.38933  1.0000
  H   H531      1.0  0.75311  0.64316  0.38542  1.0000
  H   H532      1.0  0.69081  0.60004  0.36690  1.0000
  H   H533      1.0  0.74564  0.58189  0.37002  1.0000
  H   H534      1.0  0.91301  0.51101  0.41893  1.0000
  C   C541      1.0  0.96537  0.53291  0.34085  1.0000
  C   C542      1.0  0.96605  0.55032  0.34384  1.0000
  S   S191      1.0  0.67844  0.63521  0.37326  1.0000
  H   H535      1.0  0.94119  0.55735  0.34690  1.0000
  C   C543      1.0  0.57730  0.59481  0.08080  1.0000
  H   H536      1.0  0.72798  0.50606  0.35797  1.0000
  H   H537      1.0  0.72633  0.64506  0.06473  1.0000
  H   H538      1.0  0.68856  0.54513  0.42460  1.0000
  C   C544      1.0  0.89764  0.49981  0.42274  1.0000
  C   C545      1.0  0.68064  0.49556  0.99795  1.0000
  C   C546      1.0  0.78799  0.49825  0.44491  1.0000
  C   C547      1.0  0.77293  0.48331  0.45509  1.0000
  C   C548      1.0  0.89829  0.64865  0.08653  1.0000
  H   H539      1.0  0.75437  0.47667  0.44198  1.0000
  H   H540      1.0  0.68401  0.50507  0.34189  1.0000
  H   H541      1.0  0.72140  0.48998  0.08848  1.0000
  C   C549      1.0  0.90894  0.64391  0.05948  1.0000
  H   H542      1.0  0.82245  0.53774  0.04321  1.0000
  C   C550      1.0  0.67620  0.55743  0.35642  1.0000
  C   C551      1.0  0.77144  0.59092  0.30088  1.0000
  C   C552      1.0  0.78701  0.51682  0.04022  1.0000
  H   H543      1.0  0.66883  0.56834  0.34377  1.0000
  H   H544      1.0  0.68512  0.54157  0.32057  1.0000
  H   H545      1.0  0.76213  0.48062  0.10307  1.0000
  H   H546      1.0  0.78517  0.51738  0.01738  1.0000
  H   H547      1.0  0.82598  0.53603  0.09566  1.0000
  H   H548      1.0  0.70460  0.51861  0.40068  1.0000
  H   H549      1.0  0.67109  0.57033  0.39608  1.0000
  H   H550      1.0  0.82358  0.59723  0.31666  1.0000
  H   H551      1.0  0.52873  0.59923  0.05745  1.0000
  H   H552      1.0  0.82355  0.51821  0.45485  1.0000
  C   C553      1.0  0.80793  0.52820  0.05469  1.0000
  H   H553      1.0  0.88877  0.64046  0.04421  1.0000
  H   H554      1.0  0.71705  0.58847  0.28665  1.0000
  H   H555      1.0  0.58208  0.57374  0.14327  1.0000
  C   C554      1.0  0.79700  0.60190  0.31087  1.0000
  N   N44       1.0  0.76850  0.50458  0.08431  1.0000
  C   C555      1.0  0.76772  0.50490  0.05545  1.0000
  C   C556      1.0  0.79029  0.51515  0.09858  1.0000
  C   C557      1.0  0.81185  0.50668  0.46222  1.0000
  C   C558      1.0  0.74437  0.64245  0.31161  1.0000
  H   H556      1.0  0.77823  0.57772  0.29828  1.0000
  C   C559      1.0  0.73699  0.59696  0.29448  1.0000
  S   S192      1.0  0.80437  0.63951  0.06411  1.0000
  H   H557      1.0  0.59024  0.45717  0.98209  1.0000
  C   C560      1.0  0.67742  0.55853  0.38578  1.0000
  C   C561      1.0  0.68723  0.54441  0.40177  1.0000
  H   H558      1.0  0.80759  0.62721  0.32254  1.0000
  C   C562      1.0  0.94551  0.64374  0.05239  1.0000
  H   H559      1.0  0.72045  0.51580  0.32445  1.0000
  C   C563      1.0  0.85465  0.47983  0.40691  1.0000
  C   C564      1.0  0.80992  0.52726  0.08407  1.0000
  N   N45       1.0  0.69629  0.52865  0.35925  1.0000
  H   H560      1.0  0.75159  0.49608  0.04406  1.0000
  H   H561      1.0  0.87003  0.64882  0.09222  1.0000
  H   H562      1.0  0.79201  0.51450  0.12140  1.0000
  C   C565      1.0  0.70756  0.51310  0.34521  1.0000
  C   C566      1.0  0.54026  0.59375  0.07644  1.0000
  C   C567      1.0  0.68546  0.54225  0.34343  1.0000
  H   H563      1.0  0.68127  0.46904  0.00703  1.0000
  H   H564      1.0  0.84137  0.46057  0.43682  1.0000
  C   C568      1.0  0.59230  0.58789  0.10524  1.0000
  N   N46       1.0  0.75369  0.62463  0.30835  1.0000
  C   C569      1.0  0.72851  0.61397  0.29838  1.0000
  C   C570      1.0  0.78770  0.61884  0.31430  1.0000
  H   H565      1.0  0.87278  0.50070  0.38181  1.0000
  C   C571      1.0  0.74673  0.49252  0.09995  1.0000
  C   C572      1.0  0.68126  0.47849  0.99054  1.0000
  C   C573      1.0  0.57044  0.57972  0.12470  1.0000
  H   H566      1.0  0.70158  0.61860  0.29365  1.0000
  C   C574      1.0  0.53355  0.57890  0.11971  1.0000
  H   H567      1.0  0.59865  0.48608  0.99976  1.0000
  N   N47       1.0  0.88006  0.47718  0.45331  1.0000
  N   N48       1.0  0.51890  0.58589  0.09583  1.0000
  H   H568      1.0  0.62095  0.58874  0.10890  1.0000
  C   C575      1.0  0.87491  0.49405  0.40183  1.0000
  C   C576      1.0  0.85770  0.47145  0.43288  1.0000
  H   H569      1.0  0.83600  0.47562  0.39109  1.0000
  H   H570      1.0  0.59451  0.60085  0.06536  1.0000
  C   C577      1.0  0.90000  0.49114  0.44851  1.0000
  H   H571      1.0  0.97700  0.54498  0.40704  1.0000
  H   H572      1.0  0.95364  0.64008  0.03128  1.0000
  H   H573      1.0  0.71670  0.64404  0.32021  1.0000
  H   H574      1.0  0.76244  0.64865  0.32670  1.0000
  N   N49       1.0  0.97068  0.64817  0.07175  1.0000
  H   H575      1.0  0.68066  0.52075  0.98153  1.0000
  H   H576      1.0  0.74598  0.64908  0.29093  1.0000
  H   H577      1.0  0.51694  0.57228  0.13481  1.0000
  C   C578      1.0  0.96038  0.65288  0.09834  1.0000
  C   C579      1.0  0.92405  0.65328  0.10606  1.0000
  Fe  Fe97      1.0  0.85355  0.42896  0.59552  1.0000
  S   S193      1.0  0.82681  0.45384  0.60516  1.0000
  S   S194      1.0  0.90793  0.41839  0.60934  1.0000
  Fe  Fe98      1.0  0.78835  0.41626  0.56442  1.0000
  S   S195      1.0  0.75700  0.44043  0.57057  1.0000
  S   S196      1.0  0.77014  0.39370  0.53953  1.0000
  Fe  Fe99      1.0  0.80837  0.45356  0.55955  1.0000
  S   S197      1.0  0.81859  0.47754  0.53346  1.0000
  Fe  Fe100     1.0  0.77752  0.43892  0.61549  1.0000
  S   S198      1.0  0.73552  0.44384  0.65029  1.0000
  S   S199      1.0  0.83819  0.42947  0.54986  1.0000
  S   S200      1.0  0.80574  0.41406  0.60944  1.0000
  Fe  Fe101     1.0  0.69371  0.44001  0.81934  1.0000
  S   S201      1.0  0.65203  0.42009  0.82400  1.0000
  S   S202      1.0  0.73783  0.44011  0.78516  1.0000
  Fe  Fe102     1.0  0.67398  0.45587  0.87824  1.0000
  S   S203      1.0  0.63217  0.43654  0.88667  1.0000
  S   S204      1.0  0.68006  0.48010  0.90382  1.0000
  Fe  Fe103     1.0  0.67216  0.41769  0.86859  1.0000
  S   S205      1.0  0.68637  0.39324  0.89144  1.0000
  Fe  Fe104     1.0  0.61559  0.44059  0.84157  1.0000
  S   S206      1.0  0.55868  0.44916  0.82988  1.0000
  S   S207      1.0  0.71538  0.43678  0.86357  1.0000
  S   S208      1.0  0.65606  0.46070  0.83343  1.0000
  C   C580      1.0  0.68133  0.48551  0.94033  1.0000
  C   C581      1.0  0.85641  0.37640  0.59753  1.0000
  C   C582      1.0  0.82269  0.35113  0.60371  1.0000
  H   H578      1.0  0.68169  0.51201  0.93124  1.0000
  H   H579      1.0  0.73547  0.40557  0.82303  1.0000
  C   C583      1.0  0.69967  0.37441  0.87432  1.0000
  C   C584      1.0  0.70047  0.37324  0.84492  1.0000
  C   C585      1.0  0.71435  0.35866  0.83198  1.0000
  C   C586      1.0  0.72749  0.34506  0.84824  1.0000
  C   C587      1.0  0.72558  0.34597  0.87766  1.0000
  C   C588      1.0  0.71168  0.36060  0.89062  1.0000
  H   H580      1.0  0.69071  0.38363  0.83213  1.0000
  H   H581      1.0  0.71548  0.35803  0.80921  1.0000
  H   H582      1.0  0.73551  0.33559  0.89043  1.0000
  H   H583      1.0  0.71095  0.36135  0.91340  1.0000
  C   C589      1.0  0.58526  0.46516  0.93856  1.0000
  C   C590      1.0  0.59469  0.49733  0.95837  1.0000
  H   H584      1.0  0.81533  0.35219  0.83689  1.0000
  H   H585      1.0  0.56426  0.48546  0.87977  1.0000
  H   H586      1.0  0.54242  0.41635  0.85424  1.0000
  C   C591      1.0  0.98251  0.45023  0.57756  1.0000
  H   H587      1.0  0.88221  0.39782  0.56214  1.0000
  C   C592      1.0  0.51771  0.42365  0.85254  1.0000
  H   H588      1.0  0.83319  0.36111  0.53455  1.0000
  C   C593      1.0  0.59069  0.49429  0.92953  1.0000
  C   C594      1.0  0.73631  0.44087  0.68761  1.0000
  C   C595      1.0  0.76810  0.43742  0.70238  1.0000
  C   C596      1.0  0.76781  0.43676  0.73218  1.0000
  C   C597      1.0  0.73573  0.43927  0.74762  1.0000
  C   C598      1.0  0.70381  0.44233  0.73284  1.0000
  C   C599      1.0  0.70420  0.44321  0.70306  1.0000
  H   H589      1.0  0.79302  0.43564  0.69085  1.0000
  H   H590      1.0  0.79271  0.43445  0.74334  1.0000
  H   H591      1.0  0.67894  0.44435  0.74433  1.0000
  H   H592      1.0  0.67943  0.44587  0.69188  1.0000
  C   C600      1.0  0.75119  0.37597  0.55627  1.0000
  C   C601      1.0  0.74796  0.37489  0.58563  1.0000
  C   C602      1.0  0.73605  0.36002  0.59847  1.0000
  C   C603      1.0  0.72695  0.34612  0.58218  1.0000
  C   C604      1.0  0.72903  0.34736  0.55276  1.0000
  C   C605      1.0  0.74125  0.36221  0.53989  1.0000
  H   H593      1.0  0.75527  0.38538  0.59849  1.0000
  H   H594      1.0  0.73444  0.35922  0.62123  1.0000
  H   H595      1.0  0.72225  0.33673  0.53997  1.0000
  H   H596      1.0  0.74357  0.36295  0.51716  1.0000
  C   C606      1.0  0.94889  0.42765  0.59910  1.0000
  C   C607      1.0  0.94947  0.44304  0.58483  1.0000
  H   H597      1.0  0.68142  0.46032  0.95675  1.0000
  H   H598      1.0  0.92449  0.44948  0.57967  1.0000
  H   H599      1.0  0.56883  0.46338  0.88537  1.0000
  N   N50       1.0  0.75706  0.48028  0.71977  1.0000
  C   C608      1.0  0.79104  0.47746  0.70945  1.0000
  C   C609      1.0  0.72918  0.48365  0.70176  1.0000
  C   C610      1.0  0.79761  0.47758  0.68034  1.0000
  C   C611      1.0  0.73484  0.48396  0.67256  1.0000
  C   C612      1.0  0.76928  0.48088  0.66184  1.0000
  C   C613      1.0  0.75075  0.48042  0.75034  1.0000
  H   H600      1.0  0.81308  0.47464  0.72369  1.0000
  H   H601      1.0  0.70216  0.48562  0.70987  1.0000
  H   H602      1.0  0.82425  0.47471  0.67208  1.0000
  H   H603      1.0  0.71246  0.48579  0.65822  1.0000
  H   H604      1.0  0.77365  0.48035  0.63918  1.0000
  H   H605      1.0  0.75347  0.49329  0.75859  1.0000
  H   H606      1.0  0.72351  0.47582  0.75565  1.0000
  H   H607      1.0  0.76997  0.47184  0.76152  1.0000
  C   C614      1.0  0.68135  0.47348  0.96198  1.0000
  C   C615      1.0  0.68089  0.50759  0.97631  1.0000
  H   H608      1.0  0.60833  0.47562  0.87938  1.0000
  H   H609      1.0  0.77007  0.46524  0.48946  1.0000
  C   C616      1.0  0.88400  0.46797  0.48008  1.0000
  H   H610      1.0  0.84179  0.36602  0.63809  1.0000
  H   H611      1.0  0.51364  0.32705  0.58648  1.0000
  S   S209      1.0  0.74854  0.32798  0.83053  1.0000
  C   C617      1.0  0.58150  0.47558  0.88971  1.0000
  H   H612      1.0  0.98142  0.40755  0.61677  1.0000
  H   H613      1.0  0.59274  0.50464  0.91469  1.0000
  N   N51       1.0  0.85394  0.37497  0.56885  1.0000
  H   H614      1.0  0.81207  0.35545  0.88884  1.0000
  H   H615      1.0  0.76473  0.40447  0.87730  1.0000
  H   H616      1.0  0.77235  0.40293  0.79878  1.0000
  C   C618      1.0  0.83627  0.36188  0.55725  1.0000
  N   N52       1.0  0.77952  0.39149  0.83969  1.0000
  C   C619      1.0  0.77730  0.39332  0.86832  1.0000
  H   H617      1.0  0.77600  0.41719  0.82749  1.0000
  C   C620      1.0  0.79334  0.37700  0.82836  1.0000
  S   S210      1.0  0.71712  0.32710  0.59990  1.0000
  C   C621      1.0  0.80576  0.36394  0.84587  1.0000
  C   C622      1.0  0.80380  0.36575  0.87508  1.0000
  H   H618      1.0  0.98268  0.46222  0.56678  1.0000
  C   C623      1.0  0.51851  0.44012  0.84237  1.0000
  H   H619      1.0  0.78637  0.38180  0.90908  1.0000
  H   H620      1.0  0.89231  0.38135  0.53757  1.0000
  C   C624      1.0  0.82021  0.50030  0.48937  1.0000
  C   C625      1.0  0.68148  0.50257  0.94775  1.0000
  C   C626      1.0  0.87046  0.38736  0.55016  1.0000
  H   H621      1.0  0.88615  0.47676  0.49806  1.0000
  N   N53       1.0  0.58534  0.47841  0.92005  1.0000
  H   H622      1.0  0.79383  0.37523  0.80572  1.0000
  C   C627      1.0  0.78950  0.38053  0.88643  1.0000
  H   H623      1.0  0.80940  0.34208  0.61718  1.0000
  C   C628      1.0  0.84059  0.36458  0.61539  1.0000
  C   C629      1.0  0.98164  0.41947  0.60577  1.0000
  H   H624      1.0  0.58227  0.45250  0.93097  1.0000
  C   C630      1.0  0.82070  0.34968  0.57447  1.0000
  H   H625      1.0  0.84987  0.39283  0.53566  1.0000
  H   H626      1.0  0.87020  0.38685  0.60678  1.0000
  C   C631      1.0  0.76523  0.40488  0.82132  1.0000
  C   C632      1.0  0.80535  0.48530  0.49950  1.0000
  C   C633      1.0  0.58958  0.46773  0.96752  1.0000
  H   H627      1.0  0.83842  0.50704  0.50263  1.0000
  H   H628      1.0  0.80581  0.33957  0.56523  1.0000
  C   C634      1.0  0.78178  0.47678  0.48206  1.0000
  H   H629      1.0  0.86014  0.46023  0.48473  1.0000
  H   H630      1.0  0.90827  0.45967  0.47946  1.0000
  H   H631      1.0  0.59975  0.50987  0.96581  1.0000
  H   H632      1.0  0.70132  0.32144  0.76830  1.0000
  H   H633      1.0  0.71029  0.32123  0.66241  1.0000
  H   H634      1.0  0.67532  0.32037  0.72012  1.0000
  C   C635      1.0  0.59414  0.48394  0.97745  1.0000
  H   H635      1.0  0.70944  0.98128  0.18541  1.0000
  S   S211      1.0  0.72378  0.68079  0.36463  1.0000
  N   N54       1.0  0.68699  0.73404  0.02672  1.0000
  Fe  Fe105     1.0  0.62369  0.69014  0.34365  1.0000
  S   S212      1.0  0.66753  0.70928  0.34021  1.0000
  S   S213      1.0  0.56691  0.69793  0.32902  1.0000
  Fe  Fe106     1.0  0.70253  0.68865  0.32166  1.0000
  S   S214      1.0  0.74480  0.68773  0.28602  1.0000
  Fe  Fe107     1.0  0.68530  0.70010  0.38342  1.0000
  S   S215      1.0  0.68939  0.72055  0.41776  1.0000
  S   S216      1.0  0.65758  0.67040  0.32190  1.0000
  S   S217      1.0  0.63978  0.68179  0.38721  1.0000
  Fe  Fe108     1.0  0.79391  0.70420  0.05534  1.0000
  S   S218      1.0  0.83954  0.68503  0.05183  1.0000
  S   S219      1.0  0.77847  0.72647  0.02585  1.0000
  Fe  Fe109     1.0  0.77685  0.69352  0.11714  1.0000
  S   S220      1.0  0.82072  0.67391  0.11775  1.0000
  S   S221      1.0  0.73812  0.70081  0.15293  1.0000
  Fe  Fe110     1.0  0.85564  0.69264  0.09550  1.0000
  S   S222      1.0  0.91139  0.69625  0.11474  1.0000
  Fe  Fe111     1.0  0.80174  0.66738  0.07429  1.0000
  Fe  Fe112     1.0  0.67716  0.66336  0.36525  1.0000
  S   S223      1.0  0.81272  0.71290  0.09802  1.0000
  S   S224      1.0  0.75511  0.68591  0.07478  1.0000
  C   C636      1.0  0.95486  0.69428  0.09888  1.0000
  C   C637      1.0  0.95966  0.69099  0.07013  1.0000
  H   H636      1.0  0.88414  0.70813  0.17895  1.0000
  H   H637      1.0  0.93645  0.69014  0.05662  1.0000
  C   C638      1.0  0.70855  0.74170  0.46107  1.0000
  C   C639      1.0  0.73957  0.68923  0.24868  1.0000
  C   C640      1.0  0.76732  0.68302  0.23108  1.0000
  C   C641      1.0  0.76655  0.68573  0.20158  1.0000
  C   C642      1.0  0.73809  0.69486  0.18931  1.0000
  C   C643      1.0  0.70985  0.70064  0.20682  1.0000
  C   C644      1.0  0.71045  0.69779  0.23627  1.0000
  H   H638      1.0  0.78999  0.67639  0.24040  1.0000
  H   H639      1.0  0.78839  0.68114  0.18846  1.0000
  H   H640      1.0  0.68765  0.70769  0.19761  1.0000
  H   H641      1.0  0.68894  0.70269  0.24945  1.0000
  C   C645      1.0  0.59199  0.71433  0.41987  1.0000
  C   C646      1.0  0.52353  0.69224  0.34172  1.0000
  H   H642      1.0  0.77193  0.95850  0.00090  1.0000
  H   H643      1.0  0.54218  0.67628  0.37560  1.0000
  C   C647      1.0  0.57148  0.73743  0.35266  1.0000
  H   H644      1.0  0.68485  0.69194  0.01983  1.0000
  H   H645      1.0  0.76126  0.72935  0.24869  1.0000
  H   H646      1.0  0.84722  0.69783  0.16236  1.0000
  H   H647      1.0  0.51033  0.72482  0.37273  1.0000
  C   C648      1.0  0.55823  0.70839  0.42731  1.0000
  C   C649      1.0  0.71837  0.72730  0.44550  1.0000
  C   C650      1.0  0.72908  0.98505  0.20079  1.0000
  C   C651      1.0  0.66204  0.72686  0.98185  1.0000
  H   H648      1.0  0.61536  0.71124  0.43266  1.0000
  H   H649      1.0  0.62224  0.72827  0.38939  1.0000
  H   H650      1.0  0.85844  0.71896  0.15263  1.0000
  H   H651      1.0  0.76252  0.75793  0.99815  1.0000
  C   C652      1.0  0.75042  0.71883  0.45262  1.0000
  H   H652      1.0  0.86007  0.70429  0.22614  1.0000
  H   H653      1.0  0.79588  0.72759  0.16230  1.0000
  H   H654      1.0  0.91584  0.65755  0.12684  1.0000
  C   C653      1.0  0.51890  0.68178  0.36525  1.0000
  H   H655      1.0  0.70798  0.98270  0.99238  1.0000
  H   H656      1.0  0.49590  0.70739  0.31044  1.0000
  H   H657      1.0  0.55512  0.70054  0.44590  1.0000
  H   H658      1.0  0.70159  0.96743  0.42709  1.0000
  C   C654      1.0  0.78019  0.96752  0.98511  1.0000
  C   C655      1.0  0.77602  0.73027  0.20464  1.0000
  H   H659      1.0  0.72003  0.74188  0.06063  1.0000
  C   C656      1.0  0.78679  0.98411  0.99330  1.0000
  C   C657      1.0  0.53334  0.72216  0.38611  1.0000
  N   N55       1.0  0.56675  0.72747  0.37850  1.0000
  C   C658      1.0  0.59578  0.72394  0.39526  1.0000
  C   C659      1.0  0.68069  0.70509  0.01459  1.0000
  H   H660      1.0  0.59718  0.73386  0.34202  1.0000
  H   H661      1.0  0.98013  0.65683  0.11352  1.0000
  C   C660      1.0  0.76221  0.73129  0.99110  1.0000
  H   H662      1.0  0.67492  0.75085  0.06003  1.0000
  H   H663      1.0  0.68397  0.74846  0.45582  1.0000
  H   H664      1.0  0.75850  0.70774  0.44105  1.0000
  C   C661      1.0  0.98552  0.69540  0.11600  1.0000
  C   C662      1.0  0.68407  0.97532  0.43980  1.0000
  H   H665      1.0  0.98226  0.69795  0.13825  1.0000
  H   H666      1.0  0.81572  0.71302  0.26262  1.0000
  C   C663      1.0  0.83694  0.71193  0.22002  1.0000
  H   H667      1.0  0.57133  0.75097  0.35771  1.0000
  C   C664      1.0  0.78149  0.72612  0.23296  1.0000
  N   N56       1.0  0.83146  0.71615  0.19229  1.0000
  H   H668      1.0  0.75142  0.73669  0.19813  1.0000
  C   C665      1.0  0.80130  0.72505  0.18443  1.0000
  C   C666      1.0  0.85649  0.70996  0.17060  1.0000
  C   C667      1.0  0.81216  0.71692  0.24078  1.0000
  H   H669      1.0  0.54997  0.73491  0.33714  1.0000
  C   C668      1.0  0.67232  0.73885  0.00142  1.0000
  C   C669      1.0  0.52861  0.71243  0.41048  1.0000
  C   C670      1.0  0.69810  0.74679  0.04677  1.0000
  C   C671      1.0  0.69064  0.71742  0.03365  1.0000
  H   H670      1.0  0.70252  0.71362  0.05362  1.0000
  C   C672      1.0  0.67642  0.97051  0.46797  1.0000
  C   C673      1.0  0.66644  0.70988  0.98848  1.0000
  H   H671      1.0  0.50229  0.70763  0.41568  1.0000
  H   H672      1.0  0.70926  0.75779  0.03546  1.0000
  H   H673      1.0  0.69177  0.98453  0.23547  1.0000
  C   C674      1.0  0.75586  0.74820  0.98344  1.0000
  H   H674      1.0  0.68805  0.95906  0.47661  1.0000
  H   H675      1.0  0.74902  0.98611  0.29195  1.0000
  C   C675      1.0  0.77213  0.72467  0.47479  1.0000
  H   H676      1.0  0.66978  0.75201  0.99576  1.0000
  C   C676      1.0  0.71929  0.98686  0.22918  1.0000
  Fe  Fe113     1.0  0.68833  0.91703  0.56167  1.0000
  S   S225      1.0  0.70645  0.94321  0.57032  1.0000
  S   S226      1.0  0.73160  0.89855  0.54689  1.0000
  Fe  Fe114     1.0  0.61161  0.92555  0.57963  1.0000
  S   S227      1.0  0.62501  0.95199  0.59074  1.0000
  S   S228      1.0  0.55626  0.91392  0.57965  1.0000
  Fe  Fe115     1.0  0.65547  0.95225  0.54919  1.0000
  C   C677      1.0  0.92229  0.89803  0.79117  1.0000
  Fe  Fe116     1.0  0.67504  0.94068  0.61095  1.0000
  S   S229      1.0  0.70620  0.94940  0.64983  1.0000
  S   S230      1.0  0.63974  0.92617  0.53747  1.0000
  S   S231      1.0  0.65918  0.91413  0.60289  1.0000
  Fe  Fe117     1.0  0.84862  0.78791  0.58157  1.0000
  S   S232      1.0  0.83129  0.76130  0.58822  1.0000
  S   S233      1.0  0.90571  0.79816  0.57664  1.0000
  Fe  Fe118     1.0  0.77072  0.80097  0.57701  1.0000
  S   S234      1.0  0.74892  0.77504  0.58222  1.0000
  S   S235      1.0  0.72589  0.82076  0.57687  1.0000
  Fe  Fe119     1.0  0.78867  0.77220  0.61758  1.0000
  S   S236      1.0  0.76653  0.75934  0.65750  1.0000
  Fe  Fe120     1.0  0.79226  0.76625  0.55242  1.0000
  S   S237      1.0  0.79075  0.74553  0.51858  1.0000
  S   S238      1.0  0.80879  0.79844  0.61354  1.0000
  S   S239      1.0  0.81140  0.79250  0.54450  1.0000
  Fe  Fe121     1.0  0.77064  0.93131  0.81237  1.0000
  S   S240      1.0  0.81751  0.91326  0.81131  1.0000
  S   S241      1.0  0.72707  0.92657  0.77927  1.0000
  Fe  Fe122     1.0  0.79569  0.94586  0.87029  1.0000
  S   S242      1.0  0.84314  0.92786  0.87254  1.0000
  S   S243      1.0  0.79320  0.96924  0.89885  1.0000
  Fe  Fe123     1.0  0.85128  0.93411  0.82690  1.0000
  S   S244      1.0  0.90543  0.93957  0.80701  1.0000
  Fe  Fe124     1.0  0.80514  0.90834  0.85686  1.0000
  S   S245      1.0  0.81168  0.88062  0.86726  1.0000
  S   S246      1.0  0.80553  0.95287  0.82442  1.0000
  S   S247      1.0  0.75664  0.92565  0.85805  1.0000
  Fe  Fe125     1.0  0.69759  0.78411  0.81832  1.0000
  S   S248      1.0  0.65080  0.80173  0.82618  1.0000
  S   S249      1.0  0.73403  0.78967  0.78012  1.0000
  Fe  Fe126     1.0  0.69071  0.76817  0.87868  1.0000
  S   S250      1.0  0.64380  0.78527  0.89016  1.0000
  S   S251      1.0  0.71149  0.74507  0.90425  1.0000
  Fe  Fe127     1.0  0.62234  0.78016  0.84675  1.0000
  S   S252      1.0  0.56491  0.77276  0.83468  1.0000
  Fe  Fe128     1.0  0.67575  0.80565  0.86857  1.0000
  S   S253      1.0  0.67771  0.83285  0.88239  1.0000
  S   S254      1.0  0.66786  0.76198  0.83582  1.0000
  S   S255      1.0  0.72388  0.78902  0.86025  1.0000
  C   C678      1.0  0.73187  0.74034  0.93766  1.0000
  C   C679      1.0  0.94726  0.76276  0.52169  1.0000
  H   H677      1.0  0.76950  0.75192  0.86544  1.0000
  H   H678      1.0  0.79671  0.71790  0.47998  1.0000
  H   H679      1.0  0.64219  0.87838  0.82535  1.0000
  H   H680      1.0  0.83288  0.76998  0.82354  1.0000
  H   H681      1.0  0.71097  0.82978  0.78569  1.0000
  H   H682      1.0  0.73229  0.72790  0.85309  1.0000
  H   H683      1.0  0.95331  0.88121  0.89752  1.0000
  C   C680      1.0  0.97952  0.92757  0.86707  1.0000
  H   H684      1.0  0.65530  0.75773  0.57783  1.0000
  H   H685      1.0  0.53852  0.79510  0.87992  1.0000
  N   N57       1.0  0.90882  0.97527  0.84862  1.0000
  C   C681      1.0  0.66890  0.87452  0.81850  1.0000
  N   N58       1.0  0.53730  0.96666  0.53672  1.0000
  C   C682      1.0  0.91143  0.88478  0.86667  1.0000
  C   C683      1.0  0.68986  0.74082  0.55477  1.0000
  C   C684      1.0  0.77413  0.86751  0.87126  1.0000
  C   C685      1.0  0.77901  0.85006  0.86907  1.0000
  C   C686      1.0  0.74980  0.83926  0.87244  1.0000
  C   C687      1.0  0.71552  0.84583  0.87850  1.0000
  C   C688      1.0  0.71077  0.86326  0.88099  1.0000
  C   C689      1.0  0.73980  0.87408  0.87702  1.0000
  H   H686      1.0  0.80553  0.84486  0.86484  1.0000
  H   H687      1.0  0.75389  0.82586  0.87073  1.0000
  H   H688      1.0  0.68440  0.86845  0.88583  1.0000
  H   H689      1.0  0.73571  0.88747  0.87899  1.0000
  C   C690      1.0  0.94661  0.93055  0.85331  1.0000
  C   C691      1.0  0.94619  0.93619  0.82533  1.0000
  H   H690      1.0  0.65841  0.84821  0.82228  1.0000
  H   H691      1.0  0.92168  0.92833  0.86432  1.0000
  C   C692      1.0  0.97891  0.93911  0.81142  1.0000
  C   C693      1.0  0.95414  0.96768  0.88262  1.0000
  H   H692      1.0  0.73571  0.76576  0.95177  1.0000
  H   H693      1.0  0.97510  0.76099  0.52799  1.0000
  C   C694      1.0  0.75531  0.76871  0.69059  1.0000
  C   C695      1.0  0.73217  0.76033  0.70937  1.0000
  C   C696      1.0  0.72398  0.76690  0.73633  1.0000
  C   C697      1.0  0.73973  0.78171  0.74522  1.0000
  C   C698      1.0  0.76274  0.79009  0.72641  1.0000
  C   C699      1.0  0.77015  0.78377  0.69919  1.0000
  H   H694      1.0  0.72050  0.74867  0.70305  1.0000
  H   H695      1.0  0.70597  0.76037  0.75039  1.0000
  H   H696      1.0  0.77517  0.80154  0.73296  1.0000
  H   H697      1.0  0.78812  0.79035  0.68514  1.0000
  C   C700      1.0  0.95797  0.77314  0.58713  1.0000
  C   C701      1.0  0.95047  0.78991  0.58010  1.0000
  C   C702      1.0  0.79259  0.97415  0.93566  1.0000
  H   H698      1.0  0.93608  0.76483  0.59170  1.0000
  C   C703      1.0  0.94427  0.97305  0.85551  1.0000
  C   C704      1.0  0.51554  0.92539  0.58385  1.0000
  H   H699      1.0  0.65201  0.73075  0.96128  1.0000
  H   H700      1.0  0.90492  0.80435  0.48493  1.0000
  H   H701      1.0  0.72959  0.72375  0.53735  1.0000
  H   H702      1.0  0.53907  0.94679  0.60321  1.0000
  H   H703      1.0  0.98721  0.89644  0.81474  1.0000
  H   H704      1.0  0.95207  0.78925  0.51508  1.0000
  C   C705      1.0  0.97946  0.80048  0.57424  1.0000
  C   C706      1.0  0.71203  0.94240  0.68553  1.0000
  C   C707      1.0  0.69026  0.93031  0.69810  1.0000
  C   C708      1.0  0.69548  0.92556  0.72664  1.0000
  C   C709      1.0  0.72276  0.93263  0.74298  1.0000
  C   C710      1.0  0.74496  0.94446  0.73023  1.0000
  C   C711      1.0  0.73945  0.94936  0.70181  1.0000
  H   H705      1.0  0.66886  0.92492  0.68606  1.0000
  H   H706      1.0  0.67797  0.91648  0.73624  1.0000
  H   H707      1.0  0.76593  0.95009  0.74241  1.0000
  H   H708      1.0  0.75645  0.95874  0.69242  1.0000
  C   C712      1.0  0.72919  0.87684  0.55435  1.0000
  C   C713      1.0  0.75859  0.86624  0.54758  1.0000
  C   C714      1.0  0.75825  0.84903  0.55449  1.0000
  C   C715      1.0  0.72823  0.84227  0.56790  1.0000
  C   C716      1.0  0.69879  0.85287  0.57446  1.0000
  C   C717      1.0  0.69932  0.87009  0.56791  1.0000
  H   H709      1.0  0.78178  0.87137  0.53705  1.0000
  H   H710      1.0  0.78098  0.84098  0.54921  1.0000
  H   H711      1.0  0.67541  0.84772  0.58471  1.0000
  H   H712      1.0  0.67655  0.87810  0.57321  1.0000
  H   H713      1.0  0.65222  0.75671  0.62992  1.0000
  C   C718      1.0  0.67754  0.74877  0.57930  1.0000
  C   C719      1.0  0.76665  0.74864  0.84340  1.0000
  H   H714      1.0  0.73244  0.71371  0.93031  1.0000
  C   C720      1.0  0.72895  0.88134  0.80377  1.0000
  C   C721      1.0  0.69449  0.88650  0.81196  1.0000
  H   H715      1.0  0.75030  0.83205  0.80745  1.0000
  H   H716      1.0  0.58592  0.95362  0.52600  1.0000
  H   H717      1.0  0.74898  0.89063  0.79887  1.0000
  H   H718      1.0  0.77743  0.94981  0.95074  1.0000
  C   C722      1.0  0.80447  0.77234  0.82979  1.0000
  H   H719      1.0  0.80352  0.77507  0.85275  1.0000
  H   H720      1.0  0.75459  0.73708  0.76522  1.0000
  C   C723      1.0  0.94703  0.88442  0.87578  1.0000
  S   S256      1.0  0.64426  0.97553  0.52097  1.0000
  H   H721      1.0  0.79409  0.78371  0.81849  1.0000
  C   C724      1.0  0.74561  0.73496  0.83654  1.0000
  H   H722      1.0  0.85449  0.97478  0.86312  1.0000
  C   C725      1.0  0.71936  0.72980  0.55628  1.0000
  H   H723      1.0  0.88974  0.88170  0.88113  1.0000
  C   C726      1.0  0.88802  0.75192  0.51473  1.0000
  H   H724      1.0  0.87600  0.88944  0.83188  1.0000
  H   H725      1.0  0.92372  0.88674  0.77770  1.0000
  H   H726      1.0  0.65950  0.70047  0.97319  1.0000
  H   H727      1.0  0.76440  0.86033  0.79614  1.0000
  H   H728      1.0  0.72433  0.72037  0.80272  1.0000
  H   H729      1.0  0.71779  0.98540  0.95578  1.0000
  H   H730      1.0  0.93356  0.73696  0.52855  1.0000
  C   C727      1.0  0.75807  0.74011  0.78730  1.0000
  C   C728      1.0  0.77889  0.75372  0.79489  1.0000
  N   N59       1.0  0.78272  0.75790  0.82262  1.0000
  C   C729      1.0  0.78329  0.96253  0.95659  1.0000
  H   H731      1.0  0.55549  0.92836  0.50954  1.0000
  H   H732      1.0  0.97411  0.81349  0.56882  1.0000
  C   C730      1.0  0.72092  0.83460  0.80608  1.0000
  H   H733      1.0  0.97883  0.94353  0.78977  1.0000
  C   C731      1.0  0.97447  0.88839  0.85686  1.0000
  C   C732      1.0  0.52118  0.78008  0.84532  1.0000
  C   C733      1.0  0.51442  0.94115  0.59648  1.0000
  C   C734      1.0  0.55611  0.98144  0.54654  1.0000
  C   C735      1.0  0.73740  0.86420  0.80220  1.0000
  C   C736      1.0  0.74116  0.73076  0.80830  1.0000
  H   H734      1.0  0.76018  0.71893  0.58317  1.0000
  N   N60       1.0  0.71216  0.85253  0.80868  1.0000
  N   N61       1.0  0.89898  0.78114  0.50669  1.0000
  C   C737      1.0  0.74064  0.75271  0.95706  1.0000
  C   C738      1.0  0.92393  0.74932  0.52214  1.0000
  N   N62       1.0  0.69399  0.74570  0.60465  1.0000
  C   C739      1.0  0.72332  0.73509  0.60619  1.0000
  C   C740      1.0  0.73643  0.72700  0.58206  1.0000
  C   C741      1.0  0.67821  0.85748  0.81661  1.0000
  C   C742      1.0  0.68185  0.75486  0.62976  1.0000
  H   H735      1.0  0.73723  0.73310  0.62603  1.0000
  H   H736      1.0  0.97963  0.92296  0.88861  1.0000
  H   H737      1.0  0.67725  0.74345  0.53458  1.0000
  H   H738      1.0  0.69474  0.76730  0.63027  1.0000
  H   H739      1.0  0.79120  0.76121  0.77840  1.0000
  H   H740      1.0  0.68943  0.74804  0.64948  1.0000
  N   N63       1.0  0.76077  0.90274  0.62050  1.0000
  C   C743      1.0  0.73515  0.90271  0.64128  1.0000
  C   C744      1.0  0.77428  0.88796  0.61010  1.0000
  C   C745      1.0  0.72160  0.88763  0.65161  1.0000
  C   C746      1.0  0.76166  0.87263  0.62017  1.0000
  C   C747      1.0  0.73484  0.87250  0.64080  1.0000
  C   C748      1.0  0.77448  0.91858  0.60944  1.0000
  H   H741      1.0  0.72454  0.91440  0.64962  1.0000
  H   H742      1.0  0.79402  0.88799  0.59318  1.0000
  H   H743      1.0  0.70068  0.88775  0.66761  1.0000
  H   H744      1.0  0.77171  0.86094  0.61131  1.0000
  H   H745      1.0  0.72410  0.86068  0.64807  1.0000
  H   H746      1.0  0.75870  0.92957  0.61737  1.0000
  H   H747      1.0  0.80287  0.92004  0.61578  1.0000
  H   H748      1.0  0.77266  0.91887  0.58602  1.0000
  H   H749      1.0  0.96512  0.97497  0.83981  1.0000
  C   C749      1.0  0.51564  0.79069  0.86836  1.0000
  H   H750      1.0  0.70833  0.82739  0.82353  1.0000
  C   C750      1.0  0.76238  0.73911  0.49024  1.0000
  C   C751      1.0  0.90376  0.88926  0.83873  1.0000
  N   N64       1.0  0.93075  0.89351  0.82047  1.0000
  C   C752      1.0  0.87593  0.76800  0.50696  1.0000
  H   H751      1.0  0.88344  0.80565  0.51913  1.0000
  C   C753      1.0  0.75381  0.71893  0.97157  1.0000
  H   H752      1.0  0.68782  0.89979  0.81334  1.0000
  H   H753      1.0  0.50662  0.91957  0.65638  1.0000
  H   H754      1.0  0.49470  0.76638  0.81270  1.0000
  C   C754      1.0  0.93416  0.77872  0.51416  1.0000
  C   C755      1.0  0.50054  0.96639  0.53700  1.0000
  H   H755      1.0  0.85923  0.79801  0.48920  1.0000
  C   C756      1.0  0.73891  0.72344  0.94507  1.0000
  C   C757      1.0  0.89146  0.96736  0.89571  1.0000
  H   H756      1.0  0.89501  0.90391  0.78954  1.0000
  C   C758      1.0  0.65413  0.98061  0.48491  1.0000
  C   C759      1.0  0.53972  0.93912  0.51665  1.0000
  C   C760      1.0  0.55685  0.95335  0.52642  1.0000
  H   H757      1.0  0.91913  0.97689  0.80433  1.0000
  H   H758      1.0  0.87041  0.96518  0.91119  1.0000
  C   C761      1.0  0.73030  0.74758  0.48319  1.0000
  H   H759      1.0  0.93470  0.96038  0.92377  1.0000
  H   H760      1.0  0.57921  0.97762  0.56009  1.0000
  C   C762      1.0  0.88594  0.79810  0.49956  1.0000
  H   H761      1.0  0.86943  0.74162  0.51525  1.0000
  H   H762      1.0  0.72230  0.75871  0.49465  1.0000
  C   C763      1.0  0.96579  0.89290  0.82908  1.0000
  C   C764      1.0  0.92748  0.96474  0.90277  1.0000
  H   H763      1.0  0.94119  0.90753  0.78290  1.0000
  C   C765      1.0  0.89892  0.98113  0.82025  1.0000
  H   H764      1.0  0.50828  0.89249  0.63110  1.0000
  H   H765      1.0  0.84786  0.76986  0.50143  1.0000
  C   C766      1.0  0.88257  0.97275  0.86841  1.0000
  C   C767      1.0  0.50230  0.93871  0.51695  1.0000
  H   H766      1.0  0.87300  0.97573  0.81368  1.0000
  H   H767      1.0  0.98225  0.96543  0.88771  1.0000
  H   H768      1.0  0.75853  0.70588  0.97695  1.0000
  C   C768      1.0  0.99388  0.76702  0.58767  1.0000
