data_image0
_chemical_formula_structural       FeS2FeS2FeSFeS3FeS2FeS2FeSFeS3FeS2CNHFeS2C2SHC7H4C3H3C3HCH5C6H4CHCNHFeH4C3HCNC3HC2HCH2NC8HCH3C4HCH3CH5C2H3CH2CNH6CHCHCHCHNCH2C2HFeS2FeS2FeSFeS3FeS2FeS2FeSFeS3NHC2HCH2C6H5CH2C4H2SC3HC6H5C4H2C2H2C2H2C2H5CFeNH2C2HC3NCH3CHCH3CH2CH3CNC3HCH3CSH2CH3SCH2C3HFeS2FeS2FeSFeS3FeS2FeS2FeSFeS3FeS2FeS2H2CH2C3H2C6H5C2NHC2H2CH2C7H4C3H3CHCHC4H3CH3CHCH2CNCNC6H8C2HCNH2CH5C6HCH2FeS2FeS2FeSFeS3FeS2FeS2FeSFeS3CHSNSC2HC6H5C5H4CHC3H2C6H4C2H5C2HC2H2CH4N2CHNH3C2HC3HC4HC3NHC2H5CHC2SHCHCNHCH4C2H4C2SFeCHFeH3C2HCHCHCHCFeS2FeS2FeSFeS3FeS2FeS2FeSFeS3FeS2FeS2H3C6H5C3HNHC3HC3HC6H2C6H5CHNCH2C2H3CNH2NC6H6CH2CH2CH5CNCHC2HCH2CH4C2NH2CH2CH2CH2C4H3FeS2FeS2FeSFeS3FeS2FeS2FeSFeS3CH3SHC6H4C2NH3CFeH3C4HC7H4C4HC2H2C4H3NC2HCH5CH2CHSH2C2H2NH2CH3CH2C3HC3H2C4H2CH2C2SCHCHSC3HC3H5FeCH5C3FeS2FeS2FeSFeS3FeS2FeS2FeSFeS3FeS2HFeSHSNHC7H4NC2H2C3HC3H3C6H4C3H3C3HNH2C2HC5NC6H9CHC2HCHNCH2C2HCH3NHCH4CH4C3H4C3H2CHC3FeS2FeS2FeSFeS3FeS2FeS2FeSFeS3CSH2C6H5CHC4H3CHC3FeH3SC3HNC2H3C6H4C3H2NCHNC2FeCH2CH2CHCHNC6H8C2H2CH2C4HSHCNC6H6C2H4C3HCHCHCHCSH4CHFeS2FeS2FeSFeS3FeS2FeS2FeSFeS3FeS2FeS2CH3CH2C2H2C6H5C2HC4H5C6H4C3H5SCH3C4HCHC3HN2HC2NC2HCNH2CHCH2CH2C2H2CHCHC2H2C3H2FeS2FeS2FeSFeS3FeS2FeS2FeSFeS3CH2CSHC3H2C6H5C3HCHCHC2HCHCHCH2C4H2CHC6H5C2H4FeHSCNCH2CSNC6H10C2HC2HCNH2C2HC2HCHCNH4CNH3CH3C2NCH2CHCFe2S2FeS2FeSFeS3FeS2FeS2FeSFeS3FeS2CHCFeSHSCHC2H3CH3C2H2C7H4C3H2C6H5NC2H2C3HC2HNCH2C4HNC6H7C5H3NCH4C2H2C2HCH2CHCH3NH2CHCNC3H2C3H3CHFeS2FeS2FeSFeS3FeS2FeS2FeSFeS5C2H2C4HCH2C5H2C6H4CH2NHC6H6C3HC2H2NH4FeHNCH5NCH5SC3HC3H3C2HCHC3HCH3C3HCFeH3SHC4HC2HC2HC2HCHCH2FeS2FeS2FeSFeS3FeS2FeS2FeSFeS3FeS2FeS2CH2CHC3H2C6H4CHC7H5C2H2C3H2CHC3HCHNH4C4HCHCH2C5HCHCH2CH2C2HCNH3NH3CHC2H2NH2CNCHCHC2HCH2FeHC2HCH5CHC4H2FeS2FeS2FeSFeS3FeS2FeS2FeSFeS3C2SHCHC3HC2HC7H4C3SH2C3HC2H3C6H5C2H3C2HC2HFeHCHC3NH3C4H2CHCH3CHC2NH2CHCH3CSHSC2HCHCHCH5CHCH2C2H2C2N2HN2C2H3FeS2FeS2FeSFeS3FeS2FeS2FeSFeS3FeS2FeS2CH3C2H3C6H4CHCH3C2HC2HCH3C7H4NC6H3CH7C2H2CH2NCH3C2H3C3NCH2C3HCNHCHCNCH2C2H3CH3C2HC2HCHCHFeS2FeS2FeSFeS3FeS2FeS2FeSFeS3CHSHSC2FeC3H2C6H4C2H2C3H2CNCH2C6H4C3H3C4HCHSCH4NH3CH2CNHC3HNHCHFeC2H2CHC2HC2H7CH5CH3C7H2CSCH2C2H
_chemical_formula_sum              "Fe160 S320 C960 N80 H960"
_cell_length_a       54.5405
_cell_length_b       57.8949
_cell_length_c       58.1285
_cell_angle_alpha    88.8078
_cell_angle_beta     90.0046
_cell_angle_gamma    92.1019

_space_group_name_H-M_alt    "P 1"
_space_group_IT_number       1

loop_
  _space_group_symop_operation_xyz
  'x, y, z'

loop_
  _atom_site_type_symbol
  _atom_site_label
  _atom_site_symmetry_multiplicity
  _atom_site_fract_x
  _atom_site_fract_y
  _atom_site_fract_z
  _atom_site_occupancy
  Fe  Fe1       1.0  0.37208  0.08082  0.10415  1.0000
  S   S1        1.0  0.40980  0.09091  0.09143  1.0000
  S   S2        1.0  0.35552  0.04596  0.09423  1.0000
  Fe  Fe2       1.0  0.36360  0.12938  0.12340  1.0000
  S   S3        1.0  0.40125  0.14263  0.11224  1.0000
  S   S4        1.0  0.33247  0.15252  0.13435  1.0000
  Fe  Fe3       1.0  0.39373  0.12391  0.07927  1.0000
  S   S5        1.0  0.40450  0.14039  0.04495  1.0000
  Fe  Fe4       1.0  0.41416  0.10824  0.12529  1.0000
  S   S6        1.0  0.44906  0.10103  0.14476  1.0000
  S   S7        1.0  0.35551  0.11278  0.08928  1.0000
  S   S8        1.0  0.37704  0.09608  0.13916  1.0000
  Fe  Fe5       1.0  0.13937  0.37523  0.07391  1.0000
  S   S9        1.0  0.10675  0.39725  0.07306  1.0000
  S   S10       1.0  0.15608  0.36325  0.04051  1.0000
  Fe  Fe6       1.0  0.14242  0.37674  0.12667  1.0000
  S   S11       1.0  0.10973  0.39983  0.12895  1.0000
  S   S12       1.0  0.15889  0.36576  0.16132  1.0000
  Fe  Fe7       1.0  0.09276  0.37604  0.10302  1.0000
  S   S13       1.0  0.05414  0.36086  0.10074  1.0000
  Fe  Fe8       1.0  0.12682  0.41931  0.09866  1.0000
  S   S14       1.0  0.12641  0.45622  0.08487  1.0000
  S   S15       1.0  0.12409  0.35187  0.10233  1.0000
  S   S16       1.0  0.16068  0.39826  0.09815  1.0000
  Fe  Fe9       1.0  0.28491  0.23487  0.23365  1.0000
  S   S17       1.0  0.24663  0.22743  0.22149  1.0000
  S   S18       1.0  0.31746  0.21314  0.22387  1.0000
  C   C1        1.0  0.25052  0.15876  0.20456  1.0000
  N   N1        1.0  0.25585  0.34090  0.21777  1.0000
  H   H1        1.0  0.41601  0.04356  0.07761  1.0000
  Fe  Fe10      1.0  0.24267  0.26602  0.21923  1.0000
  S   S19       1.0  0.22753  0.28152  0.18574  1.0000
  S   S20       1.0  0.28220  0.27350  0.22896  1.0000
  C   C2        1.0  0.12509  0.48170  0.10090  1.0000
  C   C3        1.0  0.12858  0.48195  0.12475  1.0000
  S   S21       1.0  0.22834  0.26771  0.25539  1.0000
  H   H2        1.0  0.13108  0.46591  0.13420  1.0000
  C   C4        1.0  0.00501  0.36481  0.10715  1.0000
  C   C5        1.0  0.17616  0.34096  0.16785  1.0000
  C   C6        1.0  0.18599  0.32755  0.15063  1.0000
  C   C7        1.0  0.20108  0.30906  0.15654  1.0000
  C   C8        1.0  0.20644  0.30360  0.17968  1.0000
  C   C9        1.0  0.19608  0.31663  0.19694  1.0000
  C   C10       1.0  0.18107  0.33523  0.19103  1.0000
  H   H3        1.0  0.18244  0.33171  0.13273  1.0000
  H   H4        1.0  0.20898  0.29909  0.14304  1.0000
  H   H5        1.0  0.20000  0.31265  0.21480  1.0000
  H   H6        1.0  0.17353  0.34544  0.20451  1.0000
  C   C11       1.0  0.08233  0.31072  0.13084  1.0000
  C   C12       1.0  0.02845  0.37337  0.11315  1.0000
  C   C13       1.0  0.03082  0.39159  0.12853  1.0000
  H   H7        1.0  0.38106  0.17675  0.07273  1.0000
  H   H8        1.0  0.38285  0.03582  0.13616  1.0000
  H   H9        1.0  0.04884  0.39813  0.13349  1.0000
  C   C14       1.0  0.47679  0.10975  0.13101  1.0000
  C   C15       1.0  0.47693  0.12461  0.11174  1.0000
  C   C16       1.0  0.37810  0.01971  0.12786  1.0000
  H   H10       1.0  0.45978  0.13037  0.10466  1.0000
  C   C17       1.0  0.43797  0.03617  0.10761  1.0000
  H   H11       1.0  0.03285  0.35915  0.17015  1.0000
  H   H12       1.0  0.15655  0.41407  0.04667  1.0000
  H   H13       1.0  0.19109  0.40473  0.02316  1.0000
  H   H14       1.0  0.25017  0.31773  0.24616  1.0000
  H   H15       1.0  0.36667  0.10449  0.03761  1.0000
  C   C18       1.0  0.32952  0.17030  0.15880  1.0000
  C   C19       1.0  0.30869  0.18383  0.16066  1.0000
  C   C20       1.0  0.30495  0.19745  0.18015  1.0000
  C   C21       1.0  0.32206  0.19771  0.19810  1.0000
  C   C22       1.0  0.34304  0.18439  0.19612  1.0000
  C   C23       1.0  0.34678  0.17078  0.17662  1.0000
  H   H16       1.0  0.29522  0.18365  0.14700  1.0000
  H   H17       1.0  0.28872  0.20755  0.18139  1.0000
  H   H18       1.0  0.35643  0.18447  0.20985  1.0000
  H   H19       1.0  0.36290  0.16051  0.17548  1.0000
  C   C24       1.0  0.36463  0.01991  0.10738  1.0000
  H   H20       1.0  0.06130  0.43268  0.06761  1.0000
  C   C25       1.0  0.29423  0.15524  0.22848  1.0000
  N   N2        1.0  0.02543  0.42203  0.07871  1.0000
  H   H21       1.0  0.03992  0.32826  0.14249  1.0000
  Fe  Fe11      1.0  0.23536  0.22957  0.25872  1.0000
  H   H22       1.0  0.27452  0.31499  0.19977  1.0000
  H   H23       1.0  0.35834  0.19875  0.07451  1.0000
  H   H24       1.0  0.07794  0.31758  0.11335  1.0000
  H   H25       1.0  0.11196  0.38741  0.02785  1.0000
  C   C26       1.0  0.05119  0.42809  0.08375  1.0000
  C   C27       1.0  0.26327  0.33002  0.19843  1.0000
  C   C28       1.0  0.23242  0.36689  0.19448  1.0000
  H   H26       1.0  0.21959  0.38075  0.19314  1.0000
  C   C29       1.0  0.02000  0.40423  0.06421  1.0000
  N   N3        1.0  0.07863  0.32861  0.14786  1.0000
  C   C30       1.0  0.09826  0.33866  0.15902  1.0000
  C   C31       1.0  0.27033  0.14844  0.19421  1.0000
  C   C32       1.0  0.09483  0.35628  0.17468  1.0000
  H   H27       1.0  0.13299  0.43168  0.03572  1.0000
  C   C33       1.0  0.07120  0.36365  0.17884  1.0000
  C   C34       1.0  0.15315  0.42947  0.03555  1.0000
  H   H28       1.0  0.11678  0.33332  0.15568  1.0000
  C   C35       1.0  0.05130  0.35325  0.16746  1.0000
  H   H29       1.0  0.44112  0.05420  0.11200  1.0000
  H   H30       1.0  0.23346  0.16069  0.19524  1.0000
  N   N4        1.0  0.34603  0.16765  0.05890  1.0000
  C   C36       1.0  0.29226  0.14645  0.20629  1.0000
  C   C37       1.0  0.35277  0.16843  0.03622  1.0000
  C   C38       1.0  0.37273  0.11138  0.02105  1.0000
  C   C39       1.0  0.12119  0.38279  0.01240  1.0000
  C   C40       1.0  0.05538  0.33566  0.15193  1.0000
  C   C41       1.0  0.25567  0.33749  0.17662  1.0000
  C   C42       1.0  0.44726  0.01864  0.12165  1.0000
  C   C43       1.0  0.49932  0.13259  0.10196  1.0000
  H   H31       1.0  0.03458  0.39436  0.05698  1.0000
  C   C44       1.0  0.12929  0.50315  0.13631  1.0000
  H   H32       1.0  0.17915  0.49777  0.09903  1.0000
  H   H33       1.0  0.10159  0.30506  0.13064  1.0000
  H   H34       1.0  0.16234  0.44488  0.04326  1.0000
  C   C45       1.0  0.31784  0.14370  0.02673  1.0000
  C   C46       1.0  0.25300  0.16700  0.22694  1.0000
  C   C47       1.0  0.24040  0.35896  0.21605  1.0000
  C   C48       1.0  0.49914  0.10237  0.14002  1.0000
  H   H35       1.0  0.26895  0.14244  0.17666  1.0000
  C   C49       1.0  0.36133  0.17992  0.07578  1.0000
  H   H36       1.0  0.49912  0.09078  0.15486  1.0000
  H   H37       1.0  0.11053  0.36438  0.18323  1.0000
  H   H38       1.0  0.23321  0.36133  0.15794  1.0000
  C   C50       1.0  0.42407  0.03025  0.08830  1.0000
  H   H39       1.0  0.26081  0.32815  0.16147  1.0000
  H   H40       1.0  0.49927  0.14462  0.08746  1.0000
  H   H41       1.0  0.36966  0.17747  0.03084  1.0000
  H   H42       1.0  0.31170  0.15461  0.23736  1.0000
  H   H43       1.0  0.05993  0.41317  0.09226  1.0000
  C   C51       1.0  0.39163  0.12836  0.01979  1.0000
  C   C52       1.0  0.26305  0.33206  0.24050  1.0000
  H   H44       1.0  0.06834  0.37756  0.19066  1.0000
  H   H45       1.0  0.23752  0.17505  0.23484  1.0000
  H   H46       1.0  0.35713  0.17381  0.09368  1.0000
  C   C53       1.0  0.24011  0.35602  0.17468  1.0000
  H   H47       1.0  0.29457  0.13345  0.05545  1.0000
  H   H48       1.0  0.23379  0.36704  0.23141  1.0000
  C   C54       1.0  0.31071  0.14351  0.04981  1.0000
  N   N5        1.0  0.27474  0.16534  0.23850  1.0000
  H   H49       1.0  0.45758  0.02340  0.13690  1.0000
  H   H50       1.0  0.01114  0.44725  0.10093  1.0000
  H   H51       1.0  0.01150  0.41555  0.14933  1.0000
  H   H52       1.0  0.07018  0.29530  0.13465  1.0000
  H   H53       1.0  0.05320  0.44300  0.09543  1.0000
  H   H54       1.0  0.30798  0.13906  0.19812  1.0000
  C   C55       1.0  0.32495  0.15589  0.06573  1.0000
  H   H55       1.0  0.31952  0.15536  0.08373  1.0000
  C   C56       1.0  0.00970  0.40137  0.13754  1.0000
  H   H56       1.0  0.28193  0.32543  0.24024  1.0000
  C   C57       1.0  0.33880  0.15649  0.01981  1.0000
  H   H57       1.0  0.11928  0.50259  0.07042  1.0000
  C   C58       1.0  0.12191  0.50261  0.08887  1.0000
  H   H58       1.0  0.30745  0.13365  0.01426  1.0000
  N   N6        1.0  0.16222  0.42625  0.01212  1.0000
  C   C59       1.0  0.00701  0.43371  0.08878  1.0000
  H   H59       1.0  0.26304  0.34568  0.25370  1.0000
  H   H60       1.0  0.50248  0.15704  0.14659  1.0000
  C   C60       1.0  0.14224  0.36979  0.01364  1.0000
  C   C61       1.0  0.41973  0.00703  0.08323  1.0000
  H   H61       1.0  0.13224  0.50332  0.15472  1.0000
  Fe  Fe12      1.0  0.42542  0.40290  0.38259  1.0000
  S   S22       1.0  0.41168  0.36616  0.38693  1.0000
  S   S23       1.0  0.46450  0.41769  0.38420  1.0000
  Fe  Fe13      1.0  0.37403  0.42134  0.38557  1.0000
  S   S24       1.0  0.35586  0.38576  0.39050  1.0000
  S   S25       1.0  0.35378  0.45457  0.38972  1.0000
  Fe  Fe14      1.0  0.38723  0.37904  0.41461  1.0000
  S   S26       1.0  0.38710  0.35839  0.44816  1.0000
  Fe  Fe15      1.0  0.38127  0.37531  0.36228  1.0000
  S   S27       1.0  0.37356  0.34824  0.33459  1.0000
  S   S28       1.0  0.40302  0.41503  0.41206  1.0000
  S   S29       1.0  0.39733  0.41156  0.35564  1.0000
  Fe  Fe16      1.0  0.10883  0.11191  0.41534  1.0000
  S   S30       1.0  0.09252  0.08411  0.39300  1.0000
  S   S31       1.0  0.09551  0.10581  0.45202  1.0000
  Fe  Fe17      1.0  0.13565  0.13604  0.37426  1.0000
  S   S32       1.0  0.12144  0.10972  0.34923  1.0000
  S   S33       1.0  0.15945  0.16835  0.36535  1.0000
  Fe  Fe18      1.0  0.08536  0.11266  0.36764  1.0000
  S   S34       1.0  0.04984  0.11293  0.34747  1.0000
  Fe  Fe19      1.0  0.12966  0.08326  0.37691  1.0000
  S   S35       1.0  0.14931  0.04994  0.37112  1.0000
  S   S36       1.0  0.09874  0.14075  0.39100  1.0000
  S   S37       1.0  0.14677  0.10936  0.40084  1.0000
  N   N7        1.0  0.15807  0.05137  0.43229  1.0000
  H   H62       1.0  0.03700  0.06977  0.38039  1.0000
  C   C62       1.0  0.38273  0.30301  0.37149  1.0000
  C   C63       1.0  0.13353  0.02280  0.37417  1.0000
  H   H63       1.0  0.14460  0.22237  0.32940  1.0000
  C   C64       1.0  0.10857  0.02115  0.37971  1.0000
  H   H64       1.0  0.09234  0.19519  0.36311  1.0000
  H   H65       1.0  0.09831  0.03663  0.38114  1.0000
  C   C65       1.0  0.17509  0.17549  0.33913  1.0000
  C   C66       1.0  0.18866  0.19662  0.33722  1.0000
  C   C67       1.0  0.19983  0.20386  0.31625  1.0000
  C   C68       1.0  0.19757  0.19001  0.29688  1.0000
  C   C69       1.0  0.18426  0.16875  0.29886  1.0000
  C   C70       1.0  0.17319  0.16145  0.31986  1.0000
  H   H66       1.0  0.19037  0.20757  0.35203  1.0000
  H   H67       1.0  0.21004  0.22022  0.31504  1.0000
  H   H68       1.0  0.18243  0.15785  0.28401  1.0000
  H   H69       1.0  0.16288  0.14514  0.32104  1.0000
  H   H70       1.0  0.11711  0.23183  0.34297  1.0000
  C   C71       1.0  0.02342  0.12187  0.36185  1.0000
  H   H71       1.0  0.37907  0.32512  0.41099  1.0000
  H   H72       1.0  0.13792  0.21335  0.35842  1.0000
  C   C72       1.0  0.31802  0.32831  0.40102  1.0000
  C   C73       1.0  0.13138  0.12897  0.47768  1.0000
  C   C74       1.0  0.10999  0.11486  0.47769  1.0000
  C   C75       1.0  0.40502  0.48829  0.41768  1.0000
  H   H73       1.0  0.13960  0.13476  0.46153  1.0000
  H   H74       1.0  0.17134  0.02086  0.41743  1.0000
  S   S38       1.0  0.27563  0.30286  0.29077  1.0000
  C   C76       1.0  0.36378  0.48124  0.37683  1.0000
  C   C77       1.0  0.38047  0.48237  0.35853  1.0000
  C   C78       1.0  0.02489  0.13046  0.38413  1.0000
  H   H75       1.0  0.38665  0.46661  0.35114  1.0000
  C   C79       1.0  0.34609  0.33669  0.32189  1.0000
  C   C80       1.0  0.32284  0.34431  0.32758  1.0000
  C   C81       1.0  0.30158  0.33376  0.31787  1.0000
  C   C82       1.0  0.30320  0.31549  0.30234  1.0000
  C   C83       1.0  0.32645  0.30791  0.29663  1.0000
  C   C84       1.0  0.34770  0.31846  0.30634  1.0000
  H   H76       1.0  0.32123  0.35828  0.33950  1.0000
  H   H77       1.0  0.28372  0.33983  0.32240  1.0000
  H   H78       1.0  0.32808  0.29393  0.28473  1.0000
  H   H79       1.0  0.36556  0.31239  0.30178  1.0000
  H   H80       1.0  0.29950  0.31468  0.37111  1.0000
  C   C85       1.0  0.38861  0.36335  0.49509  1.0000
  C   C86       1.0  0.37916  0.37170  0.47414  1.0000
  C   C87       1.0  0.36245  0.38945  0.47441  1.0000
  C   C88       1.0  0.35460  0.39815  0.49551  1.0000
  H   H81       1.0  0.40157  0.34965  0.49502  1.0000
  H   H82       1.0  0.35495  0.39594  0.45840  1.0000
  C   C89       1.0  0.48749  0.38109  0.36449  1.0000
  C   C90       1.0  0.49007  0.40213  0.37579  1.0000
  H   H83       1.0  0.30164  0.33530  0.40834  1.0000
  H   H84       1.0  0.46938  0.37413  0.36031  1.0000
  C   C91       1.0  0.08304  0.16798  0.33979  1.0000
  C   C92       1.0  0.10854  0.16665  0.30600  1.0000
  H   H85       1.0  0.09828  0.01536  0.44466  1.0000
  H   H86       1.0  0.34173  0.34010  0.42845  1.0000
  C   C93       1.0  0.49565  0.38533  0.43587  1.0000
  C   C94       1.0  0.18047  0.06504  0.42651  1.0000
  H   H87       1.0  0.18098  0.08212  0.43493  1.0000
  H   H88       1.0  0.08284  0.09680  0.49893  1.0000
  H   H89       1.0  0.33712  0.29948  0.35453  1.0000
  H   H90       1.0  0.13977  0.07963  0.44688  1.0000
  H   H91       1.0  0.04249  0.13235  0.39259  1.0000
  C   C95       1.0  0.34049  0.33105  0.41228  1.0000
  Fe  Fe20      1.0  0.26834  0.27335  0.26550  1.0000
  N   N8        1.0  0.42181  0.48938  0.40017  1.0000
  H   H92       1.0  0.38807  0.28695  0.38062  1.0000
  H   H93       1.0  0.13666  0.19345  0.30289  1.0000
  C   C96       1.0  0.13506  0.01519  0.43123  1.0000
  C   C97       1.0  0.12943  0.21711  0.34141  1.0000
  H   H94       1.0  0.39791  0.31631  0.37249  1.0000
  C   C98       1.0  0.31680  0.31673  0.38021  1.0000
  C   C99       1.0  0.12146  0.18651  0.31328  1.0000
  C   C100      1.0  0.08917  0.15739  0.31935  1.0000
  N   N9        1.0  0.11558  0.19656  0.33357  1.0000
  C   C101      1.0  0.09944  0.10761  0.49878  1.0000
  H   H95       1.0  0.11374  0.15835  0.29026  1.0000
  H   H96       1.0  0.38027  0.29952  0.35286  1.0000
  H   H97       1.0  0.19696  0.05576  0.43214  1.0000
  C   C102      1.0  0.13870  0.06147  0.44255  1.0000
  H   H98       1.0  0.44085  0.45813  0.40278  1.0000
  C   C103      1.0  0.15641  0.02858  0.42650  1.0000
  H   H99       1.0  0.06806  0.16082  0.35033  1.0000
  H   H100      1.0  0.15822  0.14716  0.49862  1.0000
  H   H101      1.0  0.01328  0.08174  0.41439  1.0000
  C   C104      1.0  0.09671  0.18750  0.34683  1.0000
  H   H102      1.0  0.48802  0.38493  0.45361  1.0000
  H   H103      1.0  0.48085  0.37887  0.42421  1.0000
  C   C105      1.0  0.27741  0.17418  0.26184  1.0000
  H   H104      1.0  0.00471  0.14318  0.41287  1.0000
  H   H105      1.0  0.44093  0.47104  0.37429  1.0000
  H   H106      1.0  0.34106  0.41135  0.49556  1.0000
  C   C106      1.0  0.14187  0.13601  0.49871  1.0000
  N   N10       1.0  0.36032  0.31166  0.38164  1.0000
  C   C107      1.0  0.36160  0.32258  0.40227  1.0000
  C   C108      1.0  0.33822  0.30823  0.37085  1.0000
  C   C109      1.0  0.01709  0.06899  0.38004  1.0000
  H   H107      1.0  0.18144  0.06809  0.40756  1.0000
  C   C110      1.0  0.42978  0.46790  0.39012  1.0000
  H   H108      1.0  0.39699  0.47171  0.42343  1.0000
  H   H109      1.0  0.28031  0.15974  0.27427  1.0000
  H   H110      1.0  0.07906  0.14188  0.31408  1.0000
  C   C111      1.0  0.11699  0.04864  0.44733  1.0000
  S   S39       1.0  0.21020  0.19862  0.26965  1.0000
  H   H111      1.0  0.10158  0.05688  0.45514  1.0000
  H   H112      1.0  0.41360  0.45696  0.38514  1.0000
  C   C112      1.0  0.11518  0.02538  0.44154  1.0000
  H   H113      1.0  0.50034  0.40351  0.43056  1.0000
  H   H114      1.0  0.34234  0.50116  0.39982  1.0000
  H   H115      1.0  0.29332  0.18674  0.26254  1.0000
  S   S40       1.0  0.27413  0.23525  0.27122  1.0000
  C   C113      1.0  0.35541  0.50188  0.38579  1.0000
  H   H116      1.0  0.01524  0.05855  0.34491  1.0000
  H   H117      1.0  0.26089  0.18331  0.26740  1.0000
  C   C114      1.0  0.00462  0.06278  0.35992  1.0000
  C   C115      1.0  0.00378  0.07575  0.39910  1.0000
  C   C116      1.0  0.00346  0.13648  0.39565  1.0000
  H   H118      1.0  0.16587  0.00353  0.36791  1.0000
  Fe  Fe21      1.0  0.41989  0.40087  0.60367  1.0000
  S   S41       1.0  0.39755  0.37039  0.59065  1.0000
  S   S42       1.0  0.45971  0.41115  0.59644  1.0000
  Fe  Fe22      1.0  0.37472  0.42534  0.62039  1.0000
  S   S43       1.0  0.34880  0.39664  0.60902  1.0000
  S   S44       1.0  0.35892  0.45744  0.63553  1.0000
  Fe  Fe23      1.0  0.37631  0.37266  0.62409  1.0000
  S   S45       1.0  0.36670  0.33864  0.64341  1.0000
  Fe  Fe24      1.0  0.37169  0.39659  0.57681  1.0000
  S   S46       1.0  0.35197  0.39985  0.54257  1.0000
  S   S47       1.0  0.40080  0.40146  0.63803  1.0000
  S   S48       1.0  0.39536  0.42686  0.58725  1.0000
  Fe  Fe25      1.0  0.08680  0.10106  0.60711  1.0000
  S   S49       1.0  0.10248  0.13722  0.60214  1.0000
  S   S50       1.0  0.04768  0.08679  0.60676  1.0000
  Fe  Fe26      1.0  0.13680  0.08018  0.61177  1.0000
  S   S51       1.0  0.15700  0.11473  0.60760  1.0000
  S   S52       1.0  0.15659  0.04641  0.61273  1.0000
  Fe  Fe27      1.0  0.12829  0.12815  0.63105  1.0000
  S   S53       1.0  0.13223  0.15552  0.65861  1.0000
  Fe  Fe28      1.0  0.13006  0.12135  0.57910  1.0000
  S   S54       1.0  0.14435  0.13823  0.54601  1.0000
  S   S55       1.0  0.11026  0.09291  0.63777  1.0000
  S   S56       1.0  0.11223  0.08604  0.58156  1.0000
  Fe  Fe29      1.0  0.26563  0.27598  0.72770  1.0000
  S   S57       1.0  0.22649  0.26282  0.72308  1.0000
  S   S58       1.0  0.27608  0.31059  0.70960  1.0000
  Fe  Fe30      1.0  0.24137  0.22712  0.72409  1.0000
  S   S59       1.0  0.23295  0.19847  0.69820  1.0000
  S   S60       1.0  0.28093  0.24045  0.72617  1.0000
  H   H119      1.0  0.03068  0.16235  0.67297  1.0000
  H   H120      1.0  0.18503  0.31099  0.74358  1.0000
  C   C117      1.0  0.13119  0.12880  0.51981  1.0000
  H   H121      1.0  0.01265  0.07918  0.66136  1.0000
  H   H122      1.0  0.10143  0.10904  0.53580  1.0000
  C   C118      1.0  0.19737  0.32423  0.75055  1.0000
  C   C119      1.0  0.14027  0.02026  0.61926  1.0000
  C   C120      1.0  0.36394  0.38972  0.51646  1.0000
  H   H123      1.0  0.22542  0.18716  0.62871  1.0000
  H   H124      1.0  0.10966  0.03612  0.63513  1.0000
  C   C121      1.0  0.16027  0.16636  0.67059  1.0000
  C   C122      1.0  0.16000  0.18578  0.68476  1.0000
  C   C123      1.0  0.18197  0.19561  0.69374  1.0000
  C   C124      1.0  0.20450  0.18607  0.68867  1.0000
  C   C125      1.0  0.20470  0.16648  0.67473  1.0000
  C   C126      1.0  0.18275  0.15665  0.66575  1.0000
  H   H125      1.0  0.14273  0.19339  0.68874  1.0000
  H   H126      1.0  0.18151  0.21065  0.70446  1.0000
  H   H127      1.0  0.22200  0.15889  0.67080  1.0000
  H   H128      1.0  0.18328  0.14166  0.65497  1.0000
  H   H129      1.0  0.31905  0.45354  0.60091  1.0000
  C   C127      1.0  0.02252  0.10490  0.60871  1.0000
  C   C128      1.0  0.02573  0.12879  0.61124  1.0000
  N   N11       1.0  0.33793  0.47629  0.57704  1.0000
  H   H130      1.0  0.04399  0.13672  0.61087  1.0000
  C   C129      1.0  0.37127  0.48494  0.62697  1.0000
  C   C130      1.0  0.39216  0.48714  0.61309  1.0000
  H   H131      1.0  0.18859  0.15415  0.57192  1.0000
  H   H132      1.0  0.40180  0.47195  0.60843  1.0000
  C   C131      1.0  0.04069  0.10624  0.66451  1.0000
  H   H133      1.0  0.05541  0.09478  0.66070  1.0000
  H   H134      1.0  0.38893  0.36613  0.53213  1.0000
  C   C132      1.0  0.34692  0.49854  0.57411  1.0000
  C   C133      1.0  0.34208  0.33168  0.66275  1.0000
  C   C134      1.0  0.33963  0.30906  0.67206  1.0000
  C   C135      1.0  0.31970  0.30232  0.68651  1.0000
  C   C136      1.0  0.30196  0.31819  0.69192  1.0000
  C   C137      1.0  0.30449  0.34087  0.68272  1.0000
  C   C138      1.0  0.32440  0.34760  0.66823  1.0000
  H   H135      1.0  0.35324  0.29661  0.66804  1.0000
  H   H136      1.0  0.31811  0.28486  0.69350  1.0000
  H   H137      1.0  0.29096  0.35334  0.68685  1.0000
  H   H138      1.0  0.32605  0.36507  0.66129  1.0000
  C   C139      1.0  0.48397  0.37215  0.61127  1.0000
  C   C140      1.0  0.48515  0.39329  0.59912  1.0000
  C   C141      1.0  0.16667  0.17553  0.59315  1.0000
  H   H139      1.0  0.46658  0.36548  0.61806  1.0000
  H   H140      1.0  0.33980  0.44131  0.56650  1.0000
  H   H141      1.0  0.22659  0.16139  0.59490  1.0000
  C   C142      1.0  0.00524  0.14239  0.61467  1.0000
  H   H142      1.0  0.28768  0.35188  0.59430  1.0000
  C   C143      1.0  0.07098  0.13848  0.66642  1.0000
  H   H143      1.0  0.18667  0.20487  0.63926  1.0000
  C   C144      1.0  0.18843  0.16539  0.58666  1.0000
  C   C145      1.0  0.10999  0.11448  0.51973  1.0000
  C   C146      1.0  0.49965  0.41976  0.64598  1.0000
  C   C147      1.0  0.37606  0.48598  0.54619  1.0000
  H   H144      1.0  0.14048  0.21572  0.60794  1.0000
  H   H145      1.0  0.29982  0.47240  0.58401  1.0000
  H   H146      1.0  0.05081  0.00939  0.59872  1.0000
  C   C148      1.0  0.31763  0.47116  0.59309  1.0000
  H   H147      1.0  0.07390  0.15408  0.67706  1.0000
  H   H148      1.0  0.08421  0.12564  0.67277  1.0000
  H   H149      1.0  0.12727  0.18743  0.61584  1.0000
  C   C149      1.0  0.10434  0.02468  0.57164  1.0000
  H   H150      1.0  0.15018  0.17208  0.58314  1.0000
  C   C150      1.0  0.14309  0.19977  0.61843  1.0000
  H   H151      1.0  0.37370  0.44945  0.53912  1.0000
  H   H152      1.0  0.14297  0.20406  0.63700  1.0000
  C   C151      1.0  0.34706  0.45892  0.56436  1.0000
  N   N12       1.0  0.16610  0.18927  0.61200  1.0000
  C   C152      1.0  0.20971  0.16951  0.59950  1.0000
  N   N13       1.0  0.31225  0.32621  0.60565  1.0000
  C   C153      1.0  0.33439  0.31638  0.60236  1.0000
  C   C154      1.0  0.30513  0.34398  0.59158  1.0000
  C   C155      1.0  0.35019  0.32455  0.58480  1.0000
  C   C156      1.0  0.32035  0.35239  0.57368  1.0000
  C   C157      1.0  0.34301  0.34258  0.57032  1.0000
  C   C158      1.0  0.29561  0.31744  0.62391  1.0000
  H   H153      1.0  0.34047  0.30279  0.61394  1.0000
  H   H154      1.0  0.31491  0.36670  0.56268  1.0000
  H   H155      1.0  0.36815  0.31736  0.58288  1.0000
  H   H156      1.0  0.07599  0.04432  0.58715  1.0000
  H   H157      1.0  0.35515  0.34927  0.55676  1.0000
  H   H158      1.0  0.30473  0.30523  0.63589  1.0000
  H   H159      1.0  0.28943  0.33191  0.63448  1.0000
  H   H160      1.0  0.27941  0.30828  0.61634  1.0000
  C   C159      1.0  0.18705  0.19397  0.62428  1.0000
  C   C160      1.0  0.11755  0.02001  0.63040  1.0000
  H   H161      1.0  0.25741  0.34191  0.74967  1.0000
  C   C161      1.0  0.20910  0.18400  0.61836  1.0000
  N   N14       1.0  0.04562  0.12926  0.66794  1.0000
  H   H162      1.0  0.07561  0.14317  0.64828  1.0000
  H   H163      1.0  0.50186  0.45123  0.62591  1.0000
  C   C162      1.0  0.22214  0.32498  0.74456  1.0000
  H   H164      1.0  0.31824  0.48325  0.60771  1.0000
  H   H165      1.0  0.00779  0.16084  0.61686  1.0000
  H   H166      1.0  0.22907  0.31278  0.73247  1.0000
  H   H167      1.0  0.11599  0.03967  0.56717  1.0000
  H   H168      1.0  0.47975  0.41940  0.64689  1.0000
  C   C163      1.0  0.36626  0.46347  0.54878  1.0000
  C   C164      1.0  0.02688  0.14396  0.67115  1.0000
  C   C165      1.0  0.08204  0.02722  0.58295  1.0000
  C   C166      1.0  0.38139  0.37262  0.51616  1.0000
  C   C167      1.0  0.23808  0.34140  0.75431  1.0000
  C   C168      1.0  0.06786  0.00760  0.58941  1.0000
  H   H169      1.0  0.50299  0.38709  0.66392  1.0000
  C   C169      1.0  0.01651  0.09728  0.66488  1.0000
  H   H170      1.0  0.39135  0.48964  0.53458  1.0000
  H   H171      1.0  0.34319  0.50341  0.64419  1.0000
  Fe  Fe31      1.0  0.39045  0.07975  0.88118  1.0000
  S   S61       1.0  0.40690  0.09563  0.91263  1.0000
  S   S62       1.0  0.40472  0.04515  0.87063  1.0000
  Fe  Fe32      1.0  0.36192  0.12361  0.86871  1.0000
  S   S63       1.0  0.37679  0.14263  0.89952  1.0000
  S   S64       1.0  0.33190  0.13415  0.84319  1.0000
  Fe  Fe33      1.0  0.41300  0.12728  0.89033  1.0000
  S   S65       1.0  0.45006  0.14575  0.89399  1.0000
  Fe  Fe34      1.0  0.36975  0.10916  0.91922  1.0000
  S   S66       1.0  0.35219  0.10410  0.95439  1.0000
  S   S67       1.0  0.39881  0.11075  0.85812  1.0000
  S   S68       1.0  0.35247  0.09078  0.88915  1.0000
  Fe  Fe35      1.0  0.09198  0.37625  0.86681  1.0000
  S   S69       1.0  0.12068  0.38769  0.84077  1.0000
  S   S70       1.0  0.05428  0.36089  0.85802  1.0000
  Fe  Fe36      1.0  0.12359  0.39061  0.90777  1.0000
  S   S71       1.0  0.15480  0.40400  0.88515  1.0000
  S   S72       1.0  0.11386  0.39806  0.94477  1.0000
  Fe  Fe37      1.0  0.12601  0.41923  0.86247  1.0000
  S   S73       1.0  0.12421  0.45451  0.84506  1.0000
  Fe  Fe38      1.0  0.14767  0.37130  0.86478  1.0000
  S   S74       1.0  0.18178  0.35340  0.85181  1.0000
  S   S75       1.0  0.09561  0.40877  0.88650  1.0000
  S   S76       1.0  0.11834  0.35699  0.88933  1.0000
  C   C170      1.0  0.05558  0.36850  0.92327  1.0000
  H   H172      1.0  0.34023  0.11052  0.79867  1.0000
  S   S77       1.0  0.30524  0.22852  0.79079  1.0000
  N   N15       1.0  0.34922  0.07950  0.81707  1.0000
  S   S78       1.0  0.19104  0.27129  0.78076  1.0000
  C   C171      1.0  0.19543  0.37279  0.79213  1.0000
  C   C172      1.0  0.13282  0.48020  0.85920  1.0000
  H   H173      1.0  0.15028  0.46355  0.88797  1.0000
  C   C173      1.0  0.18386  0.33020  0.83239  1.0000
  C   C174      1.0  0.20719  0.32394  0.82481  1.0000
  C   C175      1.0  0.20975  0.30617  0.80882  1.0000
  C   C176      1.0  0.18897  0.29407  0.80062  1.0000
  C   C177      1.0  0.16568  0.30020  0.80834  1.0000
  C   C178      1.0  0.16310  0.31830  0.82396  1.0000
  H   H174      1.0  0.22338  0.33308  0.83118  1.0000
  H   H175      1.0  0.22777  0.30173  0.80297  1.0000
  H   H176      1.0  0.14947  0.29098  0.80210  1.0000
  H   H177      1.0  0.14504  0.32290  0.82960  1.0000
  H   H178      1.0  0.21778  0.21459  0.81096  1.0000
  C   C179      1.0  0.39928  0.13714  0.99815  1.0000
  C   C180      1.0  0.11228  0.39043  0.99104  1.0000
  C   C181      1.0  0.12406  0.38490  0.97055  1.0000
  C   C182      1.0  0.14442  0.37090  0.97153  1.0000
  C   C183      1.0  0.15352  0.36341  0.99307  1.0000
  H   H179      1.0  0.41385  0.15030  0.99705  1.0000
  H   H180      1.0  0.09640  0.40110  0.99042  1.0000
  H   H181      1.0  0.15362  0.36648  0.95582  1.0000
  H   H182      1.0  0.21016  0.27610  0.84997  1.0000
  C   C184      1.0  0.02756  0.37631  0.86363  1.0000
  H   H183      1.0  0.04654  0.40595  0.87768  1.0000
  C   C185      1.0  0.47640  0.13238  0.88376  1.0000
  C   C186      1.0  0.01241  0.37678  0.93036  1.0000
  C   C187      1.0  0.47467  0.11481  0.86762  1.0000
  H   H184      1.0  0.06998  0.44741  0.85965  1.0000
  H   H185      1.0  0.45690  0.10928  0.86105  1.0000
  C   C188      1.0  0.32513  0.16060  0.82864  1.0000
  C   C189      1.0  0.30496  0.16092  0.81348  1.0000
  C   C190      1.0  0.29877  0.18138  0.80151  1.0000
  C   C191      1.0  0.31273  0.20186  0.80455  1.0000
  C   C192      1.0  0.33287  0.20154  0.81972  1.0000
  C   C193      1.0  0.33908  0.18107  0.83167  1.0000
  H   H186      1.0  0.29400  0.14523  0.81098  1.0000
  H   H187      1.0  0.28325  0.18129  0.78992  1.0000
  H   H188      1.0  0.34382  0.21724  0.82222  1.0000
  H   H189      1.0  0.35464  0.18115  0.84321  1.0000
  C   C194      1.0  0.38793  0.12920  0.97789  1.0000
  C   C195      1.0  0.36852  0.11275  0.97919  1.0000
  H   H190      1.0  0.33142  0.02468  0.85338  1.0000
  H   H191      1.0  0.39376  0.13626  0.96130  1.0000
  H   H192      1.0  0.16972  0.35318  0.99381  1.0000
  H   H193      1.0  0.06313  0.36009  0.93895  1.0000
  H   H194      1.0  0.07197  0.46388  0.83340  1.0000
  C   C196      1.0  0.32690  0.07778  0.82788  1.0000
  C   C197      1.0  0.35643  0.10044  0.80374  1.0000
  H   H195      1.0  0.18547  0.41697  0.95029  1.0000
  C   C198      1.0  0.15083  0.43660  0.99385  1.0000
  C   C199      1.0  0.36538  0.06208  0.81939  1.0000
  H   H196      1.0  0.46191  0.10571  0.92280  1.0000
  H   H197      1.0  0.26242  0.21618  0.81876  1.0000
  C   C200      1.0  0.07969  0.48425  0.88286  1.0000
  H   H198      1.0  0.29684  0.25835  0.82934  1.0000
  H   H199      1.0  0.45353  0.08099  0.94088  1.0000
  H   H200      1.0  0.20662  0.39904  0.98378  1.0000
  H   H201      1.0  0.30267  0.05706  0.85005  1.0000
  N   N16       1.0  0.26113  0.24637  0.83915  1.0000
  N   N17       1.0  0.20458  0.35604  0.77590  1.0000
  C   C201      1.0  0.33626  0.04000  0.84302  1.0000
  H   H202      1.0  0.17685  0.36757  0.79878  1.0000
  N   N18       1.0  0.47895  0.07476  0.91407  1.0000
  H   H203      1.0  0.38349  0.06378  0.81168  1.0000
  H   H204      1.0  0.04251  0.45880  0.84758  1.0000
  H   H205      1.0  0.36853  0.11186  0.81433  1.0000
  C   C202      1.0  0.02898  0.39780  0.87416  1.0000
  C   C203      1.0  0.36720  0.01771  0.89019  1.0000
  H   H206      1.0  0.29550  0.23012  0.84287  1.0000
  C   C204      1.0  0.21099  0.24501  0.83033  1.0000
  C   C205      1.0  0.36104  0.10383  0.00083  1.0000
  C   C206      1.0  0.28768  0.24760  0.84314  1.0000
  H   H207      1.0  0.25492  0.27728  0.85732  1.0000
  C   C207      1.0  0.25098  0.22913  0.82605  1.0000
  C   C208      1.0  0.24680  0.26320  0.84755  1.0000
  C   C209      1.0  0.22893  0.35693  0.77005  1.0000
  C   C210      1.0  0.22150  0.26264  0.84349  1.0000
  H   H208      1.0  0.01832  0.39256  0.93876  1.0000
  C   C211      1.0  0.49604  0.10470  0.85959  1.0000
  C   C212      1.0  0.18880  0.34009  0.76622  1.0000
  C   C213      1.0  0.14520  0.47986  0.88027  1.0000
  N   N19       1.0  0.02928  0.36270  0.92110  1.0000
  H   H209      1.0  0.19151  0.24481  0.82638  1.0000
  C   C214      1.0  0.19125  0.41004  0.98647  1.0000
  C   C215      1.0  0.47232  0.04807  0.88335  1.0000
  H   H210      1.0  0.20758  0.37397  0.80748  1.0000
  H   H211      1.0  0.35888  0.03358  0.89505  1.0000
  H   H212      1.0  0.06580  0.36272  0.90801  1.0000
  H   H213      1.0  0.03513  0.33190  0.90264  1.0000
  H   H214      1.0  0.24143  0.36961  0.77764  1.0000
  C   C216      1.0  0.22576  0.22812  0.82157  1.0000
  H   H215      1.0  0.34486  0.15629  0.00200  1.0000
  C   C217      1.0  0.38985  0.01859  0.87884  1.0000
  C   C218      1.0  0.02178  0.34283  0.91039  1.0000
  S   S79       1.0  0.26307  0.27497  0.76645  1.0000
  H   H216      1.0  0.29220  0.25503  0.86014  1.0000
  C   C219      1.0  0.46327  0.06212  0.90043  1.0000
  H   H217      1.0  0.36625  0.09610  0.78777  1.0000
  C   C220      1.0  0.46892  0.08993  0.93135  1.0000
  N   N20       1.0  0.06643  0.48404  0.86286  1.0000
  H   H218      1.0  0.34606  0.09107  0.00195  1.0000
  C   C221      1.0  0.15915  0.43357  0.97138  1.0000
  H   H219      1.0  0.05916  0.38748  0.92425  1.0000
  H   H220      1.0  0.00891  0.42501  0.88929  1.0000
  H   H221      1.0  0.08776  0.46857  0.88943  1.0000
  H   H222      1.0  0.31428  0.09181  0.82661  1.0000
  C   C222      1.0  0.06241  0.46251  0.85030  1.0000
  C   C223      1.0  0.32014  0.05809  0.84110  1.0000
  H   H223      1.0  0.49457  0.09134  0.84687  1.0000
  H   H224      1.0  0.44358  0.06297  0.90251  1.0000
  H   H225      1.0  0.48297  0.09544  0.94413  1.0000
  H   H226      1.0  0.19448  0.39010  0.78369  1.0000
  C   C224      1.0  0.35895  0.04191  0.83196  1.0000
  C   C225      1.0  0.17942  0.42011  0.96770  1.0000
  S   S80       1.0  0.23708  0.22283  0.76261  1.0000
  Fe  Fe39      1.0  0.22512  0.25984  0.76179  1.0000
  C   C226      1.0  0.00435  0.36621  0.85882  1.0000
  H   H227      1.0  0.45967  0.03840  0.87240  1.0000
  Fe  Fe40      1.0  0.27553  0.23818  0.76469  1.0000
  H   H228      1.0  0.14935  0.44080  0.95682  1.0000
  H   H229      1.0  0.16958  0.33906  0.77109  1.0000
  H   H230      1.0  0.37183  0.02813  0.83374  1.0000
  C   C227      1.0  0.18239  0.41335  0.00872  1.0000
  C   C228      1.0  0.00755  0.40865  0.88065  1.0000
  H   H231      1.0  0.13470  0.44661  0.99649  1.0000
  C   C229      1.0  0.49958  0.13938  0.89216  1.0000
  H   H232      1.0  0.50101  0.15290  0.90472  1.0000
  C   C230      1.0  0.15149  0.50076  0.89112  1.0000
  H   H233      1.0  0.16153  0.50047  0.90717  1.0000
  C   C231      1.0  0.49761  0.04695  0.88027  1.0000
  H   H234      1.0  0.11673  0.50180  0.83306  1.0000
  C   C232      1.0  0.12636  0.50146  0.84933  1.0000
  Fe  Fe41      1.0  0.37295  0.86706  0.12526  1.0000
  S   S81       1.0  0.35091  0.89745  0.11393  1.0000
  S   S82       1.0  0.36575  0.83982  0.15384  1.0000
  Fe  Fe42      1.0  0.41728  0.88343  0.09535  1.0000
  S   S83       1.0  0.39892  0.91508  0.08220  1.0000
  S   S84       1.0  0.45373  0.87495  0.07990  1.0000
  Fe  Fe43      1.0  0.38590  0.91873  0.11844  1.0000
  S   S85       1.0  0.39037  0.95163  0.13867  1.0000
  Fe  Fe44      1.0  0.36595  0.89119  0.07835  1.0000
  S   S86       1.0  0.34459  0.89297  0.04502  1.0000
  S   S87       1.0  0.40716  0.88889  0.13207  1.0000
  S   S88       1.0  0.38504  0.85910  0.08927  1.0000
  Fe  Fe45      1.0  0.12428  0.58432  0.11881  1.0000
  S   S89       1.0  0.10539  0.58400  0.08490  1.0000
  S   S90       1.0  0.13005  0.55068  0.13862  1.0000
  Fe  Fe46      1.0  0.13420  0.63663  0.11602  1.0000
  S   S91       1.0  0.11575  0.63970  0.08106  1.0000
  S   S92       1.0  0.15336  0.66956  0.12963  1.0000
  Fe  Fe47      1.0  0.08652  0.61553  0.09622  1.0000
  S   S93       1.0  0.04760  0.61210  0.08263  1.0000
  Fe  Fe48      1.0  0.13569  0.60788  0.07236  1.0000
  S   S94       1.0  0.15216  0.59642  0.03890  1.0000
  S   S95       1.0  0.10323  0.61437  0.13176  1.0000
  S   S96       1.0  0.15626  0.60642  0.10582  1.0000
  Fe  Fe49      1.0  0.25829  0.77209  0.22687  1.0000
  S   S97       1.0  0.21821  0.76334  0.23482  1.0000
  S   S98       1.0  0.26514  0.79928  0.19810  1.0000
  Fe  Fe50      1.0  0.22907  0.72622  0.23496  1.0000
  S   S99       1.0  0.20568  0.69457  0.22410  1.0000
  S   S100      1.0  0.26814  0.73473  0.22464  1.0000
  H   H235      1.0  0.36432  0.86129  0.20088  1.0000
  H   H236      1.0  0.18117  0.53887  0.14472  1.0000
  H   H237      1.0  0.13286  0.64178  0.02891  1.0000
  C   C233      1.0  0.17150  0.67321  0.15483  1.0000
  C   C234      1.0  0.18872  0.69191  0.15564  1.0000
  C   C235      1.0  0.20035  0.69806  0.17644  1.0000
  C   C236      1.0  0.19482  0.68556  0.19673  1.0000
  C   C237      1.0  0.17867  0.66607  0.19567  1.0000
  C   C238      1.0  0.16702  0.65994  0.17487  1.0000
  H   H238      1.0  0.19246  0.70220  0.14020  1.0000
  H   H239      1.0  0.21295  0.71292  0.17688  1.0000
  H   H240      1.0  0.17440  0.65613  0.21122  1.0000
  H   H241      1.0  0.15381  0.64554  0.17457  1.0000
  H   H242      1.0  0.15011  0.70113  0.22281  1.0000
  C   C239      1.0  0.02201  0.64089  0.11085  1.0000
  C   C240      1.0  0.02119  0.62514  0.09292  1.0000
  C   C241      1.0  0.07563  0.61353  0.02713  1.0000
  H   H243      1.0  0.03945  0.64613  0.11833  1.0000
  N   N21       1.0  0.44302  0.99588  0.11648  1.0000
  H   H244      1.0  0.00802  0.56860  0.09754  1.0000
  C   C242      1.0  0.12665  0.52415  0.12412  1.0000
  C   C243      1.0  0.12281  0.52370  0.10037  1.0000
  C   C244      1.0  0.18871  0.55529  0.10217  1.0000
  H   H245      1.0  0.12125  0.53960  0.09066  1.0000
  C   C245      1.0  0.36119  0.88494  0.02053  1.0000
  C   C246      1.0  0.31206  0.91442  0.16293  1.0000
  C   C247      1.0  0.30519  0.68213  0.22614  1.0000
  H   H246      1.0  0.39520  0.88071  0.03871  1.0000
  C   C248      1.0  0.45181  0.97782  0.13215  1.0000
  C   C249      1.0  0.37955  0.97762  0.12679  1.0000
  C   C250      1.0  0.36607  0.97782  0.10634  1.0000
  C   C251      1.0  0.48125  0.88472  0.11863  1.0000
  C   C252      1.0  0.43375  0.82655  0.14585  1.0000
  C   C253      1.0  0.17743  0.52158  0.07031  1.0000
  H   H247      1.0  0.36152  0.96177  0.09785  1.0000
  H   H248      1.0  0.43917  0.97570  0.14710  1.0000
  C   C254      1.0  0.33751  0.82797  0.16508  1.0000
  C   C255      1.0  0.31473  0.83412  0.15624  1.0000
  C   C256      1.0  0.29284  0.82513  0.16653  1.0000
  C   C257      1.0  0.29338  0.80970  0.18558  1.0000
  C   C258      1.0  0.31617  0.80345  0.19430  1.0000
  C   C259      1.0  0.33805  0.81258  0.18413  1.0000
  H   H249      1.0  0.31396  0.84587  0.14156  1.0000
  H   H250      1.0  0.27533  0.83003  0.15958  1.0000
  H   H251      1.0  0.31692  0.79165  0.20894  1.0000
  H   H252      1.0  0.35552  0.80766  0.19114  1.0000
  H   H253      1.0  0.29755  0.92316  0.15388  1.0000
  C   C260      1.0  0.48124  0.87942  0.09527  1.0000
  H   H254      1.0  0.00622  0.61579  0.16136  1.0000
  N   N22       1.0  0.34961  0.89154  0.18508  1.0000
  C   C261      1.0  0.35438  0.91268  0.17474  1.0000
  H   H255      1.0  0.32243  0.86522  0.19352  1.0000
  H   H256      1.0  0.10250  0.57708  0.02128  1.0000
  C   C262      1.0  0.38533  0.99858  0.13764  1.0000
  C   C263      1.0  0.46286  0.82420  0.10693  1.0000
  H   H257      1.0  0.38577  0.87926  0.18501  1.0000
  H   H258      1.0  0.37280  0.92043  0.17482  1.0000
  H   H259      1.0  0.18687  0.57970  0.07355  1.0000
  C   C264      1.0  0.33569  0.92447  0.16358  1.0000
  N   N23       1.0  0.18636  0.53261  0.10916  1.0000
  H   H260      1.0  0.17241  0.50826  0.05815  1.0000
  H   H261      1.0  0.37479  0.88858  0.21270  1.0000
  N   N24       1.0  0.14783  0.72096  0.19161  1.0000
  C   C265      1.0  0.16503  0.73738  0.19806  1.0000
  C   C266      1.0  0.14052  0.71960  0.16913  1.0000
  C   C267      1.0  0.17595  0.75256  0.18169  1.0000
  C   C268      1.0  0.15105  0.73449  0.15231  1.0000
  C   C269      1.0  0.16896  0.75099  0.15866  1.0000
  C   C270      1.0  0.13666  0.70520  0.20902  1.0000
  H   H262      1.0  0.17101  0.73827  0.21585  1.0000
  H   H263      1.0  0.12727  0.70628  0.16386  1.0000
  H   H264      1.0  0.19015  0.76509  0.18676  1.0000
  H   H265      1.0  0.14597  0.73258  0.13437  1.0000
  H   H266      1.0  0.17771  0.76227  0.14571  1.0000
  H   H267      1.0  0.13088  0.68841  0.20137  1.0000
  C   C271      1.0  0.50039  0.82701  0.13018  1.0000
  H   H268      1.0  0.12050  0.71314  0.21679  1.0000
  H   H269      1.0  0.39571  0.99856  0.15350  1.0000
  C   C272      1.0  0.32633  0.88187  0.18510  1.0000
  H   H270      1.0  0.07864  0.60454  0.04338  1.0000
  H   H271      1.0  0.17599  0.54969  0.04531  1.0000
  C   C273      1.0  0.36959  0.87964  0.19662  1.0000
  H   H272      1.0  0.25634  0.68262  0.22997  1.0000
  H   H273      1.0  0.33972  0.94106  0.15505  1.0000
  H   H274      1.0  0.19280  0.56864  0.11458  1.0000
  H   H275      1.0  0.47400  0.82396  0.09148  1.0000
  H   H276      1.0  0.28904  0.88487  0.17331  1.0000
  C   C274      1.0  0.30728  0.89300  0.17380  1.0000
  N   N25       1.0  0.28999  0.67177  0.24472  1.0000
  C   C275      1.0  0.38614  0.88038  0.02215  1.0000
  H   H277      1.0  0.42890  0.82164  0.08788  1.0000
  C   C276      1.0  0.42271  0.82387  0.12439  1.0000
  C   C277      1.0  0.45939  0.82790  0.14740  1.0000
  H   H278      1.0  0.06387  0.64429  0.04362  1.0000
  C   C278      1.0  0.43730  0.82283  0.10477  1.0000
  H   H279      1.0  0.21017  0.52659  0.13733  1.0000
  H   H280      1.0  0.47063  0.98231  0.13834  1.0000
  C   C279      1.0  0.18533  0.56166  0.07907  1.0000
  H   H281      1.0  0.42237  0.82767  0.16109  1.0000
  H   H282      1.0  0.42499  0.97191  0.09410  1.0000
  H   H283      1.0  0.46410  0.88725  0.12739  1.0000
  H   H284      1.0  0.32098  0.67121  0.22241  1.0000
  C   C280      1.0  0.35845  0.99889  0.09681  1.0000
  C   C281      1.0  0.18124  0.51576  0.09351  1.0000
  N   N26       1.0  0.47358  0.82678  0.12805  1.0000
  H   H285      1.0  0.45248  0.96086  0.12355  1.0000
  H   H286      1.0  0.29454  0.68416  0.20997  1.0000
  C   C282      1.0  0.06729  0.63608  0.02735  1.0000
  H   H287      1.0  0.18198  0.50907  0.13788  1.0000
  H   H288      1.0  0.01914  0.59042  0.13026  1.0000
  C   C283      1.0  0.19025  0.52642  0.13344  1.0000
  H   H289      1.0  0.40285  0.82285  0.12296  1.0000
  H   H290      1.0  0.31235  0.69950  0.23130  1.0000
  C   C284      1.0  0.17936  0.54472  0.06313  1.0000
  H   H291      1.0  0.34795  0.99897  0.08101  1.0000
  H   H292      1.0  0.46788  0.82996  0.16413  1.0000
  C   C285      1.0  0.42933  0.98994  0.09763  1.0000
  C   C286      1.0  0.26509  0.67388  0.24429  1.0000
  C   C287      1.0  0.14443  0.61076  0.01298  1.0000
  C   C288      1.0  0.13489  0.63284  0.01291  1.0000
  H   H293      1.0  0.33161  0.94027  0.01484  1.0000
  H   H294      1.0  0.37602  0.93446  0.01225  1.0000
  H   H295      1.0  0.40816  0.00233  0.06876  1.0000
  Fe  Fe51      1.0  0.41417  0.62811  0.38344  1.0000
  S   S101      1.0  0.39290  0.61995  0.35120  1.0000
  S   S102      1.0  0.45075  0.64791  0.38441  1.0000
  Fe  Fe52      1.0  0.37669  0.60340  0.41495  1.0000
  S   S103      1.0  0.35241  0.59326  0.38533  1.0000
  S   S104      1.0  0.36744  0.58794  0.45011  1.0000
  Fe  Fe53      1.0  0.38722  0.58443  0.36765  1.0000
  S   S105      1.0  0.39416  0.55137  0.34879  1.0000
  Fe  Fe54      1.0  0.35967  0.62964  0.37149  1.0000
  S   S106      1.0  0.32571  0.64952  0.36073  1.0000
  S   S107      1.0  0.41099  0.59216  0.39814  1.0000
  S   S108      1.0  0.38143  0.64036  0.40283  1.0000
  Fe  Fe55      1.0  0.08705  0.86883  0.38120  1.0000
  S   S109      1.0  0.10111  0.89479  0.35495  1.0000
  S   S110      1.0  0.05100  0.84876  0.37853  1.0000
  Fe  Fe56      1.0  0.13118  0.87642  0.41263  1.0000
  S   S111      1.0  0.14879  0.90340  0.38881  1.0000
  S   S112      1.0  0.14834  0.86295  0.44552  1.0000
  Fe  Fe57      1.0  0.11068  0.91693  0.38521  1.0000
  S   S113      1.0  0.09438  0.95230  0.38798  1.0000
  Fe  Fe58      1.0  0.13775  0.87873  0.36059  1.0000
  S   S114      1.0  0.16230  0.87175  0.32986  1.0000
  S   S115      1.0  0.09410  0.89157  0.41121  1.0000
  S   S116      1.0  0.12281  0.85099  0.38467  1.0000
  C   C289      1.0  0.40661  0.52994  0.41967  1.0000
  H   H296      1.0  0.33079  0.66373  0.48130  1.0000
  H   H297      1.0  0.08449  0.89715  0.28840  1.0000
  H   H298      1.0  0.15804  0.85134  0.49312  1.0000
  S   S117      1.0  0.20571  0.77520  0.30207  1.0000
  H   H299      1.0  0.18092  0.86207  0.40496  1.0000
  C   C290      1.0  0.17306  0.84452  0.32160  1.0000
  C   C291      1.0  0.16716  0.82417  0.33410  1.0000
  C   C292      1.0  0.17677  0.80304  0.32742  1.0000
  C   C293      1.0  0.19239  0.80196  0.30821  1.0000
  C   C294      1.0  0.19806  0.82227  0.29556  1.0000
  C   C295      1.0  0.18843  0.84341  0.30224  1.0000
  H   H300      1.0  0.15551  0.82472  0.34912  1.0000
  H   H301      1.0  0.17238  0.78745  0.33739  1.0000
  H   H302      1.0  0.21015  0.82174  0.28082  1.0000
  H   H303      1.0  0.19313  0.85905  0.29244  1.0000
  C   C296      1.0  0.13482  0.98058  0.37610  1.0000
  C   C297      1.0  0.10992  0.97904  0.38190  1.0000
  N   N27       1.0  0.21960  0.82569  0.36442  1.0000
  H   H304      1.0  0.14505  0.96501  0.37470  1.0000
  H   H305      1.0  0.48324  0.66546  0.31594  1.0000
  H   H306      1.0  0.44402  0.51127  0.37796  1.0000
  C   C298      1.0  0.02539  0.86411  0.36927  1.0000
  Fe  Fe59      1.0  0.22966  0.76409  0.27201  1.0000
  H   H307      1.0  0.06824  0.88127  0.50243  1.0000
  H   H308      1.0  0.04637  0.89342  0.35539  1.0000
  H   H309      1.0  0.40217  0.50473  0.33563  1.0000
  C   C299      1.0  0.12630  0.89607  0.47099  1.0000
  C   C300      1.0  0.14017  0.87625  0.47138  1.0000
  C   C301      1.0  0.14721  0.86664  0.49269  1.0000
  C   C302      1.0  0.21710  0.84876  0.35978  1.0000
  H   H310      1.0  0.12103  0.90379  0.45473  1.0000
  C   C303      1.0  0.30098  0.66117  0.26306  1.0000
  C   C304      1.0  0.32226  0.66963  0.33742  1.0000
  C   C305      1.0  0.34133  0.67533  0.32200  1.0000
  C   C306      1.0  0.33761  0.69110  0.30359  1.0000
  C   C307      1.0  0.31480  0.70129  0.30023  1.0000
  C   C308      1.0  0.29573  0.69564  0.31568  1.0000
  C   C309      1.0  0.29947  0.67992  0.33415  1.0000
  H   H311      1.0  0.35896  0.66762  0.32429  1.0000
  H   H312      1.0  0.35252  0.69536  0.29179  1.0000
  H   H313      1.0  0.27807  0.70328  0.31333  1.0000
  H   H314      1.0  0.28458  0.67567  0.34597  1.0000
  C   C310      1.0  0.36459  0.59474  0.49649  1.0000
  C   C311      1.0  0.37076  0.60476  0.47496  1.0000
  C   C312      1.0  0.37786  0.62819  0.47350  1.0000
  C   C313      1.0  0.42383  0.53082  0.40188  1.0000
  H   H315      1.0  0.38276  0.63605  0.45701  1.0000
  C   C314      1.0  0.38142  0.52462  0.35920  1.0000
  C   C315      1.0  0.36436  0.52348  0.37719  1.0000
  H   H316      1.0  0.02303  0.89323  0.41993  1.0000
  H   H317      1.0  0.35815  0.53924  0.38456  1.0000
  C   C316      1.0  0.08365  0.88076  0.29783  1.0000
  C   C317      1.0  0.26153  0.65412  0.28116  1.0000
  C   C318      1.0  0.47544  0.60835  0.37605  1.0000
  C   C319      1.0  0.47695  0.63096  0.38402  1.0000
  H   H318      1.0  0.33619  0.68713  0.44506  1.0000
  H   H319      1.0  0.45789  0.60076  0.37101  1.0000
  H   H320      1.0  0.08896  0.82160  0.35426  1.0000
  N   N28       1.0  0.31547  0.62266  0.44272  1.0000
  C   C320      1.0  0.31946  0.63273  0.46356  1.0000
  C   C321      1.0  0.31789  0.63549  0.42276  1.0000
  H   H321      1.0  0.35913  0.57661  0.49775  1.0000
  C   C322      1.0  0.32525  0.65888  0.42330  1.0000
  H   H322      1.0  0.09216  0.80450  0.32875  1.0000
  H   H323      1.0  0.03996  0.95590  0.38167  1.0000
  H   H324      1.0  0.31638  0.58984  0.42698  1.0000
  H   H325      1.0  0.31449  0.62762  0.40622  1.0000
  H   H326      1.0  0.12236  0.87497  0.29426  1.0000
  C   C323      1.0  0.20307  0.86216  0.37419  1.0000
  H   H327      1.0  0.32769  0.66879  0.40733  1.0000
  H   H328      1.0  0.04495  0.88201  0.30536  1.0000
  C   C324      1.0  0.00754  0.89726  0.35027  1.0000
  H   H329      1.0  0.43085  0.54729  0.39498  1.0000
  S   S118      1.0  0.26902  0.77513  0.26428  1.0000
  H   H330      1.0  0.23635  0.81961  0.33187  1.0000
  H   H331      1.0  0.20051  0.88029  0.37004  1.0000
  C   C325      1.0  0.06092  0.85139  0.31987  1.0000
  C   C326      1.0  0.19460  0.82842  0.39829  1.0000
  H   H332      1.0  0.22540  0.85685  0.34453  1.0000
  H   H333      1.0  0.38271  0.65996  0.49203  1.0000
  N   N29       1.0  0.08180  0.83927  0.32289  1.0000
  H   H334      1.0  0.22689  0.79418  0.34764  1.0000
  H   H335      1.0  0.25052  0.64766  0.29561  1.0000
  C   C327      1.0  0.08735  0.84954  0.50182  1.0000
  H   H336      1.0  0.31781  0.62256  0.47942  1.0000
  H   H337      1.0  0.21080  0.79724  0.38721  1.0000
  H   H338      1.0  0.40018  0.54582  0.42686  1.0000
  C   C328      1.0  0.02825  0.88566  0.35808  1.0000
  H   H339      1.0  0.07759  0.99834  0.38806  1.0000
  H   H340      1.0  0.25368  0.81092  0.35689  1.0000
  C   C329      1.0  0.43124  0.51028  0.39225  1.0000
  C   C330      1.0  0.32682  0.65608  0.46473  1.0000
  C   C331      1.0  0.23495  0.81199  0.34957  1.0000
  H   H341      1.0  0.12027  0.83823  0.31656  1.0000
  C   C332      1.0  0.10485  0.86831  0.30103  1.0000
  C   C333      1.0  0.48702  0.65788  0.33320  1.0000
  C   C334      1.0  0.20870  0.81550  0.38347  1.0000
  H   H342      1.0  0.18581  0.82038  0.41335  1.0000
  H   H343      1.0  0.47664  0.64105  0.33519  1.0000
  C   C335      1.0  0.30753  0.59823  0.44172  1.0000
  C   C336      1.0  0.08128  0.81794  0.33695  1.0000
  C   C337      1.0  0.02649  0.94337  0.38869  1.0000
  C   C338      1.0  0.11950  0.90619  0.49168  1.0000
  H   H344      1.0  0.28730  0.59662  0.43991  1.0000
  H   H345      1.0  0.31328  0.58848  0.45740  1.0000
  C   C339      1.0  0.32993  0.66915  0.44443  1.0000
  H   H346      1.0  0.06224  0.81079  0.33948  1.0000
  H   H347      1.0  0.10889  0.92162  0.49115  1.0000
  C   C340      1.0  0.06150  0.87228  0.30731  1.0000
  C   C341      1.0  0.37780  0.64170  0.49334  1.0000
  S   S119      1.0  0.23775  0.72609  0.27286  1.0000
  C   C342      1.0  0.28693  0.65198  0.28143  1.0000
  H   H348      1.0  0.47967  0.66923  0.34660  1.0000
  C   C343      1.0  0.10360  0.84753  0.31376  1.0000
  H   H349      1.0  0.05356  0.92254  0.40498  1.0000
  S   S120      1.0  0.31084  0.71988  0.27580  1.0000
  C   C344      1.0  0.19183  0.85189  0.39359  1.0000
  C   C345      1.0  0.03418  0.92453  0.40178  1.0000
  C   C346      1.0  0.25049  0.66509  0.26246  1.0000
  H   H350      1.0  0.04372  0.84516  0.32756  1.0000
  C   C347      1.0  0.01679  0.90813  0.41026  1.0000
  C   C348      1.0  0.49996  0.64079  0.38999  1.0000
  C   C349      1.0  0.14657  0.00242  0.37224  1.0000
  H   H351      1.0  0.00983  0.91394  0.34165  1.0000
  H   H352      1.0  0.09347  0.85211  0.48414  1.0000
  H   H353      1.0  0.10637  0.81790  0.50692  1.0000
  H   H354      1.0  0.49546  0.57838  0.36728  1.0000
  H   H355      1.0  0.29582  0.64411  0.29621  1.0000
  Fe  Fe60      1.0  0.27608  0.73690  0.26274  1.0000
  C   C350      1.0  0.49678  0.59574  0.37382  1.0000
  H   H356      1.0  0.50122  0.65830  0.39614  1.0000
  H   H357      1.0  0.23078  0.66718  0.26210  1.0000
  H   H358      1.0  0.32081  0.66045  0.26395  1.0000
  H   H359      1.0  0.38322  0.50766  0.44101  1.0000
  H   H360      1.0  0.13361  0.99727  0.42606  1.0000
  C   C351      1.0  0.39713  0.50853  0.42767  1.0000
  C   C352      1.0  0.09686  0.99939  0.38361  1.0000
  C   C353      1.0  0.38918  0.50399  0.34971  1.0000
  Fe  Fe61      1.0  0.37262  0.63446  0.57478  1.0000
  S   S121      1.0  0.34831  0.60777  0.59309  1.0000
  S   S122      1.0  0.36874  0.64976  0.53878  1.0000
  Fe  Fe62      1.0  0.40864  0.63736  0.61485  1.0000
  S   S123      1.0  0.38727  0.61121  0.63650  1.0000
  S   S124      1.0  0.44528  0.65299  0.62550  1.0000
  Fe  Fe63      1.0  0.38341  0.59117  0.60389  1.0000
  S   S125      1.0  0.39830  0.55561  0.59805  1.0000
  Fe  Fe64      1.0  0.35400  0.63030  0.62440  1.0000
  S   S126      1.0  0.32190  0.63711  0.64860  1.0000
  S   S127      1.0  0.40702  0.61645  0.58316  1.0000
  S   S128      1.0  0.37598  0.65801  0.60512  1.0000
  Fe  Fe65      1.0  0.10824  0.91782  0.62112  1.0000
  S   S129      1.0  0.10409  0.88365  0.64016  1.0000
  S   S130      1.0  0.09937  0.95172  0.63733  1.0000
  Fe  Fe66      1.0  0.11828  0.89541  0.57481  1.0000
  S   S131      1.0  0.11548  0.85936  0.59006  1.0000
  S   S132      1.0  0.11626  0.90967  0.53826  1.0000
  Fe  Fe67      1.0  0.08264  0.87178  0.60920  1.0000
  S   S133      1.0  0.04602  0.85199  0.60835  1.0000
  Fe  Fe68      1.0  0.13732  0.87384  0.62001  1.0000
  S   S134      1.0  0.17193  0.86014  0.63710  1.0000
  S   S135      1.0  0.08416  0.90653  0.59217  1.0000
  S   S136      1.0  0.14272  0.90930  0.60289  1.0000
  Fe  Fe69      1.0  0.27102  0.73987  0.72819  1.0000
  S   S137      1.0  0.26022  0.77700  0.72305  1.0000
  S   S138      1.0  0.30211  0.72883  0.70470  1.0000
  H   H361      1.0  0.44751  0.60445  0.61552  1.0000
  Fe  Fe70      1.0  0.22151  0.76314  0.72703  1.0000
  S   S139      1.0  0.18892  0.77281  0.70426  1.0000
  H   H362      1.0  0.14584  0.99043  0.67036  1.0000
  S   S140      1.0  0.23206  0.72565  0.73003  1.0000
  N   N30       1.0  0.48279  0.60782  0.56144  1.0000
  H   H363      1.0  0.47483  0.55377  0.66249  1.0000
  C   C354      1.0  0.14760  0.93274  0.67261  1.0000
  C   C355      1.0  0.18442  0.79772  0.68635  1.0000
  C   C356      1.0  0.16140  0.80051  0.67587  1.0000
  C   C357      1.0  0.15710  0.81961  0.66106  1.0000
  C   C358      1.0  0.17593  0.83608  0.65629  1.0000
  C   C359      1.0  0.19897  0.83329  0.66676  1.0000
  C   C360      1.0  0.20318  0.81434  0.68179  1.0000
  H   H364      1.0  0.14675  0.78778  0.67922  1.0000
  H   H365      1.0  0.13930  0.82140  0.65315  1.0000
  H   H366      1.0  0.21369  0.84589  0.66324  1.0000
  H   H367      1.0  0.22096  0.81257  0.68976  1.0000
  N   N31       1.0  0.09781  0.98343  0.57282  1.0000
  C   C361      1.0  0.01966  0.86880  0.60814  1.0000
  C   C362      1.0  0.02143  0.89229  0.61316  1.0000
  H   H368      1.0  0.14921  0.97626  0.69819  1.0000
  H   H369      1.0  0.03899  0.90032  0.61740  1.0000
  C   C363      1.0  0.11514  0.97785  0.62954  1.0000
  C   C364      1.0  0.13777  0.97809  0.61822  1.0000
  C   C365      1.0  0.10517  0.99884  0.63574  1.0000
  H   H370      1.0  0.14577  0.96200  0.61362  1.0000
  C   C366      1.0  0.40059  0.50906  0.60506  1.0000
  C   C367      1.0  0.07616  0.98568  0.58432  1.0000
  C   C368      1.0  0.08712  0.82754  0.53751  1.0000
  H   H371      1.0  0.15398  0.89676  0.66611  1.0000
  H   H372      1.0  0.35978  0.60041  0.53287  1.0000
  H   H373      1.0  0.18432  0.97786  0.65580  1.0000
  C   C369      1.0  0.31702  0.66256  0.66453  1.0000
  C   C370      1.0  0.29639  0.66330  0.67907  1.0000
  C   C371      1.0  0.29171  0.68319  0.69184  1.0000
  C   C372      1.0  0.30762  0.70268  0.69016  1.0000
  C   C373      1.0  0.32822  0.70194  0.67563  1.0000
  C   C374      1.0  0.33292  0.68206  0.66291  1.0000
  H   H374      1.0  0.28400  0.64832  0.68052  1.0000
  H   H375      1.0  0.27578  0.68345  0.70290  1.0000
  H   H376      1.0  0.34069  0.71687  0.67417  1.0000
  H   H377      1.0  0.34885  0.68181  0.65185  1.0000
  C   C375      1.0  0.09465  0.83036  0.51464  1.0000
  C   C376      1.0  0.38814  0.52897  0.61065  1.0000
  C   C377      1.0  0.36761  0.52695  0.62505  1.0000
  H   H378      1.0  0.13047  0.92882  0.68160  1.0000
  H   H379      1.0  0.35794  0.54221  0.62955  1.0000
  H   H380      1.0  0.43073  0.54811  0.66090  1.0000
  C   C378      1.0  0.47001  0.63458  0.62325  1.0000
  C   C379      1.0  0.46596  0.61122  0.61839  1.0000
  C   C380      1.0  0.48984  0.60808  0.67957  1.0000
  H   H381      1.0  0.19271  0.90544  0.64480  1.0000
  N   N32       1.0  0.15610  0.95516  0.66970  1.0000
  H   H382      1.0  0.06079  0.89772  0.54416  1.0000
  H   H383      1.0  0.49716  0.66125  0.63108  1.0000
  C   C381      1.0  0.49398  0.64318  0.62722  1.0000
  C   C382      1.0  0.49914  0.64613  0.56856  1.0000
  H   H384      1.0  0.09114  0.94974  0.55978  1.0000
  C   C383      1.0  0.19100  0.94233  0.64887  1.0000
  C   C384      1.0  0.05080  0.88063  0.54504  1.0000
  C   C385      1.0  0.48572  0.59637  0.61811  1.0000
  C   C386      1.0  0.17758  0.96008  0.65813  1.0000
  C   C387      1.0  0.18250  0.91944  0.65184  1.0000
  N   N33       1.0  0.26226  0.75172  0.66202  1.0000
  C   C388      1.0  0.23844  0.75310  0.66912  1.0000
  C   C389      1.0  0.27093  0.73113  0.65503  1.0000
  C   C390      1.0  0.22263  0.73352  0.66932  1.0000
  C   C391      1.0  0.25564  0.71120  0.65503  1.0000
  C   C392      1.0  0.23136  0.71243  0.66233  1.0000
  C   C393      1.0  0.27908  0.77203  0.66295  1.0000
  H   H385      1.0  0.23157  0.76931  0.67500  1.0000
  H   H386      1.0  0.29005  0.72983  0.65022  1.0000
  H   H387      1.0  0.20387  0.73471  0.67535  1.0000
  H   H388      1.0  0.26288  0.69479  0.65005  1.0000
  H   H389      1.0  0.21946  0.69700  0.66291  1.0000
  H   H390      1.0  0.29166  0.77014  0.67788  1.0000
  H   H391      1.0  0.29023  0.77372  0.64698  1.0000
  H   H392      1.0  0.26907  0.78826  0.66490  1.0000
  H   H393      1.0  0.20788  0.94626  0.63947  1.0000
  C   C394      1.0  0.14289  0.97387  0.68022  1.0000
  H   H394      1.0  0.42888  0.61118  0.66935  1.0000
  C   C395      1.0  0.16070  0.91457  0.66380  1.0000
  C   C396      1.0  0.46666  0.61743  0.67811  1.0000
  H   H395      1.0  0.46069  0.63687  0.56714  1.0000
  C   C397      1.0  0.42865  0.56688  0.65737  1.0000
  H   H396      1.0  0.11183  0.95150  0.58401  1.0000
  N   N34       1.0  0.44952  0.58073  0.66620  1.0000
  C   C398      1.0  0.44660  0.60345  0.67131  1.0000
  H   H397      1.0  0.46633  0.57646  0.54873  1.0000
  H   H398      1.0  0.33969  0.51235  0.58412  1.0000
  C   C399      1.0  0.49267  0.58492  0.67434  1.0000
  C   C400      1.0  0.37115  0.63180  0.51480  1.0000
  H   H399      1.0  0.09280  0.81278  0.54774  1.0000
  C   C401      1.0  0.47222  0.57144  0.66752  1.0000
  H   H400      1.0  0.06669  0.84170  0.56505  1.0000
  H   H401      1.0  0.42710  0.56966  0.63845  1.0000
  H   H402      1.0  0.12191  0.96071  0.55573  1.0000
  N   N35       1.0  0.06577  0.86307  0.53468  1.0000
  H   H403      1.0  0.48242  0.57817  0.61496  1.0000
  C   C402      1.0  0.47915  0.63062  0.56561  1.0000
  H   H404      1.0  0.46438  0.63567  0.68116  1.0000
  H   H405      1.0  0.37397  0.52124  0.55730  1.0000
  H   H406      1.0  0.41117  0.57172  0.66550  1.0000
  H   H407      1.0  0.41659  0.51050  0.59403  1.0000
  C   C403      1.0  0.07243  0.84407  0.54726  1.0000
  H   H408      1.0  0.14554  0.86910  0.52981  1.0000
  H   H409      1.0  0.03304  0.88175  0.53583  1.0000
  H   H410      1.0  0.49612  0.66410  0.57225  1.0000
  H   H411      1.0  0.04668  0.87658  0.56345  1.0000
  C   C404      1.0  0.10611  0.96028  0.56785  1.0000
  C   C405      1.0  0.36498  0.60816  0.51640  1.0000
  C   C406      1.0  0.15041  0.99923  0.61333  1.0000
  H   H412      1.0  0.06545  0.97044  0.59001  1.0000
  H   H413      1.0  0.08774  0.99877  0.64465  1.0000
  H   H414      1.0  0.45461  0.58580  0.57591  1.0000
  H   H415      1.0  0.12968  0.00081  0.55851  1.0000
  C   C407      1.0  0.12627  0.89650  0.51298  1.0000
  C   C408      1.0  0.46156  0.59180  0.55876  1.0000
  C   C409      1.0  0.11203  0.00255  0.56677  1.0000
  H   H416      1.0  0.44647  0.60033  0.54937  1.0000
  H   H417      1.0  0.12276  0.96996  0.68023  1.0000
  C   C410      1.0  0.14016  0.87665  0.51348  1.0000
  H   H418      1.0  0.16804  0.99936  0.60477  1.0000
  C   C411      1.0  0.35926  0.50496  0.63326  1.0000
  C   C412      1.0  0.36626  0.50370  0.55881  1.0000
  C   C413      1.0  0.07303  0.86594  0.51224  1.0000
  Fe  Fe71      1.0  0.39295  0.87956  0.92026  1.0000
  S   S141      1.0  0.40655  0.91412  0.90667  1.0000
  S   S142      1.0  0.40631  0.87070  0.95609  1.0000
  Fe  Fe72      1.0  0.37025  0.86577  0.87363  1.0000
  S   S143      1.0  0.38232  0.89977  0.85674  1.0000
  S   S144      1.0  0.35611  0.83316  0.85529  1.0000
  Fe  Fe73      1.0  0.41801  0.89529  0.87551  1.0000
  S   S145      1.0  0.45481  0.90509  0.85961  1.0000
  Fe  Fe74      1.0  0.36996  0.91581  0.88961  1.0000
  S   S146      1.0  0.34956  0.94884  0.89400  1.0000
  S   S147      1.0  0.40722  0.86047  0.89013  1.0000
  S   S148      1.0  0.35510  0.88213  0.90544  1.0000
  Fe  Fe75      1.0  0.13155  0.57995  0.88919  1.0000
  S   S149      1.0  0.10777  0.58692  0.85862  1.0000
  S   S150      1.0  0.15332  0.54790  0.89529  1.0000
  Fe  Fe76      1.0  0.11700  0.62356  0.91332  1.0000
  S   S151      1.0  0.09191  0.63412  0.88446  1.0000
  S   S152      1.0  0.11848  0.64454  0.94576  1.0000
  Fe  Fe77      1.0  0.07941  0.59673  0.88436  1.0000
  S   S153      1.0  0.04121  0.58001  0.88717  1.0000
  Fe  Fe78      1.0  0.12266  0.62384  0.86110  1.0000
  S   S154      1.0  0.13233  0.64294  0.82724  1.0000
  S   S155      1.0  0.10236  0.58705  0.91485  1.0000
  S   S156      1.0  0.14863  0.61600  0.89009  1.0000
  C   C414      1.0  0.07469  0.52537  0.88569  1.0000
  S   S157      1.0  0.22533  0.70811  0.79972  1.0000
  H   H419      1.0  0.19351  0.63919  0.79074  1.0000
  H   H420      1.0  0.44958  0.89317  0.93162  1.0000
  C   C415      1.0  0.15703  0.66308  0.82104  1.0000
  C   C416      1.0  0.17673  0.66646  0.83616  1.0000
  C   C417      1.0  0.19725  0.68057  0.82943  1.0000
  C   C418      1.0  0.19827  0.69170  0.80765  1.0000
  C   C419      1.0  0.17831  0.68879  0.79275  1.0000
  C   C420      1.0  0.15786  0.67452  0.79941  1.0000
  H   H421      1.0  0.17636  0.65783  0.85285  1.0000
  H   H422      1.0  0.21253  0.68278  0.84115  1.0000
  H   H423      1.0  0.17876  0.69723  0.77596  1.0000
  H   H424      1.0  0.14273  0.67205  0.78756  1.0000
  H   H425      1.0  0.39965  0.88785  0.80635  1.0000
  C   C421      1.0  0.07615  0.61434  0.98628  1.0000
  H   H426      1.0  0.07333  0.56692  0.00960  1.0000
  C   C422      1.0  0.14729  0.59948  0.99205  1.0000
  C   C423      1.0  0.13986  0.60986  0.97122  1.0000
  C   C424      1.0  0.13018  0.63189  0.97116  1.0000
  C   C425      1.0  0.12817  0.64351  0.99201  1.0000
  H   H427      1.0  0.39050  0.85091  0.82155  1.0000
  H   H428      1.0  0.14161  0.60082  0.95523  1.0000
  H   H429      1.0  0.12081  0.66062  0.99205  1.0000
  C   C426      1.0  0.44138  0.82452  0.84053  1.0000
  H   H430      1.0  0.07816  0.54159  0.89438  1.0000
  C   C427      1.0  0.14482  0.52202  0.88135  1.0000
  C   C428      1.0  0.13201  0.52228  0.86051  1.0000
  C   C429      1.0  0.01501  0.59438  0.87756  1.0000
  Fe  Fe79      1.0  0.26110  0.77920  0.76175  1.0000
  H   H431      1.0  0.12671  0.53848  0.85282  1.0000
  H   H432      1.0  0.33737  0.99568  0.90335  1.0000
  H   H433      1.0  0.49875  0.84025  0.89440  1.0000
  S   S158      1.0  0.27289  0.81245  0.78018  1.0000
  C   C430      1.0  0.36561  0.97550  0.88856  1.0000
  C   C431      1.0  0.41992  0.88661  0.80729  1.0000
  C   C432      1.0  0.48101  0.89001  0.86790  1.0000
  H   H434      1.0  0.41368  0.95037  0.97159  1.0000
  N   N36       1.0  0.42715  0.86507  0.81868  1.0000
  C   C433      1.0  0.38851  0.97639  0.87769  1.0000
  C   C434      1.0  0.08406  0.50491  0.89454  1.0000
  H   H435      1.0  0.06622  0.64626  0.96953  1.0000
  H   H436      1.0  0.19086  0.61072  0.77862  1.0000
  H   H437      1.0  0.39679  0.96055  0.87270  1.0000
  C   C435      1.0  0.33387  0.82840  0.83331  1.0000
  C   C436      1.0  0.31754  0.84528  0.82643  1.0000
  C   C437      1.0  0.29939  0.84020  0.80977  1.0000
  C   C438      1.0  0.29737  0.81829  0.79971  1.0000
  C   C439      1.0  0.31403  0.80156  0.80625  1.0000
  C   C440      1.0  0.33209  0.80659  0.82301  1.0000
  H   H438      1.0  0.31861  0.86211  0.83419  1.0000
  H   H439      1.0  0.28664  0.85330  0.80481  1.0000
  H   H440      1.0  0.31274  0.78464  0.79868  1.0000
  H   H441      1.0  0.34462  0.79338  0.82818  1.0000
  C   C441      1.0  0.38827  0.87556  0.98061  1.0000
  C   C442      1.0  0.36580  0.93771  0.99656  1.0000
  C   C443      1.0  0.36329  0.88005  0.97891  1.0000
  H   H442      1.0  0.42741  0.88773  0.78953  1.0000
  H   H443      1.0  0.35440  0.87999  0.96228  1.0000
  N   N37       1.0  0.37708  0.93735  0.97554  1.0000
  C   C444      1.0  0.01682  0.61323  0.86216  1.0000
  H   H444      1.0  0.32858  0.94755  0.94098  1.0000
  N   N38       1.0  0.08030  0.60310  0.00678  1.0000
  C   C445      1.0  0.34972  0.88442  0.99888  1.0000
  C   C446      1.0  0.32705  0.94456  0.97808  1.0000
  Fe  Fe80      1.0  0.23472  0.73155  0.76831  1.0000
  C   C447      1.0  0.49736  0.86238  0.95134  1.0000
  H   H445      1.0  0.42711  0.90171  0.81710  1.0000
  H   H446      1.0  0.21777  0.63185  0.82359  1.0000
  C   C448      1.0  0.40982  0.84839  0.82486  1.0000
  H   H447      1.0  0.09534  0.50522  0.90991  1.0000
  H   H448      1.0  0.46121  0.86114  0.88399  1.0000
  C   C449      1.0  0.40047  0.99786  0.87271  1.0000
  H   H449      1.0  0.33040  0.88782  0.99751  1.0000
  C   C450      1.0  0.45896  0.84146  0.83385  1.0000
  H   H450      1.0  0.03464  0.61941  0.85596  1.0000
  N   N39       1.0  0.23955  0.78698  0.82784  1.0000
  C   C451      1.0  0.25801  0.79851  0.83928  1.0000
  C   C452      1.0  0.24050  0.76368  0.82461  1.0000
  C   C453      1.0  0.27784  0.78661  0.84830  1.0000
  C   C454      1.0  0.26026  0.75131  0.83302  1.0000
  C   C455      1.0  0.27903  0.76289  0.84495  1.0000
  C   C456      1.0  0.21933  0.79996  0.81801  1.0000
  H   H451      1.0  0.25784  0.81713  0.84094  1.0000
  H   H452      1.0  0.22607  0.75451  0.81531  1.0000
  H   H453      1.0  0.29264  0.79593  0.85702  1.0000
  H   H454      1.0  0.26104  0.73290  0.82998  1.0000
  H   H455      1.0  0.29465  0.75358  0.85125  1.0000
  H   H456      1.0  0.21344  0.81333  0.83004  1.0000
  H   H457      1.0  0.22542  0.80859  0.80160  1.0000
  H   H458      1.0  0.20309  0.78847  0.81433  1.0000
  C   C457      1.0  0.41666  0.82793  0.83594  1.0000
  C   C458      1.0  0.46836  0.88830  0.93457  1.0000
  H   H459      1.0  0.00579  0.64220  0.90280  1.0000
  H   H460      1.0  0.30745  0.94697  0.97904  1.0000
  C   C459      1.0  0.34059  0.94106  0.99815  1.0000
  H   H461      1.0  0.05401  0.54090  0.85830  1.0000
  H   H462      1.0  0.16392  0.62530  0.78815  1.0000
  C   C460      1.0  0.40345  0.93358  0.97406  1.0000
  C   C461      1.0  0.06370  0.64794  0.00655  1.0000
  C   C462      1.0  0.36403  0.94120  0.95581  1.0000
  C   C463      1.0  0.47906  0.86864  0.87959  1.0000
  H   H463      1.0  0.15483  0.58245  0.99197  1.0000
  S   S159      1.0  0.22129  0.76777  0.76540  1.0000
  H   H464      1.0  0.46515  0.87517  0.81838  1.0000
  C   C464      1.0  0.47310  0.86882  0.94811  1.0000
  N   N40       1.0  0.18599  0.61130  0.81480  1.0000
  C   C465      1.0  0.20505  0.61787  0.82883  1.0000
  C   C466      1.0  0.16980  0.59385  0.82152  1.0000
  C   C467      1.0  0.20810  0.60700  0.85034  1.0000
  C   C468      1.0  0.17256  0.58236  0.84273  1.0000
  C   C469      1.0  0.19179  0.58903  0.85722  1.0000
  C   C470      1.0  0.18353  0.62209  0.79191  1.0000
  H   H465      1.0  0.45799  0.85870  0.95591  1.0000
  H   H466      1.0  0.37299  0.94133  0.93914  1.0000
  H   H467      1.0  0.40274  0.81499  0.84121  1.0000
  H   H468      1.0  0.15976  0.56851  0.84805  1.0000
  H   H469      1.0  0.19377  0.58043  0.87388  1.0000
  H   H470      1.0  0.08019  0.60628  0.97008  1.0000
  C   C471      1.0  0.06119  0.52498  0.86532  1.0000
  C   C472      1.0  0.50033  0.85680  0.88543  1.0000
  H   H471      1.0  0.22291  0.61255  0.86162  1.0000
  H   H472      1.0  0.15446  0.58891  0.81057  1.0000
  H   H473      1.0  0.47823  0.83920  0.83764  1.0000
  H   H474      1.0  0.40738  0.92218  0.95945  1.0000
  C   C473      1.0  0.45146  0.86175  0.82288  1.0000
  C   C474      1.0  0.39954  0.87551  0.00230  1.0000
  C   C475      1.0  0.06807  0.63701  0.98585  1.0000
  H   H475      1.0  0.44687  0.80889  0.84944  1.0000
  C   C476      1.0  0.48782  0.90120  0.92456  1.0000
  H   H476      1.0  0.41793  0.99838  0.86384  1.0000
  C   C477      1.0  0.08903  0.57945  0.00710  1.0000
  H   H477      1.0  0.41884  0.87199  0.00378  1.0000
  C   C478      1.0  0.33883  0.94479  0.95676  1.0000
  H   H478      1.0  0.41027  0.92465  0.98980  1.0000
  C   C479      1.0  0.35505  0.99623  0.89486  1.0000
  S   S160      1.0  0.27473  0.74335  0.76670  1.0000
  H   H479      1.0  0.50091  0.84714  0.96181  1.0000
  H   H480      1.0  0.09873  0.57567  0.99085  1.0000
  H   H481      1.0  0.05784  0.66564  0.00648  1.0000
  H   H482      1.0  0.48423  0.91601  0.91345  1.0000
  C   C480      1.0  0.05727  0.50405  0.85402  1.0000
  H   H483      1.0  0.04707  0.50394  0.83801  1.0000
  Fe  Fe81      1.0  0.58490  0.12156  0.10964  1.0000
  S   S161      1.0  0.61936  0.14366  0.10504  1.0000
  S   S162      1.0  0.54930  0.13823  0.10040  1.0000
  Fe  Fe82      1.0  0.61307  0.07860  0.12271  1.0000
  S   S163      1.0  0.64976  0.09732  0.11883  1.0000
  S   S164      1.0  0.60651  0.04232  0.13729  1.0000
  Fe  Fe83      1.0  0.63276  0.12655  0.13752  1.0000
  S   S165      1.0  0.64778  0.14283  0.17056  1.0000
  Fe  Fe84      1.0  0.63311  0.11280  0.08659  1.0000
  S   S166      1.0  0.65309  0.11841  0.05250  1.0000
  S   S167      1.0  0.59691  0.10665  0.14337  1.0000
  S   S168      1.0  0.59775  0.09188  0.08931  1.0000
  Fe  Fe85      1.0  0.90261  0.39060  0.07541  1.0000
  S   S169      1.0  0.91287  0.36717  0.10503  1.0000
  S   S170      1.0  0.91853  0.38574  0.03970  1.0000
  Fe  Fe86      1.0  0.87799  0.42435  0.10732  1.0000
  S   S171      1.0  0.88650  0.40387  0.13949  1.0000
  S   S172      1.0  0.85576  0.45663  0.10486  1.0000
  Fe  Fe87      1.0  0.92369  0.39992  0.12303  1.0000
  S   S173      1.0  0.96006  0.40689  0.14114  1.0000
  Fe  Fe88      1.0  0.87495  0.37260  0.11917  1.0000
  S   S174      1.0  0.84879  0.34249  0.13032  1.0000
  S   S175      1.0  0.91576  0.42303  0.09273  1.0000
  S   S176      1.0  0.86391  0.39343  0.08773  1.0000
  Fe  Fe89      1.0  0.77587  0.28018  0.23682  1.0000
  S   S177      1.0  0.73463  0.27951  0.23381  1.0000
  S   S178      1.0  0.80112  0.31150  0.22728  1.0000
  Fe  Fe90      1.0  0.73778  0.24255  0.22269  1.0000
  S   S179      1.0  0.71991  0.22985  0.18939  1.0000
  S   S180      1.0  0.77913  0.24440  0.22351  1.0000
  C   C481      1.0  0.86844  0.48347  0.11405  1.0000
  H   H484      1.0  0.70102  0.13081  0.18092  1.0000
  H   H485      1.0  0.72089  0.13222  0.21866  1.0000
  H   H486      1.0  0.00303  0.35064  0.09535  1.0000
  C   C482      1.0  0.88834  0.48464  0.12922  1.0000
  H   H487      1.0  0.96792  0.43661  0.09281  1.0000
  H   H488      1.0  0.89671  0.46891  0.13507  1.0000
  C   C483      1.0  0.98619  0.39326  0.13091  1.0000
  C   C484      1.0  0.98396  0.37485  0.11580  1.0000
  H   H489      1.0  0.96601  0.36837  0.11068  1.0000
  H   H490      1.0  0.55618  0.12428  0.19996  1.0000
  C   C485      1.0  0.83711  0.33335  0.15778  1.0000
  C   C486      1.0  0.84323  0.34495  0.17798  1.0000
  C   C487      1.0  0.83216  0.33792  0.19908  1.0000
  C   C488      1.0  0.81500  0.31914  0.20031  1.0000
  C   C489      1.0  0.80920  0.30732  0.18018  1.0000
  C   C490      1.0  0.82014  0.31444  0.15907  1.0000
  H   H491      1.0  0.85624  0.35952  0.17729  1.0000
  H   H492      1.0  0.83683  0.34719  0.21454  1.0000
  H   H493      1.0  0.79605  0.29286  0.18080  1.0000
  H   H494      1.0  0.81525  0.30532  0.14357  1.0000
  H   H495      1.0  0.99114  0.38356  0.04806  1.0000
  C   C491      1.0  0.75833  0.18608  0.19685  1.0000
  C   C492      1.0  0.73146  0.14730  0.21241  1.0000
  H   H496      1.0  0.86571  0.38659  0.03130  1.0000
  C   C493      1.0  0.75821  0.18032  0.22026  1.0000
  C   C494      1.0  0.61397  0.01820  0.12099  1.0000
  C   C495      1.0  0.62797  0.02070  0.10088  1.0000
  C   C496      1.0  0.60880  0.16106  0.03851  1.0000
  H   H497      1.0  0.63391  0.03777  0.09474  1.0000
  H   H498      1.0  0.78289  0.36740  0.10066  1.0000
  H   H499      1.0  0.84957  0.28714  0.22729  1.0000
  H   H500      1.0  0.60514  0.09748  0.04165  1.0000
  H   H501      1.0  0.76811  0.20165  0.19064  1.0000
  C   C497      1.0  0.66654  0.16803  0.17539  1.0000
  C   C498      1.0  0.67561  0.18226  0.15737  1.0000
  C   C499      1.0  0.69155  0.20133  0.16206  1.0000
  C   C500      1.0  0.69862  0.20642  0.18475  1.0000
  C   C501      1.0  0.68941  0.19228  0.20279  1.0000
  C   C502      1.0  0.67343  0.17323  0.19811  1.0000
  H   H502      1.0  0.67056  0.17846  0.13981  1.0000
  H   H503      1.0  0.69860  0.21215  0.14798  1.0000
  H   H504      1.0  0.69470  0.19596  0.22031  1.0000
  H   H505      1.0  0.66655  0.16233  0.21219  1.0000
  C   C503      1.0  0.82107  0.41990  0.14452  1.0000
  C   C504      1.0  0.52167  0.12547  0.11115  1.0000
  C   C505      1.0  0.52154  0.11002  0.12997  1.0000
  H   H506      1.0  0.82966  0.43713  0.14479  1.0000
  H   H507      1.0  0.53869  0.10443  0.13716  1.0000
  H   H508      1.0  0.81540  0.36303  0.09834  1.0000
  H   H509      1.0  0.80249  0.38870  0.08618  1.0000
  H   H510      1.0  0.82049  0.41885  0.10769  1.0000
  S   S181      1.0  0.73455  0.22750  0.25856  1.0000
  C   C506      1.0  0.81563  0.40785  0.16503  1.0000
  H   H511      1.0  0.74464  0.17718  0.16350  1.0000
  H   H512      1.0  0.58569  0.14499  0.06455  1.0000
  H   H513      1.0  0.64430  0.30254  0.25745  1.0000
  C   C507      1.0  0.53752  0.14495  0.17448  1.0000
  C   C508      1.0  0.58737  0.14949  0.04643  1.0000
  C   C509      1.0  0.55814  0.13734  0.18637  1.0000
  C   C510      1.0  0.81589  0.40941  0.12352  1.0000
  H   H514      1.0  0.81997  0.41564  0.18141  1.0000
  C   C511      1.0  0.80023  0.37557  0.14300  1.0000
  H   H515      1.0  0.71274  0.14823  0.15756  1.0000
  C   C512      1.0  0.58136  0.14648  0.18040  1.0000
  C   C513      1.0  0.63761  0.11316  0.02619  1.0000
  C   C514      1.0  0.80133  0.37617  0.10092  1.0000
  H   H516      1.0  0.60188  0.16941  0.15731  1.0000
  N   N41       1.0  0.73156  0.15317  0.18947  1.0000
  N   N42       1.0  0.54003  0.16101  0.15695  1.0000
  H   H517      1.0  0.53538  0.14218  0.04944  1.0000
  C   C515      1.0  0.74490  0.17220  0.18158  1.0000
  C   C516      1.0  0.58377  0.16270  0.16239  1.0000
  N   N43       1.0  0.80562  0.38750  0.12297  1.0000
  C   C517      1.0  0.54733  0.13029  0.04021  1.0000
  C   C518      1.0  0.80498  0.38560  0.16431  1.0000
  H   H518      1.0  0.51952  0.13772  0.17917  1.0000
  C   C519      1.0  0.87506  0.38642  0.01490  1.0000
  N   N44       1.0  0.56921  0.14303  0.03140  1.0000
  H   H519      1.0  0.74444  0.15638  0.24639  1.0000
  H   H520      1.0  0.72998  0.12404  0.16788  1.0000
  C   C520      1.0  0.97674  0.40988  0.06924  1.0000
  H   H521      1.0  0.55267  0.11637  0.05253  1.0000
  C   C521      1.0  0.74470  0.16083  0.22816  1.0000
  H   H522      1.0  0.85556  0.24473  0.22975  1.0000
  H   H523      1.0  0.53663  0.12189  0.02622  1.0000
  C   C522      1.0  0.85136  0.25416  0.24511  1.0000
  H   H524      1.0  0.79293  0.35789  0.14258  1.0000
  H   H525      1.0  0.52170  0.17347  0.12703  1.0000
  C   C523      1.0  0.90068  0.38616  0.01424  1.0000
  C   C524      1.0  0.98244  0.42782  0.08419  1.0000
  H   H526      1.0  0.80108  0.37584  0.18013  1.0000
  H   H527      1.0  0.56481  0.18219  0.13658  1.0000
  C   C525      1.0  0.61382  0.10332  0.02584  1.0000
  H   H528      1.0  0.95775  0.40480  0.06590  1.0000
  C   C526      1.0  0.71828  0.13829  0.17317  1.0000
  H   H529      1.0  0.59759  0.14057  0.18927  1.0000
  C   C527      1.0  0.56278  0.16981  0.15077  1.0000
  C   C528      1.0  0.51815  0.16989  0.14564  1.0000
  H   H530      1.0  0.62374  0.16496  0.05031  1.0000
  H   H531      1.0  0.84227  0.50326  0.09498  1.0000
  C   C529      1.0  0.99558  0.39795  0.05918  1.0000
  C   C530      1.0  0.84806  0.27792  0.24373  1.0000
  C   C531      1.0  0.61142  0.16627  0.01508  1.0000
  H   H532      1.0  0.51270  0.18602  0.15391  1.0000
  H   H533      1.0  0.76839  0.19106  0.23231  1.0000
  Fe  Fe91      1.0  0.62373  0.41558  0.39238  1.0000
  S   S182      1.0  0.59491  0.39143  0.40801  1.0000
  S   S183      1.0  0.61695  0.45178  0.40444  1.0000
  Fe  Fe92      1.0  0.64889  0.37592  0.36862  1.0000
  S   S184      1.0  0.62200  0.34907  0.38297  1.0000
  S   S185      1.0  0.67952  0.36908  0.34299  1.0000
  Fe  Fe93      1.0  0.59341  0.37464  0.37388  1.0000
  S   S186      1.0  0.55797  0.36187  0.35766  1.0000
  Fe  Fe94      1.0  0.62568  0.36828  0.41621  1.0000
  S   S187      1.0  0.62344  0.34935  0.45070  1.0000
  S   S188      1.0  0.61971  0.40051  0.35716  1.0000
  S   S189      1.0  0.65504  0.39335  0.40287  1.0000
  Fe  Fe95      1.0  0.87470  0.09927  0.41847  1.0000
  S   S190      1.0  0.88218  0.13617  0.40758  1.0000
  S   S191      1.0  0.86184  0.08455  0.45302  1.0000
  Fe  Fe96      1.0  0.89167  0.08104  0.37243  1.0000
  S   S192      1.0  0.90030  0.11683  0.35747  1.0000
  S   S193      1.0  0.90378  0.04862  0.35495  1.0000
  Fe  Fe97      1.0  0.91703  0.12368  0.39213  1.0000
  S   S194      1.0  0.95391  0.14052  0.40063  1.0000
  Fe  Fe98      1.0  0.86450  0.12666  0.37369  1.0000
  S   S195      1.0  0.83379  0.15069  0.36246  1.0000
  S   S196      1.0  0.91072  0.08762  0.40584  1.0000
  S   S197      1.0  0.85466  0.09006  0.38587  1.0000
  C   C532      1.0  0.54149  0.34363  0.41542  1.0000
  H   H534      1.0  0.54386  0.33222  0.40106  1.0000
  H   H535      1.0  0.64911  0.41837  0.49358  1.0000
  C   C533      1.0  0.52025  0.35631  0.41719  1.0000
  S   S198      1.0  0.70624  0.27336  0.29767  1.0000
  H   H536      1.0  0.81758  0.23825  0.30955  1.0000
  C   C534      1.0  0.98038  0.13345  0.38523  1.0000
  C   C535      1.0  0.60871  0.32209  0.31754  1.0000
  C   C536      1.0  0.86363  0.08903  0.49984  1.0000
  H   H537      1.0  0.96119  0.12272  0.35468  1.0000
  H   H538      1.0  0.54457  0.49584  0.38818  1.0000
  C   C537      1.0  0.82565  0.16511  0.33625  1.0000
  C   C538      1.0  0.83822  0.16225  0.31558  1.0000
  C   C539      1.0  0.83073  0.17384  0.29527  1.0000
  C   C540      1.0  0.81070  0.18853  0.29532  1.0000
  C   C541      1.0  0.79822  0.19151  0.31601  1.0000
  C   C542      1.0  0.80564  0.17984  0.33629  1.0000
  H   H539      1.0  0.85359  0.15097  0.31520  1.0000
  H   H540      1.0  0.84054  0.17134  0.27940  1.0000
  H   H541      1.0  0.78274  0.20267  0.31640  1.0000
  H   H542      1.0  0.79570  0.18218  0.35213  1.0000
  H   H543      1.0  0.63836  0.37383  0.30696  1.0000
  C   C543      1.0  0.63331  0.35561  0.30546  1.0000
  C   C544      1.0  0.89004  0.02137  0.36279  1.0000
  C   C545      1.0  0.64651  0.34166  0.29089  1.0000
  H   H544      1.0  0.99915  0.11283  0.33390  1.0000
  C   C546      1.0  0.62121  0.35594  0.49731  1.0000
  H   H545      1.0  0.85916  0.03505  0.38029  1.0000
  C   C547      1.0  0.97889  0.12488  0.36292  1.0000
  H   H546      1.0  0.66167  0.34942  0.28102  1.0000
  C   C548      1.0  0.86676  0.10031  0.47836  1.0000
  C   C549      1.0  0.87204  0.12412  0.47748  1.0000
  H   H547      1.0  0.84667  0.22468  0.30784  1.0000
  C   C550      1.0  0.51364  0.41109  0.38095  1.0000
  H   H548      1.0  0.87447  0.13296  0.46102  1.0000
  C   C551      1.0  0.53203  0.37792  0.36394  1.0000
  H   H549      1.0  0.56646  0.45924  0.38478  1.0000
  C   C552      1.0  0.53454  0.39897  0.37520  1.0000
  H   H550      1.0  0.57661  0.33671  0.43060  1.0000
  H   H551      1.0  0.55258  0.40597  0.37941  1.0000
  C   C553      1.0  0.62739  0.36586  0.47571  1.0000
  C   C554      1.0  0.63705  0.38854  0.47444  1.0000
  C   C555      1.0  0.65443  0.30415  0.27392  1.0000
  C   C556      1.0  0.87298  0.13670  0.49790  1.0000
  H   H552      1.0  0.67316  0.31161  0.27031  1.0000
  H   H553      1.0  0.64184  0.39633  0.45789  1.0000
  C   C557      1.0  0.64112  0.40099  0.49467  1.0000
  H   H554      1.0  0.65974  0.47458  0.43282  1.0000
  C   C558      1.0  0.68786  0.34204  0.33181  1.0000
  C   C559      1.0  0.70617  0.34169  0.31475  1.0000
  C   C560      1.0  0.71250  0.32082  0.30451  1.0000
  C   C561      1.0  0.70060  0.29995  0.31127  1.0000
  C   C562      1.0  0.68240  0.30028  0.32845  1.0000
  C   C563      1.0  0.67604  0.32116  0.33865  1.0000
  H   H555      1.0  0.71544  0.35773  0.30930  1.0000
  H   H556      1.0  0.72645  0.32090  0.29127  1.0000
  H   H557      1.0  0.67305  0.28426  0.33381  1.0000
  H   H558      1.0  0.66193  0.32110  0.35173  1.0000
  H   H559      1.0  0.85954  0.07060  0.50064  1.0000
  C   C564      1.0  0.62624  0.47804  0.39084  1.0000
  C   C565      1.0  0.64294  0.47935  0.37257  1.0000
  H   H560      1.0  0.61804  0.29022  0.30203  1.0000
  H   H561      1.0  0.65047  0.46371  0.36608  1.0000
  H   H562      1.0  0.66235  0.48156  0.46287  1.0000
  H   H563      1.0  0.83296  0.28662  0.29936  1.0000
  Fe  Fe99      1.0  0.73435  0.26481  0.27001  1.0000
  H   H564      1.0  0.60371  0.49747  0.41330  1.0000
  S   S199      1.0  0.80259  0.20309  0.26920  1.0000
  C   C566      1.0  0.00040  0.11938  0.35117  1.0000
  N   N45       1.0  0.64103  0.31845  0.28984  1.0000
  C   C567      1.0  0.86795  0.01957  0.37505  1.0000
  H   H565      1.0  0.59404  0.31433  0.32805  1.0000
  H   H566      1.0  0.50642  0.35288  0.34957  1.0000
  C   C568      1.0  0.55991  0.34626  0.43189  1.0000
  S   S200      1.0  0.77550  0.26776  0.27405  1.0000
  N   N46       1.0  0.80791  0.10855  0.43167  1.0000
  C   C569      1.0  0.81202  0.12593  0.41567  1.0000
  C   C570      1.0  0.81030  0.11285  0.45463  1.0000
  C   C571      1.0  0.81854  0.14834  0.42253  1.0000
  C   C572      1.0  0.81662  0.13509  0.46211  1.0000
  C   C573      1.0  0.82090  0.15290  0.44591  1.0000
  C   C574      1.0  0.80213  0.08489  0.42430  1.0000
  H   H567      1.0  0.81062  0.12251  0.39742  1.0000
  H   H568      1.0  0.80826  0.09884  0.46726  1.0000
  H   H569      1.0  0.63296  0.48161  0.44831  1.0000
  H   H570      1.0  0.81912  0.13824  0.48033  1.0000
  H   H571      1.0  0.58531  0.45493  0.36045  1.0000
  H   H572      1.0  0.78715  0.07680  0.43499  1.0000
  H   H573      1.0  0.79616  0.08446  0.40602  1.0000
  H   H574      1.0  0.81868  0.07434  0.42613  1.0000
  H   H575      1.0  0.55248  0.45668  0.35661  1.0000
  H   H576      1.0  0.87619  0.15525  0.49704  1.0000
  C   C575      1.0  0.83765  0.24161  0.30738  1.0000
  C   C576      1.0  0.61669  0.49836  0.39920  1.0000
  H   H577      1.0  0.59824  0.48681  0.33623  1.0000
  C   C577      1.0  0.61426  0.34573  0.31879  1.0000
  C   C578      1.0  0.50848  0.36913  0.35836  1.0000
  H   H578      1.0  0.94653  0.06924  0.37685  1.0000
  C   C579      1.0  0.56863  0.46373  0.36617  1.0000
  N   N47       1.0  0.84228  0.25420  0.28558  1.0000
  H   H579      1.0  0.65708  0.28660  0.28149  1.0000
  H   H580      1.0  0.60396  0.35632  0.33026  1.0000
  C   C580      1.0  0.62233  0.30862  0.30283  1.0000
  C   C581      1.0  0.65025  0.50108  0.36297  1.0000
  H   H581      1.0  0.95644  0.03992  0.34032  1.0000
  C   C582      1.0  0.55707  0.36172  0.44971  1.0000
  C   C583      1.0  0.65293  0.48591  0.44649  1.0000
  H   H582      1.0  0.82220  0.16193  0.40969  1.0000
  C   C584      1.0  0.53571  0.37436  0.45079  1.0000
  H   H583      1.0  0.95259  0.07001  0.33358  1.0000
  C   C585      1.0  0.96641  0.05688  0.33782  1.0000
  N   N48       1.0  0.97955  0.06310  0.35894  1.0000
  H   H584      1.0  0.82645  0.17009  0.45143  1.0000
  H   H585      1.0  0.97894  0.05600  0.32283  1.0000
  H   H586      1.0  0.57162  0.36415  0.46232  1.0000
  H   H587      1.0  0.51573  0.42739  0.38964  1.0000
  C   C586      1.0  0.96636  0.06905  0.37775  1.0000
  N   N49       1.0  0.57118  0.48887  0.36257  1.0000
  H   H588      1.0  0.84477  0.25166  0.32218  1.0000
  H   H589      1.0  0.92867  0.11311  0.50750  1.0000
  H   H590      1.0  0.96768  0.08160  0.41248  1.0000
  C   C587      1.0  0.97822  0.07571  0.39803  1.0000
  H   H591      1.0  0.53381  0.38660  0.46450  1.0000
  H   H592      1.0  0.50610  0.35421  0.40424  1.0000
  H   H593      1.0  0.61365  0.33841  0.49840  1.0000
  C   C588      1.0  0.55718  0.50306  0.37527  1.0000
  C   C589      1.0  0.58692  0.49799  0.34614  1.0000
  N   N50       1.0  0.51756  0.37143  0.43472  1.0000
  C   C590      1.0  0.83877  0.27747  0.28433  1.0000
  H   H594      1.0  0.66337  0.50211  0.34898  1.0000
  H   H595      1.0  0.85064  0.22395  0.26716  1.0000
  C   C591      1.0  0.84850  0.24252  0.26633  1.0000
  H   H596      1.0  0.83857  0.30808  0.26237  1.0000
  C   C592      1.0  0.84189  0.28970  0.26348  1.0000
  Fe  Fe100     1.0  0.77574  0.23164  0.26039  1.0000
  Fe  Fe101     1.0  0.61915  0.41923  0.62206  1.0000
  S   S201      1.0  0.61332  0.38539  0.64141  1.0000
  S   S202      1.0  0.61024  0.45228  0.63993  1.0000
  Fe  Fe102     1.0  0.63056  0.39544  0.57711  1.0000
  S   S203      1.0  0.62540  0.35967  0.59268  1.0000
  S   S204      1.0  0.64279  0.40667  0.54119  1.0000
  Fe  Fe103     1.0  0.59234  0.37430  0.60990  1.0000
  S   S205      1.0  0.55567  0.35508  0.61503  1.0000
  Fe  Fe104     1.0  0.64676  0.37350  0.62305  1.0000
  S   S206      1.0  0.68117  0.35785  0.63891  1.0000
  S   S207      1.0  0.59606  0.40886  0.59193  1.0000
  S   S208      1.0  0.65420  0.40853  0.60613  1.0000
  Fe  Fe105     1.0  0.86465  0.12718  0.63064  1.0000
  S   S209      1.0  0.85550  0.10193  0.60235  1.0000
  S   S210      1.0  0.83427  0.13382  0.65672  1.0000
  Fe  Fe106     1.0  0.91868  0.13228  0.61533  1.0000
  S   S211      1.0  0.91332  0.10819  0.58609  1.0000
  S   S212      1.0  0.95619  0.14945  0.62070  1.0000
  Fe  Fe107     1.0  0.87833  0.12632  0.57959  1.0000
  S   S213      1.0  0.87035  0.14210  0.54448  1.0000
  Fe  Fe108     1.0  0.89139  0.08588  0.61128  1.0000
  S   S214      1.0  0.90365  0.04911  0.61638  1.0000
  S   S215      1.0  0.88518  0.15249  0.60723  1.0000
  S   S216      1.0  0.89898  0.10912  0.64119  1.0000
  Fe  Fe109     1.0  0.72560  0.25906  0.72785  1.0000
  S   S217      1.0  0.76381  0.27451  0.72651  1.0000
  S   S218      1.0  0.69299  0.27014  0.70611  1.0000
  C   C593      1.0  0.86552  0.10149  0.52034  1.0000
  H   H597      1.0  0.98753  0.14736  0.67322  1.0000
  C   C594      1.0  0.55021  0.42000  0.64121  1.0000
  Fe  Fe110     1.0  0.77617  0.23757  0.72823  1.0000
  S   S219      1.0  0.80711  0.22886  0.70360  1.0000
  H   H598      1.0  0.55857  0.46883  0.63133  1.0000
  S   S220      1.0  0.73781  0.22230  0.72697  1.0000
  C   C595      1.0  0.82397  0.05656  0.65486  1.0000
  H   H599      1.0  0.86295  0.09267  0.53681  1.0000
  C   C596      1.0  0.86442  0.03030  0.66424  1.0000
  C   C597      1.0  0.88625  0.02328  0.61191  1.0000
  H   H600      1.0  0.68611  0.37668  0.52052  1.0000
  H   H601      1.0  0.79857  0.25254  0.65754  1.0000
  H   H602      1.0  0.68132  0.38669  0.71042  1.0000
  C   C598      1.0  0.97058  0.11998  0.55044  1.0000
  H   H603      1.0  0.59487  0.49807  0.64911  1.0000
  H   H604      1.0  0.72279  0.40249  0.55823  1.0000
  H   H605      1.0  0.85215  0.03936  0.60423  1.0000
  C   C599      1.0  0.98150  0.13217  0.61561  1.0000
  C   C600      1.0  0.97827  0.10839  0.61246  1.0000
  H   H606      1.0  0.72720  0.31137  0.75935  1.0000
  H   H607      1.0  0.96007  0.10032  0.61314  1.0000
  C   C601      1.0  0.51269  0.40161  0.65549  1.0000
  C   C602      1.0  0.82725  0.16039  0.66983  1.0000
  C   C603      1.0  0.80726  0.16084  0.68516  1.0000
  C   C604      1.0  0.80104  0.18148  0.69596  1.0000
  C   C605      1.0  0.81482  0.20197  0.69160  1.0000
  C   C606      1.0  0.83472  0.20154  0.67619  1.0000
  C   C607      1.0  0.84091  0.18092  0.66538  1.0000
  H   H608      1.0  0.79656  0.14508  0.68878  1.0000
  H   H609      1.0  0.78562  0.18150  0.70767  1.0000
  H   H610      1.0  0.84548  0.21727  0.67260  1.0000
  H   H611      1.0  0.85633  0.18091  0.65367  1.0000
  C   C608      1.0  0.52842  0.36911  0.60745  1.0000
  C   C609      1.0  0.53815  0.40172  0.65317  1.0000
  C   C610      1.0  0.52928  0.38976  0.59456  1.0000
  H   H612      1.0  0.97840  0.10558  0.66769  1.0000
  H   H613      1.0  0.54650  0.39662  0.58786  1.0000
  C   C611      1.0  0.68412  0.33289  0.65691  1.0000
  C   C612      1.0  0.70739  0.32788  0.66583  1.0000
  C   C613      1.0  0.71051  0.30877  0.68088  1.0000
  C   C614      1.0  0.69037  0.29425  0.68694  1.0000
  C   C615      1.0  0.66717  0.29913  0.67784  1.0000
  C   C616      1.0  0.66400  0.31842  0.66304  1.0000
  H   H614      1.0  0.72307  0.33903  0.66127  1.0000
  H   H615      1.0  0.72843  0.30539  0.68787  1.0000
  H   H616      1.0  0.65145  0.28802  0.68241  1.0000
  H   H617      1.0  0.64598  0.32204  0.65636  1.0000
  H   H618      1.0  0.62015  0.36080  0.53413  1.0000
  N   N51       1.0  0.84204  0.01958  0.66053  1.0000
  C   C617      1.0  0.63754  0.48164  0.61074  1.0000
  C   C618      1.0  0.61944  0.47952  0.62777  1.0000
  H   H619      1.0  0.69797  0.41070  0.53939  1.0000
  H   H620      1.0  0.64592  0.46636  0.60442  1.0000
  C   C619      1.0  0.72087  0.35841  0.72420  1.0000
  C   C620      1.0  0.68571  0.36721  0.53683  1.0000
  C   C621      1.0  0.86711  0.05442  0.66326  1.0000
  H   H621      1.0  0.54841  0.38732  0.65980  1.0000
  C   C622      1.0  0.93119  0.14180  0.53062  1.0000
  C   C623      1.0  0.68308  0.34302  0.57846  1.0000
  H   H622      1.0  0.80417  0.02388  0.65305  1.0000
  N   N52       1.0  0.94262  0.15112  0.54937  1.0000
  C   C624      1.0  0.86971  0.12545  0.51939  1.0000
  H   H623      1.0  0.69862  0.37567  0.68665  1.0000
  H   H624      1.0  0.93798  0.17349  0.57768  1.0000
  C   C625      1.0  0.84674  0.06759  0.65857  1.0000
  C   C626      1.0  0.73197  0.34305  0.73957  1.0000
  C   C627      1.0  0.99731  0.11209  0.66836  1.0000
  C   C628      1.0  0.51229  0.43765  0.63392  1.0000
  H   H625      1.0  0.68180  0.33390  0.59496  1.0000
  N   N53       1.0  0.76140  0.23994  0.66227  1.0000
  C   C629      1.0  0.73786  0.24471  0.66813  1.0000
  C   C630      1.0  0.76770  0.21766  0.65853  1.0000
  C   C631      1.0  0.72000  0.22689  0.67081  1.0000
  C   C632      1.0  0.75044  0.19937  0.66146  1.0000
  C   C633      1.0  0.72644  0.20406  0.66768  1.0000
  C   C634      1.0  0.77976  0.25898  0.65987  1.0000
  H   H626      1.0  0.73282  0.26235  0.67116  1.0000
  H   H627      1.0  0.78635  0.21381  0.65384  1.0000
  H   H628      1.0  0.70147  0.23077  0.67595  1.0000
  H   H629      1.0  0.75585  0.18168  0.65928  1.0000
  H   H630      1.0  0.71294  0.19003  0.67035  1.0000
  H   H631      1.0  0.53815  0.46563  0.60690  1.0000
  H   H632      1.0  0.78037  0.26924  0.67582  1.0000
  C   C635      1.0  0.82191  0.03237  0.65600  1.0000
  C   C636      1.0  0.95818  0.10973  0.53205  1.0000
  C   C637      1.0  0.67626  0.34442  0.53746  1.0000
  C   C638      1.0  0.50779  0.40178  0.59046  1.0000
  C   C639      1.0  0.67485  0.33231  0.55845  1.0000
  H   H633      1.0  0.91358  0.17331  0.55728  1.0000
  H   H634      1.0  0.98603  0.11166  0.55845  1.0000
  H   H635      1.0  0.84860  0.08632  0.65762  1.0000
  N   N54       1.0  0.69726  0.35426  0.71693  1.0000
  C   C640      1.0  0.62483  0.36859  0.51755  1.0000
  H   H636      1.0  0.56555  0.44964  0.60851  1.0000
  H   H637      1.0  0.77529  0.27031  0.64493  1.0000
  H   H638      1.0  0.66893  0.36350  0.69316  1.0000
  H   H639      1.0  0.56996  0.41985  0.63931  1.0000
  C   C641      1.0  0.60877  0.49953  0.63584  1.0000
  C   C642      1.0  0.70259  0.40183  0.55591  1.0000
  H   H640      1.0  0.73126  0.37364  0.71805  1.0000
  H   H641      1.0  0.99610  0.07633  0.60712  1.0000
  C   C643      1.0  0.50559  0.36007  0.61538  1.0000
  C   C644      1.0  0.68597  0.37086  0.70113  1.0000
  H   H642      1.0  0.88054  0.02024  0.66727  1.0000
  C   C645      1.0  0.86118  0.02317  0.60678  1.0000
  H   H643      1.0  0.50881  0.41803  0.58091  1.0000
  H   H644      1.0  0.66546  0.33165  0.71896  1.0000
  C   C646      1.0  0.93388  0.17255  0.55895  1.0000
  H   H645      1.0  0.88506  0.06279  0.66548  1.0000
  C   C647      1.0  0.93848  0.12080  0.52188  1.0000
  H   H646      1.0  0.75073  0.34621  0.74534  1.0000
  H   H647      1.0  0.80812  0.06677  0.65103  1.0000
  H   H648      1.0  0.69387  0.41182  0.56964  1.0000
  N   N55       1.0  0.69312  0.37779  0.55663  1.0000
  H   H649      1.0  0.94268  0.18773  0.54987  1.0000
  H   H650      1.0  0.68442  0.30386  0.74580  1.0000
  C   C648      1.0  0.69218  0.36592  0.57723  1.0000
  H   H651      1.0  0.69801  0.37429  0.59296  1.0000
  C   C649      1.0  0.96265  0.14096  0.55874  1.0000
  N   N56       1.0  0.53725  0.43746  0.63145  1.0000
  C   C650      1.0  0.68407  0.33516  0.72487  1.0000
  C   C651      1.0  0.71873  0.32343  0.74752  1.0000
  C   C652      1.0  0.63510  0.39108  0.51627  1.0000
  H   H652      1.0  0.66949  0.33648  0.52181  1.0000
  H   H653      1.0  0.66707  0.31480  0.55927  1.0000
  C   C653      1.0  0.55038  0.45637  0.61894  1.0000
  C   C654      1.0  0.99873  0.09481  0.60904  1.0000
  C   C655      1.0  0.69465  0.31940  0.74015  1.0000
  H   H654      1.0  0.97237  0.14895  0.57291  1.0000
  H   H655      1.0  0.96386  0.09329  0.52564  1.0000
  H   H656      1.0  0.91605  0.15045  0.52256  1.0000
  C   C656      1.0  0.00246  0.13560  0.67149  1.0000
  H   H657      1.0  0.50473  0.34400  0.62523  1.0000
  Fe  Fe111     1.0  0.58201  0.10443  0.87608  1.0000
  S   S221      1.0  0.59277  0.13603  0.89569  1.0000
  S   S222      1.0  0.54553  0.09792  0.85824  1.0000
  Fe  Fe112     1.0  0.62992  0.08137  0.88726  1.0000
  S   S223      1.0  0.64456  0.11145  0.90794  1.0000
  S   S224      1.0  0.65142  0.04870  0.88592  1.0000
  Fe  Fe113     1.0  0.60652  0.11141  0.92283  1.0000
  S   S225      1.0  0.59261  0.11168  0.95964  1.0000
  Fe  Fe114     1.0  0.62995  0.13356  0.87881  1.0000
  S   S226      1.0  0.64612  0.16823  0.86486  1.0000
  S   S227      1.0  0.59306  0.07990  0.90411  1.0000
  S   S228      1.0  0.61800  0.10336  0.85715  1.0000
  Fe  Fe115     1.0  0.87581  0.36924  0.86333  1.0000
  S   S229      1.0  0.89773  0.40071  0.85015  1.0000
  S   S230      1.0  0.86797  0.33783  0.84063  1.0000
  Fe  Fe116     1.0  0.87302  0.38800  0.91205  1.0000
  S   S231      1.0  0.89428  0.42048  0.90264  1.0000
  S   S232      1.0  0.85555  0.38452  0.94742  1.0000
  Fe  Fe117     1.0  0.87167  0.42129  0.87068  1.0000
  S   S233      1.0  0.85682  0.45466  0.85602  1.0000
  Fe  Fe118     1.0  0.91918  0.39795  0.88302  1.0000
  S   S234      1.0  0.95839  0.41157  0.88740  1.0000
  S   S235      1.0  0.84795  0.39023  0.88126  1.0000
  S   S236      1.0  0.89964  0.36493  0.89511  1.0000
  S   S237      1.0  0.72619  0.19078  0.78611  1.0000
  S   S238      1.0  0.77067  0.30412  0.78719  1.0000
  C   C657      1.0  0.87557  0.48155  0.89096  1.0000
  C   C658      1.0  0.86293  0.48099  0.87008  1.0000
  H   H658      1.0  0.59774  0.01431  0.91729  1.0000
  H   H659      1.0  0.88166  0.46581  0.89884  1.0000
  C   C659      1.0  0.77680  0.26876  0.83489  1.0000
  C   C660      1.0  0.98440  0.39820  0.87659  1.0000
  C   C661      1.0  0.98278  0.37711  0.86528  1.0000
  C   C662      1.0  0.91697  0.47808  0.84493  1.0000
  H   H660      1.0  0.97385  0.38313  0.93487  1.0000
  C   C663      1.0  0.77687  0.19693  0.82155  1.0000
  H   H661      1.0  0.96498  0.36897  0.86196  1.0000
  H   H662      1.0  0.77884  0.19463  0.80270  1.0000
  C   C664      1.0  0.83809  0.48588  0.93934  1.0000
  C   C665      1.0  0.87337  0.38544  0.97286  1.0000
  C   C666      1.0  0.89901  0.38563  0.97216  1.0000
  C   C667      1.0  0.75524  0.23297  0.82584  1.0000
  C   C668      1.0  0.86148  0.38595  0.99429  1.0000
  H   H663      1.0  0.90834  0.38524  0.95577  1.0000
  H   H664      1.0  0.85947  0.47457  0.96843  1.0000
  C   C669      1.0  0.79825  0.31362  0.80115  1.0000
  C   C670      1.0  0.79792  0.33333  0.81493  1.0000
  C   C671      1.0  0.81904  0.34107  0.82701  1.0000
  C   C672      1.0  0.84082  0.32915  0.82550  1.0000
  C   C673      1.0  0.84112  0.30940  0.81173  1.0000
  C   C674      1.0  0.82002  0.30170  0.79959  1.0000
  H   H665      1.0  0.78119  0.34267  0.81638  1.0000
  H   H666      1.0  0.81846  0.35623  0.83754  1.0000
  H   H667      1.0  0.85788  0.30008  0.81037  1.0000
  H   H668      1.0  0.82064  0.28654  0.78907  1.0000
  C   C675      1.0  0.63602  0.02283  0.87770  1.0000
  H   H669      1.0  0.59627  0.18812  0.86132  1.0000
  H   H670      1.0  0.56683  0.11376  0.81352  1.0000
  N   N57       1.0  0.58670  0.16524  0.83438  1.0000
  H   H671      1.0  0.60304  0.03906  0.86660  1.0000
  C   C676      1.0  0.66800  0.17396  0.84249  1.0000
  C   C677      1.0  0.67232  0.19693  0.83461  1.0000
  C   C678      1.0  0.68950  0.20237  0.81695  1.0000
  C   C679      1.0  0.70292  0.18489  0.80720  1.0000
  C   C680      1.0  0.69845  0.16192  0.81496  1.0000
  C   C681      1.0  0.68097  0.15643  0.83234  1.0000
  H   H672      1.0  0.66237  0.21064  0.84229  1.0000
  H   H673      1.0  0.69252  0.22010  0.81111  1.0000
  H   H674      1.0  0.70870  0.14823  0.80758  1.0000
  H   H675      1.0  0.67788  0.13868  0.83817  1.0000
  H   H676      1.0  0.75937  0.18797  0.82708  1.0000
  H   H677      1.0  0.61952  0.18392  0.82439  1.0000
  C   C682      1.0  0.61152  0.10974  0.98427  1.0000
  C   C683      1.0  0.63576  0.11854  0.98433  1.0000
  C   C684      1.0  0.84905  0.46935  0.95338  1.0000
  H   H678      1.0  0.64414  0.12492  0.96845  1.0000
  C   C685      1.0  0.52088  0.12884  0.88459  1.0000
  C   C686      1.0  0.51919  0.11157  0.86815  1.0000
  H   H679      1.0  0.62321  0.04439  0.93070  1.0000
  H   H680      1.0  0.53855  0.13420  0.89144  1.0000
  N   N58       1.0  0.62866  0.00863  0.93894  1.0000
  H   H681      1.0  0.88958  0.50273  0.91833  1.0000
  H   H682      1.0  0.92840  0.44541  0.85898  1.0000
  H   H683      1.0  0.57243  0.19778  0.84200  1.0000
  H   H684      1.0  0.81571  0.22474  0.83056  1.0000
  Fe  Fe119     1.0  0.76294  0.27229  0.76525  1.0000
  H   H685      1.0  0.93238  0.38561  0.99214  1.0000
  N   N59       1.0  0.77681  0.22164  0.82661  1.0000
  C   C687      1.0  0.61213  0.02288  0.86899  1.0000
  H   H686      1.0  0.73785  0.26573  0.82898  1.0000
  H   H687      1.0  0.90728  0.47037  0.83051  1.0000
  H   H688      1.0  0.56601  0.17540  0.86357  1.0000
  H   H689      1.0  0.63203  0.03821  0.95998  1.0000
  H   H690      1.0  0.50493  0.03651  0.86678  1.0000
  N   N60       1.0  0.82303  0.45590  0.91443  1.0000
  C   C688      1.0  0.94009  0.47395  0.88003  1.0000
  H   H691      1.0  0.66721  0.12776  0.00532  1.0000
  H   H692      1.0  0.55470  0.14366  0.84050  1.0000
  H   H693      1.0  0.59472  0.16336  0.98158  1.0000
  H   H694      1.0  0.80921  0.46249  0.88062  1.0000
  H   H695      1.0  0.79199  0.18823  0.83065  1.0000
  S   S239      1.0  0.72345  0.25897  0.76656  1.0000
  C   C689      1.0  0.57136  0.14857  0.00846  1.0000
  C   C690      1.0  0.59251  0.16020  0.99995  1.0000
  C   C691      1.0  0.57844  0.12922  0.81557  1.0000
  H   H696      1.0  0.85498  0.43298  0.95875  1.0000
  C   C692      1.0  0.57992  0.18254  0.85108  1.0000
  C   C693      1.0  0.91258  0.38584  0.99279  1.0000
  C   C694      1.0  0.79878  0.25720  0.83515  1.0000
  H   H697      1.0  0.65407  0.03729  0.93660  1.0000
  H   H698      1.0  0.81596  0.26670  0.83835  1.0000
  H   H699      1.0  0.95996  0.34747  0.91506  1.0000
  C   C695      1.0  0.83335  0.43956  0.92833  1.0000
  C   C696      1.0  0.82496  0.47879  0.91987  1.0000
  H   H700      1.0  0.77681  0.28721  0.83792  1.0000
  C   C697      1.0  0.60050  0.13205  0.80351  1.0000
  H   H701      1.0  0.94894  0.46297  0.89268  1.0000
  C   C698      1.0  0.60782  0.16862  0.82189  1.0000
  C   C699      1.0  0.97944  0.35141  0.91726  1.0000
  C   C700      1.0  0.61528  0.15193  0.80657  1.0000
  H   H702      1.0  0.55725  0.14311  0.99638  1.0000
  C   C701      1.0  0.84661  0.44603  0.94792  1.0000
  H   H703      1.0  0.60624  0.11874  0.79201  1.0000
  H   H704      1.0  0.83148  0.42136  0.92427  1.0000
  H   H705      1.0  0.73819  0.22372  0.82184  1.0000
  C   C702      1.0  0.57174  0.14614  0.83098  1.0000
  C   C703      1.0  0.75490  0.25668  0.82996  1.0000
  C   C704      1.0  0.80881  0.44870  0.89424  1.0000
  H   H706      1.0  0.51629  0.08470  0.92107  1.0000
  C   C705      1.0  0.79849  0.23351  0.83075  1.0000
  Fe  Fe120     1.0  0.73856  0.22348  0.76574  1.0000
  H   H707      1.0  0.84165  0.38577  0.99497  1.0000
  H   H708      1.0  0.78953  0.44438  0.89925  1.0000
  H   H709      1.0  0.81682  0.43336  0.88631  1.0000
  S   S240      1.0  0.77815  0.23661  0.76708  1.0000
  H   H710      1.0  0.63267  0.15426  0.79757  1.0000
  C   C706      1.0  0.63472  0.03329  0.94180  1.0000
  C   C707      1.0  0.88001  0.50257  0.90202  1.0000
  C   C708      1.0  0.92856  0.46402  0.86104  1.0000
  C   C709      1.0  0.60085  0.10168  0.00502  1.0000
  H   H711      1.0  0.53317  0.05970  0.89151  1.0000
  C   C710      1.0  0.98726  0.37145  0.92843  1.0000
  C   C711      1.0  0.64875  0.12025  0.00526  1.0000
  H   H712      1.0  0.99087  0.32158  0.89905  1.0000
  C   C712      1.0  0.93979  0.49793  0.88268  1.0000
  C   C713      1.0  0.51349  0.05985  0.89426  1.0000
  H   H713      1.0  0.81695  0.49180  0.90877  1.0000
  C   C714      1.0  0.50379  0.07398  0.91099  1.0000
  C   C715      1.0  0.99677  0.33690  0.90828  1.0000
  H   H714      1.0  0.58215  0.09477  0.00512  1.0000
  C   C716      1.0  0.85505  0.50178  0.86018  1.0000
  H   H715      1.0  0.84527  0.50151  0.84397  1.0000
  C   C717      1.0  0.91703  0.50200  0.84809  1.0000
  H   H716      1.0  0.00304  0.34964  0.85053  1.0000
  H   H717      1.0  0.62840  0.17428  0.00858  1.0000
  Fe  Fe121     1.0  0.58882  0.88411  0.11588  1.0000
  S   S241      1.0  0.62035  0.90526  0.13065  1.0000
  S   S242      1.0  0.55312  0.88166  0.13581  1.0000
  Fe  Fe122     1.0  0.61799  0.87069  0.07425  1.0000
  S   S243      1.0  0.65156  0.89061  0.08568  1.0000
  S   S244      1.0  0.61735  0.84960  0.04188  1.0000
  Fe  Fe123     1.0  0.64356  0.87555  0.12102  1.0000
  S   S245      1.0  0.67755  0.86557  0.14148  1.0000
  Fe  Fe124     1.0  0.62576  0.91845  0.09440  1.0000
  S   S246      1.0  0.63784  0.95453  0.08256  1.0000
  S   S247      1.0  0.61164  0.85331  0.10897  1.0000
  S   S248      1.0  0.59257  0.89959  0.08023  1.0000
  Fe  Fe125     1.0  0.85906  0.63246  0.12249  1.0000
  S   S249      1.0  0.88223  0.64770  0.09335  1.0000
  S   S250      1.0  0.82408  0.64844  0.13593  1.0000
  Fe  Fe126     1.0  0.88773  0.58728  0.12396  1.0000
  S   S251      1.0  0.91282  0.59931  0.09538  1.0000
  S   S252      1.0  0.89673  0.55336  0.14163  1.0000
  Fe  Fe127     1.0  0.91418  0.63332  0.11312  1.0000
  S   S253      1.0  0.94990  0.65242  0.12186  1.0000
  Fe  Fe128     1.0  0.87904  0.61225  0.07807  1.0000
  S   S254      1.0  0.86958  0.60025  0.04215  1.0000
  S   S255      1.0  0.89118  0.62058  0.14324  1.0000
  S   S256      1.0  0.85365  0.59777  0.10572  1.0000
  Fe  Fe129     1.0  0.72777  0.76344  0.22259  1.0000
  S   S257      1.0  0.76624  0.77888  0.22107  1.0000
  S   S258      1.0  0.69543  0.77283  0.19949  1.0000
  Fe  Fe130     1.0  0.77842  0.74211  0.22493  1.0000
  S   S259      1.0  0.81318  0.72891  0.20855  1.0000
  S   S260      1.0  0.74019  0.72646  0.22370  1.0000
  C   C718      1.0  0.82293  0.65612  0.07247  1.0000
  H   H718      1.0  0.81363  0.80826  0.24142  1.0000
  H   H719      1.0  0.69112  0.91469  0.13043  1.0000
  C   C719      1.0  0.81141  0.61955  0.05565  1.0000
  H   H720      1.0  0.88473  0.64819  0.03078  1.0000
  C   C720      1.0  0.95906  0.57532  0.13142  1.0000
  C   C721      1.0  0.97727  0.64253  0.10997  1.0000
  C   C722      1.0  0.97663  0.62710  0.09181  1.0000
  H   H721      1.0  0.67970  0.82814  0.07144  1.0000
  H   H722      1.0  0.95930  0.62188  0.08420  1.0000
  C   C723      1.0  0.82147  0.67191  0.15495  1.0000
  C   C724      1.0  0.79798  0.67797  0.16226  1.0000
  C   C725      1.0  0.79504  0.69563  0.17832  1.0000
  C   C726      1.0  0.81562  0.70751  0.18721  1.0000
  C   C727      1.0  0.83908  0.70166  0.17966  1.0000
  C   C728      1.0  0.84202  0.68396  0.16366  1.0000
  H   H723      1.0  0.78195  0.66881  0.15562  1.0000
  H   H724      1.0  0.77689  0.69994  0.18392  1.0000
  H   H725      1.0  0.85513  0.71076  0.18637  1.0000
  H   H726      1.0  0.86020  0.67953  0.15821  1.0000
  C   C729      1.0  0.88611  0.52674  0.13013  1.0000
  H   H727      1.0  0.85814  0.54130  0.10876  1.0000
  C   C730      1.0  0.69711  0.81081  0.11337  1.0000
  C   C731      1.0  0.68127  0.84067  0.15942  1.0000
  C   C732      1.0  0.66255  0.82375  0.16260  1.0000
  C   C733      1.0  0.66690  0.80354  0.17576  1.0000
  C   C734      1.0  0.69000  0.79994  0.18580  1.0000
  C   C735      1.0  0.70853  0.81713  0.18306  1.0000
  C   C736      1.0  0.70417  0.83735  0.16992  1.0000
  H   H728      1.0  0.64481  0.82608  0.15473  1.0000
  H   H729      1.0  0.65242  0.79039  0.17781  1.0000
  H   H730      1.0  0.72638  0.81462  0.19063  1.0000
  H   H731      1.0  0.71878  0.85034  0.16762  1.0000
  H   H732      1.0  0.93220  0.58889  0.15426  1.0000
  C   C737      1.0  0.69467  0.95245  0.10367  1.0000
  C   C738      1.0  0.65766  0.96597  0.15573  1.0000
  H   H733      1.0  0.63734  0.89588  0.03184  1.0000
  H   H734      1.0  0.82544  0.66679  0.08751  1.0000
  C   C739      1.0  0.62710  0.97879  0.09678  1.0000
  C   C740      1.0  0.61277  0.97630  0.11667  1.0000
  C   C741      1.0  0.86664  0.52561  0.11448  1.0000
  H   H735      1.0  0.60691  0.95924  0.12288  1.0000
  H   H736      1.0  0.70948  0.82565  0.11019  1.0000
  C   C742      1.0  0.66487  0.77385  0.12339  1.0000
  H   H737      1.0  0.66970  0.90974  0.16770  1.0000
  C   C743      1.0  0.52582  0.87772  0.09617  1.0000
  C   C744      1.0  0.52585  0.88247  0.11965  1.0000
  C   C745      1.0  0.77995  0.67853  0.24321  1.0000
  H   H738      1.0  0.64037  0.79076  0.10011  1.0000
  C   C746      1.0  0.70421  0.79338  0.12874  1.0000
  H   H739      1.0  0.54289  0.87465  0.08747  1.0000
  N   N61       1.0  0.98305  0.57618  0.12449  1.0000
  H   H740      1.0  0.65191  0.75976  0.12766  1.0000
  H   H741      1.0  0.84276  0.79552  0.23619  1.0000
  H   H742      1.0  0.71480  0.95297  0.10639  1.0000
  H   H743      1.0  0.78162  0.63073  0.19805  1.0000
  C   C747      1.0  0.67021  0.96832  0.13477  1.0000
  C   C748      1.0  0.68201  0.92929  0.13757  1.0000
  C   C749      1.0  0.81366  0.61366  0.01415  1.0000
  C   C750      1.0  0.95132  0.58933  0.14911  1.0000
  H   H744      1.0  0.82459  0.64006  0.19197  1.0000
  C   C751      1.0  0.63462  0.00102  0.08889  1.0000
  H   H745      1.0  0.50946  0.83346  0.11403  1.0000
  C   C752      1.0  0.62272  0.86518  0.01575  1.0000
  H   H746      1.0  0.84025  0.66126  0.20895  1.0000
  H   H747      1.0  0.50658  0.80934  0.13415  1.0000
  C   C753      1.0  0.78126  0.64416  0.21079  1.0000
  C   C754      1.0  0.88193  0.63887  0.01499  1.0000
  C   C755      1.0  0.87576  0.61521  0.01591  1.0000
  C   C756      1.0  0.82624  0.64682  0.20972  1.0000
  C   C757      1.0  0.66780  0.82812  0.08694  1.0000
  H   H748      1.0  0.83655  0.68242  0.04847  1.0000
  C   C758      1.0  0.96829  0.60412  0.15984  1.0000
  H   H749      1.0  0.97649  0.56148  0.09175  1.0000
  C   C759      1.0  0.66997  0.92641  0.15874  1.0000
  H   H750      1.0  0.74070  0.67293  0.24310  1.0000
  H   H751      1.0  0.59547  0.99396  0.14433  1.0000
  C   C760      1.0  0.80221  0.67181  0.23397  1.0000
  H   H752      1.0  0.83287  0.63291  0.22130  1.0000
  H   H753      1.0  0.68950  0.96841  0.09412  1.0000
  C   C761      1.0  0.81395  0.63336  0.07504  1.0000
  C   C762      1.0  0.65843  0.79151  0.10795  1.0000
  H   H754      1.0  0.94562  0.56401  0.12306  1.0000
  C   C763      1.0  0.82913  0.66486  0.05060  1.0000
  N   N62       1.0  0.80266  0.65477  0.21802  1.0000
  H   H755      1.0  0.96227  0.61570  0.17296  1.0000
  H   H756      1.0  0.64841  0.82622  0.08108  1.0000
  H   H757      1.0  0.67004  0.84511  0.09533  1.0000
  N   N63       1.0  0.67452  0.80967  0.10315  1.0000
  H   H758      1.0  0.68929  0.93779  0.09244  1.0000
  H   H759      1.0  0.69287  0.76173  0.14648  1.0000
  H   H760      1.0  0.72178  0.79472  0.13747  1.0000
  C   C764      1.0  0.68794  0.77482  0.13379  1.0000
  H   H761      1.0  0.50687  0.83883  0.14394  1.0000
  C   C765      1.0  0.75806  0.66781  0.23597  1.0000
  C   C766      1.0  0.83034  0.80151  0.24979  1.0000
  H   H762      1.0  0.64745  0.94263  0.18378  1.0000
  H   H763      1.0  0.80943  0.62635  0.09205  1.0000
  N   N64       1.0  0.81734  0.62831  0.03424  1.0000
  H   H764      1.0  0.66986  0.98472  0.12540  1.0000
  H   H765      1.0  0.80512  0.60165  0.05786  1.0000
  C   C767      1.0  0.60638  0.99597  0.12882  1.0000
  N   N65       1.0  0.68183  0.94998  0.12580  1.0000
  C   C768      1.0  0.63311  0.88762  0.01572  1.0000
  H   H766      1.0  0.74169  0.64229  0.21370  1.0000
  C   C769      1.0  0.75865  0.65061  0.21954  1.0000
  H   H767      1.0  0.79380  0.61139  0.01032  1.0000
  C   C770      1.0  0.82598  0.65070  0.03151  1.0000
  C   C771      1.0  0.65750  0.94483  0.16773  1.0000
  H   H768      1.0  0.81910  0.68056  0.23942  1.0000
  C   C772      1.0  0.00005  0.58987  0.13560  1.0000
  H   H769      1.0  0.82154  0.59644  0.01747  1.0000
  H   H770      1.0  0.82111  0.84662  0.25179  1.0000
  Fe  Fe131     1.0  0.76413  0.77870  0.25986  1.0000
  H   H771      1.0  0.64767  0.98034  0.16226  1.0000
  C   C773      1.0  0.99062  0.56172  0.10554  1.0000
  C   C774      1.0  0.99290  0.60418  0.15332  1.0000
  H   H772      1.0  0.64574  0.00305  0.07352  1.0000
  C   C775      1.0  0.99850  0.61859  0.08323  1.0000
  H   H773      1.0  0.99776  0.60661  0.06918  1.0000
  H   H774      1.0  0.83101  0.65756  0.01458  1.0000
  H   H775      1.0  0.00066  0.66186  0.13312  1.0000
  H   H776      1.0  0.91194  0.50689  0.14959  1.0000
  H   H777      1.0  0.77960  0.69200  0.25588  1.0000
  C   C776      1.0  0.00006  0.64975  0.11919  1.0000
  H   H778      1.0  0.99321  0.54379  0.11200  1.0000
  C   C777      1.0  0.89694  0.50618  0.13743  1.0000
  C   C778      1.0  0.85766  0.50403  0.10671  1.0000
  C   C779      1.0  0.50352  0.88616  0.13081  1.0000
  C   C780      1.0  0.50357  0.87607  0.08407  1.0000
  H   H779      1.0  0.50348  0.88983  0.14898  1.0000
  H   H780      1.0  0.50365  0.87193  0.06600  1.0000
  Fe  Fe132     1.0  0.63371  0.58123  0.37251  1.0000
  S   S261      1.0  0.60919  0.60204  0.34986  1.0000
  S   S262      1.0  0.65034  0.54857  0.35945  1.0000
  Fe  Fe133     1.0  0.62822  0.61323  0.41299  1.0000
  S   S263      1.0  0.60237  0.63637  0.39380  1.0000
  S   S264      1.0  0.64474  0.61334  0.44885  1.0000
  Fe  Fe134     1.0  0.58482  0.60328  0.38085  1.0000
  S   S265      1.0  0.54607  0.58957  0.37465  1.0000
  Fe  Fe135     1.0  0.62874  0.63360  0.36390  1.0000
  S   S266      1.0  0.63500  0.66564  0.34051  1.0000
  S   S267      1.0  0.60827  0.58060  0.40261  1.0000
  S   S268      1.0  0.65567  0.61261  0.38394  1.0000
  Fe  Fe136     1.0  0.89990  0.88638  0.41135  1.0000
  S   S269      1.0  0.86114  0.88653  0.39820  1.0000
  S   S270      1.0  0.91653  0.88775  0.44710  1.0000
  Fe  Fe137     1.0  0.92179  0.89539  0.36338  1.0000
  S   S271      1.0  0.88487  0.89703  0.34610  1.0000
  S   S272      1.0  0.95825  0.90363  0.34589  1.0000
  Fe  Fe138     1.0  0.87418  0.91760  0.37683  1.0000
  S   S273      1.0  0.85272  0.95026  0.37858  1.0000
  Fe  Fe139     1.0  0.87460  0.86580  0.36838  1.0000
  S   S274      1.0  0.85833  0.83164  0.35471  1.0000
  S   S275      1.0  0.91173  0.91863  0.39186  1.0000
  S   S276      1.0  0.91260  0.86305  0.38370  1.0000
  C   C781      1.0  0.58938  0.52194  0.34247  1.0000
  C   C782      1.0  0.55921  0.52710  0.37206  1.0000
  S   S277      1.0  0.73273  0.69905  0.28681  1.0000
  H   H781      1.0  0.68597  0.54600  0.40141  1.0000
  C   C783      1.0  0.63811  0.61194  0.49559  1.0000
  H   H782      1.0  0.87560  0.86435  0.30234  1.0000
  C   C784      1.0  0.98385  0.88772  0.35422  1.0000
  C   C785      1.0  0.98104  0.86612  0.36529  1.0000
  C   C786      1.0  0.73906  0.73342  0.33686  1.0000
  H   H783      1.0  0.96292  0.85841  0.36806  1.0000
  C   C787      1.0  0.59431  0.63533  0.49448  1.0000
  C   C788      1.0  0.86783  0.97741  0.37299  1.0000
  H   H784      1.0  0.89889  0.96369  0.35577  1.0000
  C   C789      1.0  0.70584  0.75821  0.33064  1.0000
  C   C790      1.0  0.83373  0.82606  0.33529  1.0000
  C   C791      1.0  0.81919  0.84360  0.32659  1.0000
  C   C792      1.0  0.80095  0.83855  0.31004  1.0000
  C   C793      1.0  0.79716  0.81600  0.30185  1.0000
  C   C794      1.0  0.81129  0.79831  0.31095  1.0000
  C   C795      1.0  0.82939  0.80334  0.32764  1.0000
  H   H785      1.0  0.82220  0.86112  0.33239  1.0000
  H   H786      1.0  0.79003  0.85234  0.30322  1.0000
  H   H787      1.0  0.80858  0.78087  0.30490  1.0000
  H   H788      1.0  0.84048  0.78963  0.33437  1.0000
  C   C796      1.0  0.87594  0.87210  0.47237  1.0000
  C   C797      1.0  0.89970  0.88200  0.47265  1.0000
  C   C798      1.0  0.91043  0.88795  0.49379  1.0000
  S   S278      1.0  0.77925  0.74343  0.26361  1.0000
  H   H789      1.0  0.86754  0.86740  0.45618  1.0000
  H   H790      1.0  0.92886  0.89551  0.49415  1.0000
  C   C799      1.0  0.52136  0.62810  0.38787  1.0000
  C   C800      1.0  0.98458  0.92922  0.39346  1.0000
  C   C801      1.0  0.74750  0.77178  0.31952  1.0000
  H   H791      1.0  0.53904  0.63581  0.39237  1.0000
  C   C802      1.0  0.97430  0.89345  0.41527  1.0000
  C   C803      1.0  0.55324  0.67087  0.34652  1.0000
  H   H792      1.0  0.91820  0.00231  0.34645  1.0000
  H   H793      1.0  0.61632  0.53528  0.39626  1.0000
  H   H794      1.0  0.84230  0.87601  0.27576  1.0000
  C   C804      1.0  0.66190  0.67367  0.32449  1.0000
  C   C805      1.0  0.68369  0.66186  0.32700  1.0000
  C   C806      1.0  0.70497  0.66958  0.31489  1.0000
  C   C807      1.0  0.70480  0.68917  0.30014  1.0000
  C   C808      1.0  0.68293  0.70081  0.29736  1.0000
  C   C809      1.0  0.66164  0.69312  0.30952  1.0000
  H   H795      1.0  0.68421  0.64690  0.33844  1.0000
  H   H796      1.0  0.72176  0.66041  0.31717  1.0000
  H   H797      1.0  0.68247  0.71590  0.28609  1.0000
  H   H798      1.0  0.64489  0.70238  0.30742  1.0000
  H   H799      1.0  0.87328  0.94493  0.42341  1.0000
  C   C810      1.0  0.62820  0.61864  0.47426  1.0000
  C   C811      1.0  0.60608  0.63011  0.47375  1.0000
  H   H800      1.0  0.56467  0.68492  0.35322  1.0000
  H   H801      1.0  0.59834  0.63545  0.45743  1.0000
  H   H802      1.0  0.84483  0.86013  0.49289  1.0000
  C   C812      1.0  0.56388  0.65043  0.34014  1.0000
  C   C813      1.0  0.82796  0.92075  0.45691  1.0000
  H   H803      1.0  0.65522  0.60306  0.49612  1.0000
  C   C814      1.0  0.86498  0.92823  0.47866  1.0000
  C   C815      1.0  0.89029  0.97917  0.36133  1.0000
  H   H804      1.0  0.68571  0.70755  0.35610  1.0000
  Fe  Fe140     1.0  0.74002  0.72981  0.26222  1.0000
  H   H805      1.0  0.90293  0.96410  0.46247  1.0000
  C   C816      1.0  0.72322  0.71656  0.34697  1.0000
  H   H806      1.0  0.75833  0.72983  0.33508  1.0000
  C   C817      1.0  0.84816  0.85830  0.27618  1.0000
  C   C818      1.0  0.64975  0.55031  0.44855  1.0000
  C   C819      1.0  0.86311  0.86802  0.49318  1.0000
  N   N66       1.0  0.73029  0.75394  0.32891  1.0000
  H   H807      1.0  0.57748  0.64465  0.49398  1.0000
  H   H808      1.0  0.73008  0.70003  0.35264  1.0000
  H   H809      1.0  0.80909  0.91424  0.45591  1.0000
  C   C820      1.0  0.54908  0.63230  0.33181  1.0000
  C   C821      1.0  0.85678  0.99768  0.37990  1.0000
  C   C822      1.0  0.84056  0.92002  0.47780  1.0000
  C   C823      1.0  0.62383  0.51992  0.38953  1.0000
  H   H810      1.0  0.73801  0.78510  0.30911  1.0000
  H   H811      1.0  0.88760  0.82350  0.30423  1.0000
  C   C824      1.0  0.66425  0.55729  0.42972  1.0000
  H   H812      1.0  0.66678  0.57554  0.42529  1.0000
  C   C825      1.0  0.68947  0.74165  0.34053  1.0000
  H   H813      1.0  0.60263  0.52921  0.33013  1.0000
  H   H814      1.0  0.83170  0.91278  0.49319  1.0000
  H   H815      1.0  0.96526  0.93100  0.38971  1.0000
  C   C826      1.0  0.51979  0.60559  0.37958  1.0000
  H   H816      1.0  0.58354  0.64860  0.34182  1.0000
  C   C827      1.0  0.64075  0.52147  0.37149  1.0000
  C   C828      1.0  0.64632  0.52670  0.45381  1.0000
  N   N67       1.0  0.87663  0.93653  0.45917  1.0000
  H   H817      1.0  0.75751  0.78062  0.33368  1.0000
  H   H818      1.0  0.76105  0.76408  0.30797  1.0000
  C   C829      1.0  0.87370  0.82881  0.29204  1.0000
  H   H819      1.0  0.99527  0.96012  0.37399  1.0000
  C   C830      1.0  0.83977  0.92989  0.43728  1.0000
  H   H820      1.0  0.91216  0.94083  0.44428  1.0000
  H   H821      1.0  0.95806  0.89167  0.40380  1.0000
  H   H822      1.0  0.69884  0.77440  0.32421  1.0000
  C   C831      1.0  0.86423  0.93783  0.43876  1.0000
  S   S279      1.0  0.77556  0.81125  0.27939  1.0000
  H   H823      1.0  0.67001  0.74478  0.34143  1.0000
  S   S280      1.0  0.72473  0.76538  0.26127  1.0000
  C   C832      1.0  0.69829  0.72076  0.34885  1.0000
  C   C833      1.0  0.90222  0.94508  0.46027  1.0000
  H   H824      1.0  0.55710  0.61608  0.32746  1.0000
  C   C834      1.0  0.00151  0.94578  0.38448  1.0000
  H   H825      1.0  0.91211  0.93664  0.47470  1.0000
  C   C835      1.0  0.67524  0.54072  0.41649  1.0000
  H   H826      1.0  0.87471  0.92734  0.49492  1.0000
  C   C836      1.0  0.86690  0.85179  0.29104  1.0000
  H   H827      1.0  0.57756  0.55516  0.35330  1.0000
  H   H828      1.0  0.83017  0.93073  0.42091  1.0000
  H   H829      1.0  0.51234  0.62058  0.32383  1.0000
  H   H830      1.0  0.64110  0.56318  0.45888  1.0000
  H   H831      1.0  0.54842  0.53845  0.38237  1.0000
  C   C837      1.0  0.67154  0.51726  0.42229  1.0000
  H   H832      1.0  0.96800  0.89874  0.43248  1.0000
  C   C838      1.0  0.57549  0.53654  0.35562  1.0000
  H   H833      1.0  0.63494  0.52140  0.46844  1.0000
  H   H834      1.0  0.83940  0.99648  0.38888  1.0000
  C   C839      1.0  0.52376  0.63495  0.32985  1.0000
  C   C840      1.0  0.86157  0.81258  0.27814  1.0000
  H   H835      1.0  0.98208  0.87600  0.41677  1.0000
  H   H836      1.0  0.51965  0.68884  0.34946  1.0000
  C   C841      1.0  0.52784  0.67295  0.34434  1.0000
  C   C842      1.0  0.00177  0.85426  0.37260  1.0000
  N   N68       1.0  0.51345  0.65505  0.33619  1.0000
  N   N69       1.0  0.65700  0.51053  0.44062  1.0000
  H   H837      1.0  0.86658  0.79464  0.27940  1.0000
  N   N70       1.0  0.99235  0.91052  0.40587  1.0000
  N   N71       1.0  0.84298  0.81903  0.26383  1.0000
  C   C843      1.0  0.90120  0.00108  0.35604  1.0000
  C   C844      1.0  0.83627  0.84158  0.26264  1.0000
  H   H838      1.0  0.99945  0.83747  0.38102  1.0000
  H   H839      1.0  0.67969  0.50451  0.41154  1.0000
  H   H840      1.0  0.82406  0.78648  0.26077  1.0000
  Fe  Fe141     1.0  0.61754  0.63035  0.62496  1.0000
  S   S281      1.0  0.58188  0.63513  0.60599  1.0000
  S   S282      1.0  0.62886  0.66290  0.64483  1.0000
  Fe  Fe142     1.0  0.62238  0.58221  0.60520  1.0000
  S   S283      1.0  0.58765  0.58380  0.58477  1.0000
  S   S284      1.0  0.64579  0.55120  0.60026  1.0000
  Fe  Fe143     1.0  0.60007  0.61999  0.57555  1.0000
  S   S285      1.0  0.58979  0.63672  0.54149  1.0000
  Fe  Fe144     1.0  0.57190  0.59871  0.61653  1.0000
  S   S286      1.0  0.53338  0.58526  0.62474  1.0000
  S   S287      1.0  0.63647  0.61772  0.59336  1.0000
  S   S288      1.0  0.60585  0.59454  0.63813  1.0000
  Fe  Fe145     1.0  0.91174  0.90018  0.60618  1.0000
  S   S289      1.0  0.88524  0.90562  0.63506  1.0000
  S   S290      1.0  0.95113  0.91184  0.61297  1.0000
  Fe  Fe146     1.0  0.87126  0.88362  0.57361  1.0000
  S   S291      1.0  0.84182  0.88789  0.60011  1.0000
  S   S292      1.0  0.85701  0.86909  0.54001  1.0000
  Fe  Fe147     1.0  0.86193  0.92163  0.60757  1.0000
  S   S293      1.0  0.84138  0.95478  0.61088  1.0000
  Fe  Fe148     1.0  0.86758  0.87144  0.62510  1.0000
  S   S294      1.0  0.86038  0.83985  0.64876  1.0000
  S   S295      1.0  0.88942  0.91847  0.57925  1.0000
  S   S296      1.0  0.89605  0.86494  0.59806  1.0000
  Fe  Fe149     1.0  0.73092  0.72572  0.72711  1.0000
  S   S297      1.0  0.77029  0.73929  0.72523  1.0000
  S   S298      1.0  0.72218  0.69346  0.70580  1.0000
  Fe  Fe150     1.0  0.75527  0.77492  0.72647  1.0000
  S   S299      1.0  0.76325  0.80748  0.70410  1.0000
  S   S300      1.0  0.71587  0.76138  0.72571  1.0000
  C   C845      1.0  0.68229  0.66406  0.58961  1.0000
  H   H841      1.0  0.69604  0.66331  0.60309  1.0000
  H   H842      1.0  0.67414  0.79718  0.73828  1.0000
  H   H843      1.0  0.90587  0.88899  0.53071  1.0000
  C   C846      1.0  0.97712  0.89508  0.60923  1.0000
  C   C847      1.0  0.97526  0.87164  0.60382  1.0000
  H   H844      1.0  0.99503  0.84034  0.59938  1.0000
  H   H845      1.0  0.95745  0.86355  0.60050  1.0000
  H   H846      1.0  0.72499  0.81387  0.75063  1.0000
  C   C848      1.0  0.83358  0.83184  0.66494  1.0000
  C   C849      1.0  0.83271  0.81056  0.67713  1.0000
  C   C850      1.0  0.81148  0.80293  0.68939  1.0000
  C   C851      1.0  0.79082  0.81653  0.68960  1.0000
  C   C852      1.0  0.79172  0.83786  0.67745  1.0000
  C   C853      1.0  0.81297  0.84551  0.66521  1.0000
  H   H847      1.0  0.84853  0.79982  0.67708  1.0000
  H   H848      1.0  0.81109  0.78650  0.69865  1.0000
  H   H849      1.0  0.77586  0.84854  0.67751  1.0000
  H   H850      1.0  0.81330  0.86189  0.65589  1.0000
  C   C854      1.0  0.85916  0.98090  0.60932  1.0000
  H   H851      1.0  0.99004  0.85144  0.65520  1.0000
  C   C855      1.0  0.92836  0.84139  0.65639  1.0000
  H   H852      1.0  0.98369  0.89751  0.68678  1.0000
  H   H853      1.0  0.60370  0.67738  0.57213  1.0000
  H   H854      1.0  0.53215  0.63495  0.63043  1.0000
  C   C856      1.0  0.68602  0.65352  0.56856  1.0000
  C   C857      1.0  0.63476  0.52372  0.61046  1.0000
  H   H855      1.0  0.00047  0.89062  0.66118  1.0000
  C   C858      1.0  0.61617  0.52153  0.62704  1.0000
  C   C859      1.0  0.76528  0.67149  0.74347  1.0000
  H   H856      1.0  0.60797  0.53684  0.63350  1.0000
  C   C860      1.0  0.64619  0.66558  0.55607  1.0000
  H   H857      1.0  0.78962  0.80153  0.63887  1.0000
  H   H858      1.0  0.89338  0.96494  0.61671  1.0000
  H   H859      1.0  0.63379  0.61131  0.53260  1.0000
  C   C861      1.0  0.98213  0.89480  0.66799  1.0000
  C   C862      1.0  0.65495  0.67078  0.66188  1.0000
  C   C863      1.0  0.65565  0.69235  0.67271  1.0000
  C   C864      1.0  0.67596  0.69957  0.68621  1.0000
  C   C865      1.0  0.69597  0.68533  0.68899  1.0000
  C   C866      1.0  0.69537  0.66384  0.67798  1.0000
  C   C867      1.0  0.67502  0.65658  0.66453  1.0000
  H   H860      1.0  0.64026  0.70350  0.67081  1.0000
  H   H861      1.0  0.67608  0.71611  0.69453  1.0000
  H   H862      1.0  0.71070  0.65264  0.68000  1.0000
  H   H863      1.0  0.67482  0.63996  0.65636  1.0000
  N   N72       1.0  0.82757  0.82106  0.59606  1.0000
  C   C868      1.0  0.81274  0.83658  0.58545  1.0000
  C   C869      1.0  0.81933  0.80830  0.61477  1.0000
  C   C870      1.0  0.78924  0.84019  0.59404  1.0000
  C   C871      1.0  0.79581  0.81121  0.62360  1.0000
  C   C872      1.0  0.78081  0.82745  0.61331  1.0000
  C   C873      1.0  0.85228  0.81752  0.58720  1.0000
  H   H864      1.0  0.81920  0.84662  0.57050  1.0000
  H   H865      1.0  0.83124  0.79630  0.62344  1.0000
  H   H866      1.0  0.77781  0.85298  0.58596  1.0000
  C   C874      1.0  0.95321  0.83712  0.65364  1.0000
  H   H867      1.0  0.76282  0.83031  0.62046  1.0000
  H   H868      1.0  0.85811  0.83122  0.57443  1.0000
  H   H869      1.0  0.86581  0.81809  0.60151  1.0000
  H   H870      1.0  0.85283  0.80056  0.57871  1.0000
  H   H871      1.0  0.71225  0.81486  0.72204  1.0000
  H   H872      1.0  0.67054  0.64626  0.53515  1.0000
  H   H873      1.0  0.53869  0.64990  0.56958  1.0000
  C   C875      1.0  0.66032  0.67509  0.59346  1.0000
  C   C876      1.0  0.93938  0.88074  0.66608  1.0000
  H   H874      1.0  0.93375  0.89787  0.67049  1.0000
  H   H875      1.0  0.65755  0.68316  0.60989  1.0000
  C   C877      1.0  0.99653  0.85852  0.60331  1.0000
  H   H876      1.0  0.75502  0.65699  0.73513  1.0000
  H   H877      1.0  0.70274  0.64446  0.56552  1.0000
  N   N73       1.0  0.69058  0.82945  0.74828  1.0000
  C   C878      1.0  0.88433  0.98107  0.61377  1.0000
  H   H878      1.0  0.90214  0.86667  0.66512  1.0000
  H   H879      1.0  0.82556  0.98746  0.64996  1.0000
  H   H880      1.0  0.63218  0.66606  0.54284  1.0000
  C   C879      1.0  0.83932  0.99431  0.66249  1.0000
  C   C880      1.0  0.66798  0.65448  0.55156  1.0000
  H   H881      1.0  0.62036  0.70455  0.57683  1.0000
  H   H882      1.0  0.54491  0.60845  0.56285  1.0000
  H   H883      1.0  0.97688  0.91121  0.65929  1.0000
  C   C881      1.0  0.97076  0.85487  0.65750  1.0000
  C   C882      1.0  0.67160  0.81344  0.74679  1.0000
  C   C883      1.0  0.71445  0.82451  0.73830  1.0000
  N   N74       1.0  0.64231  0.67508  0.57707  1.0000
  C   C884      1.0  0.80893  0.67755  0.75273  1.0000
  H   H884      1.0  0.80879  0.69431  0.74400  1.0000
  H   H885      1.0  0.95885  0.82022  0.64849  1.0000
  C   C885      1.0  0.62605  0.61666  0.51629  1.0000
  C   C886      1.0  0.61903  0.68594  0.58177  1.0000
  C   C887      1.0  0.52646  0.61482  0.56350  1.0000
  H   H886      1.0  0.61419  0.68417  0.60036  1.0000
  C   C888      1.0  0.51380  0.62836  0.62670  1.0000
  N   N75       1.0  0.96369  0.87640  0.66345  1.0000
  H   H887      1.0  0.76888  0.68498  0.72986  1.0000
  C   C889      1.0  0.52294  0.63816  0.56730  1.0000
  H   H888      1.0  0.72545  0.84056  0.73405  1.0000
  C   C890      1.0  0.92140  0.86326  0.66281  1.0000
  N   N76       1.0  0.78804  0.66375  0.75401  1.0000
  C   C891      1.0  0.50963  0.60486  0.62249  1.0000
  H   H889      1.0  0.51083  0.57780  0.67438  1.0000
  H   H890      1.0  0.91714  0.00213  0.61915  1.0000
  C   C892      1.0  0.60425  0.62864  0.51580  1.0000
  C   C893      1.0  0.00029  0.90537  0.61354  1.0000
  H   H891      1.0  0.91443  0.82786  0.65352  1.0000
  H   H892      1.0  0.83352  0.98903  0.68018  1.0000
  H   H893      1.0  0.85680  0.98596  0.65838  1.0000
  C   C894      1.0  0.89745  0.88427  0.51452  1.0000
  H   H894      1.0  0.00183  0.92348  0.61783  1.0000
  H   H895      1.0  0.50905  0.58153  0.55850  1.0000
  H   H896      1.0  0.65976  0.50526  0.58953  1.0000
  C   C895      1.0  0.87378  0.87418  0.51430  1.0000
  C   C896      1.0  0.84765  0.00200  0.60561  1.0000
  H   H897      1.0  0.82816  0.00197  0.60214  1.0000
  C   C897      1.0  0.50607  0.59974  0.56085  1.0000
  C   C898      1.0  0.89775  0.00217  0.61520  1.0000
  H   H898      1.0  0.63442  0.80399  0.75680  1.0000
  C   C899      1.0  0.64906  0.81718  0.75731  1.0000
  H   H899      1.0  0.50574  0.61895  0.68388  1.0000
  C   C900      1.0  0.64537  0.50369  0.60233  1.0000
  H   H900      1.0  0.75339  0.67884  0.75675  1.0000
  Fe  Fe151     1.0  0.58583  0.87250  0.88416  1.0000
  S   S301      1.0  0.62187  0.85882  0.89665  1.0000
  S   S302      1.0  0.55008  0.85190  0.88850  1.0000
  Fe  Fe152     1.0  0.60798  0.91984  0.87110  1.0000
  S   S303      1.0  0.64557  0.91000  0.88212  1.0000
  S   S304      1.0  0.59525  0.95494  0.85937  1.0000
  Fe  Fe153     1.0  0.63754  0.87611  0.86441  1.0000
  S   S305      1.0  0.66949  0.86332  0.84294  1.0000
  Fe  Fe154     1.0  0.62688  0.89350  0.91308  1.0000
  S   S306      1.0  0.64182  0.90372  0.94792  1.0000
  S   S307      1.0  0.60100  0.88742  0.85085  1.0000
  S   S308      1.0  0.58983  0.90560  0.90315  1.0000
  Fe  Fe155     1.0  0.87594  0.58544  0.89295  1.0000
  S   S309      1.0  0.84737  0.61074  0.90230  1.0000
  S   S310      1.0  0.87765  0.54888  0.90752  1.0000
  Fe  Fe156     1.0  0.90959  0.62276  0.87117  1.0000
  S   S311      1.0  0.88399  0.65128  0.87886  1.0000
  S   S312      1.0  0.94599  0.63088  0.85353  1.0000
  Fe  Fe157     1.0  0.87912  0.63351  0.91351  1.0000
  S   S313      1.0  0.88107  0.65402  0.94640  1.0000
  Fe  Fe158     1.0  0.85410  0.62666  0.86679  1.0000
  S   S314      1.0  0.82113  0.63620  0.84442  1.0000
  S   S315      1.0  0.90727  0.60739  0.90667  1.0000
  S   S316      1.0  0.88021  0.59904  0.85658  1.0000
  C   C901      1.0  0.61779  0.96173  0.93364  1.0000
  H   H901      1.0  0.94259  0.68143  0.88632  1.0000
  S   S317      1.0  0.68548  0.77214  0.78540  1.0000
  H   H902      1.0  0.98556  0.62839  0.93886  1.0000
  S   S318      1.0  0.80253  0.72749  0.78420  1.0000
  C   C902      1.0  0.95254  0.67057  0.89826  1.0000
  C   C903      1.0  0.97222  0.61608  0.86242  1.0000
  Fe  Fe159     1.0  0.76886  0.73912  0.76405  1.0000
  C   C904      1.0  0.83038  0.65012  0.77638  1.0000
  C   C905      1.0  0.70281  0.87762  0.90398  1.0000
  C   C906      1.0  0.97045  0.59729  0.87792  1.0000
  H   H903      1.0  0.54700  0.87010  0.96319  1.0000
  H   H904      1.0  0.95267  0.59112  0.88412  1.0000
  C   C907      1.0  0.81546  0.66318  0.83044  1.0000
  C   C908      1.0  0.83406  0.68014  0.82675  1.0000
  C   C909      1.0  0.82947  0.70010  0.81328  1.0000
  C   C910      1.0  0.80627  0.70343  0.80336  1.0000
  C   C911      1.0  0.78743  0.68685  0.80769  1.0000
  C   C912      1.0  0.79204  0.66685  0.82112  1.0000
  H   H905      1.0  0.85217  0.67761  0.83376  1.0000
  H   H906      1.0  0.84417  0.71283  0.81011  1.0000
  H   H907      1.0  0.76946  0.68919  0.80034  1.0000
  H   H908      1.0  0.77749  0.65390  0.82393  1.0000
  C   C913      1.0  0.87952  0.63875  0.97299  1.0000
  C   C914      1.0  0.87415  0.61497  0.97392  1.0000
  H   H909      1.0  0.70935  0.85789  0.87391  1.0000
  H   H910      1.0  0.87107  0.60563  0.95818  1.0000
  C   C915      1.0  0.87201  0.52330  0.89228  1.0000
  C   C916      1.0  0.68446  0.81827  0.88417  1.0000
  C   C917      1.0  0.85971  0.52296  0.87117  1.0000
  H   H911      1.0  0.58161  0.00212  0.85622  1.0000
  H   H912      1.0  0.85344  0.53891  0.86355  1.0000
  C   C918      1.0  0.63313  0.88889  0.97370  1.0000
  N   N77       1.0  0.51634  0.87496  0.94126  1.0000
  C   C919      1.0  0.62213  0.86666  0.97366  1.0000
  H   H913      1.0  0.60914  0.83740  0.99458  1.0000
  H   H914      1.0  0.61789  0.85847  0.95751  1.0000
  C   C920      1.0  0.67378  0.83725  0.82803  1.0000
  C   C921      1.0  0.65515  0.82017  0.82597  1.0000
  C   C922      1.0  0.65933  0.80009  0.81339  1.0000
  C   C923      1.0  0.68208  0.79683  0.80270  1.0000
  C   C924      1.0  0.70087  0.81369  0.80519  1.0000
  C   C925      1.0  0.69671  0.83377  0.81779  1.0000
  H   H915      1.0  0.63744  0.82253  0.83379  1.0000
  H   H916      1.0  0.64469  0.78712  0.81161  1.0000
  H   H917      1.0  0.71851  0.81137  0.79723  1.0000
  H   H918      1.0  0.71131  0.84680  0.81937  1.0000
  C   C926      1.0  0.63546  0.98075  0.87497  1.0000
  C   C927      1.0  0.61158  0.98082  0.86616  1.0000
  C   C928      1.0  0.64296  0.99262  0.94949  1.0000
  H   H919      1.0  0.64453  0.96458  0.87733  1.0000
  H   H920      1.0  0.93226  0.65422  0.96324  1.0000
  H   H921      1.0  0.55486  0.87756  0.93377  1.0000
  C   C929      1.0  0.61722  0.85475  0.99465  1.0000
  C   C930      1.0  0.52365  0.86649  0.88003  1.0000
  C   C931      1.0  0.52558  0.88794  0.86855  1.0000
  C   C932      1.0  0.69148  0.87777  0.92547  1.0000
  H   H922      1.0  0.61384  0.94344  0.93128  1.0000
  C   C933      1.0  0.94169  0.63990  0.95484  1.0000
  H   H923      1.0  0.54347  0.89557  0.86432  1.0000
  S   S319      1.0  0.75677  0.77607  0.76524  1.0000
  C   C934      1.0  0.97594  0.66355  0.89268  1.0000
  H   H924      1.0  0.65861  0.99815  0.95978  1.0000
  H   H925      1.0  0.69238  0.89325  0.93572  1.0000
  H   H926      1.0  0.98424  0.66895  0.87638  1.0000
  H   H927      1.0  0.68626  0.80199  0.89437  1.0000
  N   N78       1.0  0.68780  0.83851  0.89875  1.0000
  H   H928      1.0  0.92338  0.66817  0.92296  1.0000
  H   H929      1.0  0.94521  0.54494  0.86192  1.0000
  H   H930      1.0  0.86739  0.58499  0.99590  1.0000
  C   C935      1.0  0.60003  0.00195  0.86311  1.0000
  H   H931      1.0  0.69829  0.81832  0.87009  1.0000
  H   H932      1.0  0.84662  0.68235  0.76349  1.0000
  C   C936      1.0  0.92840  0.53673  0.86980  1.0000
  N   N79       1.0  0.95371  0.64820  0.93351  1.0000
  H   H933      1.0  0.99694  0.63831  0.84233  1.0000
  C   C937      1.0  0.94165  0.66274  0.91889  1.0000
  C   C938      1.0  0.54153  0.86766  0.94497  1.0000
  C   C939      1.0  0.64768  0.00173  0.88059  1.0000
  H   H934      1.0  0.70328  0.86138  0.76253  1.0000
  N   N80       1.0  0.92814  0.51159  0.86692  1.0000
  H   H935      1.0  0.91200  0.54446  0.86176  1.0000
  C   C940      1.0  0.67648  0.83858  0.91975  1.0000
  H   H936      1.0  0.92770  0.54115  0.88832  1.0000
  Fe  Fe160     1.0  0.71838  0.76068  0.76448  1.0000
  C   C941      1.0  0.51187  0.89425  0.92811  1.0000
  C   C942      1.0  0.98797  0.64845  0.90749  1.0000
  H   H937      1.0  0.90754  0.51273  0.83571  1.0000
  H   H938      1.0  0.54302  0.84918  0.94048  1.0000
  C   C943      1.0  0.87216  0.60330  0.99531  1.0000
  H   H939      1.0  0.92769  0.62610  0.95098  1.0000
  C   C944      1.0  0.67832  0.85812  0.93350  1.0000
  C   C945      1.0  0.64610  0.83735  0.76958  1.0000
  H   H940      1.0  0.66902  0.85834  0.95001  1.0000
  C   C946      1.0  0.88362  0.65064  0.99356  1.0000
  C   C947      1.0  0.70089  0.85768  0.89082  1.0000
  H   H941      1.0  0.88794  0.66903  0.99290  1.0000
  H   H942      1.0  0.80846  0.62070  0.78856  1.0000
  H   H943      1.0  0.62903  0.84007  0.77856  1.0000
  H   H944      1.0  0.66554  0.82365  0.92579  1.0000
  H   H945      1.0  0.66617  0.00159  0.88730  1.0000
  H   H946      1.0  0.71254  0.89300  0.89730  1.0000
  H   H947      1.0  0.66598  0.81836  0.87609  1.0000
  C   C948      1.0  0.66563  0.85347  0.77123  1.0000
  H   H948      1.0  0.52684  0.90398  0.91969  1.0000
  H   H949      1.0  0.84653  0.64531  0.78603  1.0000
  H   H950      1.0  0.64704  0.91647  0.99498  1.0000
  H   H951      1.0  0.66381  0.86872  0.78159  1.0000
  H   H952      1.0  0.82315  0.62117  0.99863  1.0000
  C   C949      1.0  0.99545  0.62385  0.85441  1.0000
  H   H953      1.0  0.95495  0.63296  0.96746  1.0000
  H   H954      1.0  0.99026  0.57173  0.89716  1.0000
  H   H955      1.0  0.64914  0.95617  0.95523  1.0000
  C   C950      1.0  0.63775  0.96894  0.94701  1.0000
  C   C951      1.0  0.99176  0.58636  0.88529  1.0000
  C   C952      1.0  0.63855  0.89929  0.99478  1.0000
  C   C953      1.0  0.97638  0.64066  0.92782  1.0000
  C   C954      1.0  0.60316  0.97814  0.92312  1.0000
  C   C955      1.0  0.78778  0.64342  0.76647  1.0000
  C   C956      1.0  0.80894  0.63627  0.77779  1.0000
  H   H956      1.0  0.50598  0.91603  0.85323  1.0000
  H   H957      1.0  0.94861  0.50552  0.89758  1.0000
  C   C957      1.0  0.83044  0.67087  0.76373  1.0000
  S   S320      1.0  0.73051  0.72370  0.76596  1.0000
  C   C958      1.0  0.68792  0.84917  0.76048  1.0000
  H   H958      1.0  0.58801  0.97266  0.91214  1.0000
  H   H959      1.0  0.77095  0.63298  0.76828  1.0000
  C   C959      1.0  0.50431  0.89952  0.86230  1.0000
  C   C960      1.0  0.60884  0.00168  0.92602  1.0000
  H   H960      1.0  0.84022  0.50413  0.94316  1.0000
