data_image0
_chemical_formula_structural       HSHSFeSFeHCFeS2FeS2FeSFeS3CH2C2HFeSFeS3HSCH2C6H4C6H4C3H2C6H4CHCH2C2H2SH5C2SNC6H9CHNHSCHC2HC2HCNC2HC3SHCH2NC2HC2H6NCH4CHCFeHCHCHSH2C2HSNFeC2HCHC3H2C3SCSFeSCS2FeS2FeS2FeSFeS3C2HC3FeSFeS3HCH2SC6H4C6H4C3H2C6H4C2H2CHCH2NCFeHCH2CH2NC2HC3H3CH2CSNCH2CHCHCH2CH3NC6H9NSC2HC2FeSHC2H2FeH3FeCNH2CHCHC2H3SFeCSHSFeSFeSHFeS2FeS2FeSFeS3FeS2FeS2CH2SH2SNHC8H4C6H4C3H2CHC2H2CH2C6H4FeC2H6C6H2NC5H4C2H3CHC2NC6H10CNFe2CFeCHCH2CH3NHCH2CH2SHC2HCHCSNHSHCHCSC2NCH4C2NFeHCSCSFeSFeSFe2S2FeS2FeSFeS3FeS2FeS2H4NC3NHSC6H4C6H4C3H4CH2C2SHC6H6FeHCHCHCH3CHC2HCHC2NC5H8C2HC2HCH4CNC6HC2H6CH2NHCSH2C2H2SC2HCH5C4H2CFeHC5SFeS2FeS2HC2HCNFeSHCSCHCHCHSNCHC4SH3CHCHCH2CHSCH3CHFeSC4H2C2FeH2CH2FeH2SCNFeSFeCH3CSC3SC2HC3SCH3SHCSC2NC2H2CH2CHCH3FeHC3H5FeH2CFeS2FeS2CH3CNS2H2SFeH6CH2C3S2CFeHC4H2C2H4CHSFeCHC2HCSH3CHNC2HCH2CHC2HC2H3C6HFeHSHCH2CH2CSNHCHFe2SCHCSCFeSNFeSCHFeCHCFeSHFeSCHSHS2H3C2SHFeC4NHC5SHC4H4SHS2HCHCH8C3H2C4HCHCHFeNCHCHSNHC2H2C2HCHC2SCHSH4CHSCFeSH2SHCSHCSFeH2S2HFeS2FeS2CFe2SCHC2HFeC2NH2FeHC2SCHCHCHC4SH3CH2NHCHCSHCH2C2SCH2CH2CHC8NC2HCH2CHC3SH8CH2NC2SHC2FeS2FeS2FeHFeHS2H3CHCHCFeSFeS3FeS2FeS2FeSFeS3HCH2C7H4C6H4CHCSCSCHSNSCH3C6H4CSH3C3HC3HNC4H3CH4C2FeHCHCHNC6H7CNC6H9CH2CSC2HNC3HSC2SH2C2HSCHCHFeS2FeS2FeHFeHS2H2C2H2CHFeSFeS3FeS2FeS2FeSFeS3CH4C6H4C6H5C3HCHC2Fe2CH2C7H6C4H2CFeC3NC4HC2HCH5CHSH2C3H2SHN2C3H3C2HC2HC2NC6HNH3C2HCH2CSHCSHCHCH2CHSNCH4C2SC2H2C2HCH2CHNHCHC2SHSH2CHCHFeS2FeS2FeSFeCS3C2HSC2FeSFeS3FeS2FeS2FeSFeS3NC2H2C6H4C6H6CH4CH2CHC9H4CHC2HC5HC2HSCH2C2H4C2H8NCHC3H6C3NC6H8CNC3H4CS2H4CNHC2HCH4C5HSNHC2HCH2C3H4Fe2S2FeS2FeHFeHS2CHC2HCHFeSFeS3FeS2FeS2FeSFeS3C2H3C6H4C6H5CNCFeCSH3SC2HSC6H5C2HC2H5C6FeCHCSHC2NC6H8SCHCH4SHFeNCH4NC6H3C2H2FeNC5H3CHC2H3NHCHCH2CHCHCSCHCS
_chemical_formula_sum              "H768 S256 Fe128 C768 N64"
_cell_length_a       53.9081
_cell_length_b       53.8596
_cell_length_c       47.5397
_cell_angle_alpha    90.7996
_cell_angle_beta     90.49
_cell_angle_gamma    88.8187

_space_group_name_H-M_alt    "P 1"
_space_group_IT_number       1

loop_
  _space_group_symop_operation_xyz
  'x, y, z'

loop_
  _atom_site_type_symbol
  _atom_site_label
  _atom_site_symmetry_multiplicity
  _atom_site_fract_x
  _atom_site_fract_y
  _atom_site_fract_z
  _atom_site_occupancy
  H   H1        1.0  0.21367  0.44918  0.41460  1.0000
  S   S1        1.0  0.28095  0.12534  0.29055  1.0000
  H   H2        1.0  0.07168  0.21868  0.23163  1.0000
  S   S2        1.0  0.30698  0.12177  0.22817  1.0000
  Fe  Fe1       1.0  0.28006  0.14765  0.25068  1.0000
  S   S3        1.0  0.24993  0.16758  0.22556  1.0000
  Fe  Fe2       1.0  0.31087  0.10172  0.26938  1.0000
  H   H3        1.0  0.29057  0.33465  0.04010  1.0000
  C   C1        1.0  0.09382  0.23859  0.29501  1.0000
  Fe  Fe3       1.0  0.15927  0.32247  0.28520  1.0000
  S   S4        1.0  0.13607  0.29255  0.30257  1.0000
  S   S5        1.0  0.18670  0.34480  0.31134  1.0000
  Fe  Fe4       1.0  0.14184  0.31157  0.22483  1.0000
  S   S6        1.0  0.11758  0.28012  0.23821  1.0000
  S   S7        1.0  0.13912  0.32436  0.17939  1.0000
  Fe  Fe5       1.0  0.10567  0.30586  0.27330  1.0000
  S   S8        1.0  0.06700  0.31103  0.29194  1.0000
  Fe  Fe6       1.0  0.14993  0.26939  0.26615  1.0000
  S   S9        1.0  0.16130  0.23073  0.28025  1.0000
  S   S10       1.0  0.12798  0.33800  0.25866  1.0000
  S   S11       1.0  0.17510  0.29864  0.25005  1.0000
  C   C2        1.0  0.29847  0.18995  0.16756  1.0000
  H   H4        1.0  0.22720  0.21773  0.34903  1.0000
  H   H5        1.0  0.33144  0.24190  0.09801  1.0000
  C   C3        1.0  0.23828  0.48843  0.50228  1.0000
  C   C4        1.0  0.27358  0.31342  0.45312  1.0000
  H   H6        1.0  0.08989  0.27228  0.33632  1.0000
  Fe  Fe7       1.0  0.22228  0.37196  0.05235  1.0000
  S   S12       1.0  0.22381  0.36094  0.09863  1.0000
  Fe  Fe8       1.0  0.20257  0.37078  0.47869  1.0000
  S   S13       1.0  0.17673  0.35520  0.44480  1.0000
  S   S14       1.0  0.25201  0.39815  0.03868  1.0000
  S   S15       1.0  0.23189  0.39967  0.47537  1.0000
  H   H7        1.0  0.11109  0.23917  0.30689  1.0000
  S   S16       1.0  0.22596  0.34481  0.50468  1.0000
  C   C5        1.0  0.17050  0.43851  0.46445  1.0000
  H   H8        1.0  0.28578  0.25559  0.47763  1.0000
  H   H9        1.0  0.19922  0.28268  0.30709  1.0000
  C   C6        1.0  0.18429  0.34694  0.34857  1.0000
  C   C7        1.0  0.16378  0.33777  0.36259  1.0000
  C   C8        1.0  0.16207  0.34017  0.39205  1.0000
  C   C9        1.0  0.18088  0.35155  0.40795  1.0000
  C   C10       1.0  0.20153  0.36060  0.39403  1.0000
  C   C11       1.0  0.20316  0.35838  0.36445  1.0000
  H   H10       1.0  0.14900  0.32915  0.35071  1.0000
  H   H11       1.0  0.14594  0.33324  0.40258  1.0000
  H   H12       1.0  0.21610  0.36950  0.40599  1.0000
  H   H13       1.0  0.21910  0.36556  0.35381  1.0000
  C   C12       1.0  0.16336  0.33086  0.15581  1.0000
  C   C13       1.0  0.18831  0.32983  0.16403  1.0000
  C   C14       1.0  0.20672  0.33810  0.14569  1.0000
  C   C15       1.0  0.20039  0.34746  0.11903  1.0000
  C   C16       1.0  0.17555  0.34754  0.11037  1.0000
  C   C17       1.0  0.15715  0.33922  0.12869  1.0000
  H   H14       1.0  0.19336  0.32332  0.18477  1.0000
  H   H15       1.0  0.22594  0.33782  0.15244  1.0000
  H   H16       1.0  0.17044  0.35462  0.08989  1.0000
  H   H17       1.0  0.13789  0.33994  0.12209  1.0000
  C   C18       1.0  0.03782  0.30598  0.27534  1.0000
  C   C19       1.0  0.01601  0.31022  0.29091  1.0000
  C   C20       1.0  0.03585  0.29655  0.24786  1.0000
  H   H18       1.0  0.01729  0.31745  0.31221  1.0000
  H   H19       1.0  0.05245  0.29314  0.23565  1.0000
  C   C21       1.0  0.22609  0.18563  0.24167  1.0000
  C   C22       1.0  0.21609  0.17903  0.26749  1.0000
  C   C23       1.0  0.19623  0.19303  0.27904  1.0000
  C   C24       1.0  0.18650  0.21397  0.26513  1.0000
  C   C25       1.0  0.19678  0.22085  0.23956  1.0000
  C   C26       1.0  0.21632  0.20654  0.22774  1.0000
  H   H20       1.0  0.22318  0.16270  0.27815  1.0000
  H   H21       1.0  0.18822  0.18748  0.29871  1.0000
  H   H22       1.0  0.18930  0.23681  0.22855  1.0000
  H   H23       1.0  0.22375  0.21158  0.20758  1.0000
  C   C27       1.0  0.30933  0.03137  0.26523  1.0000
  H   H24       1.0  0.31425  0.13990  0.50822  1.0000
  C   C28       1.0  0.28427  0.02882  0.25811  1.0000
  H   H25       1.0  0.20169  0.49584  0.06590  1.0000
  H   H26       1.0  0.30341  0.19237  0.09651  1.0000
  C   C29       1.0  0.29612  0.31740  0.43992  1.0000
  C   C30       1.0  0.19070  0.44936  0.45144  1.0000
  H   H27       1.0  0.19895  0.25466  0.34802  1.0000
  H   H28       1.0  0.31432  0.30066  0.06346  1.0000
  S   S17       1.0  0.30914  0.17401  0.26520  1.0000
  H   H29       1.0  0.16536  0.44477  0.48544  1.0000
  H   H30       1.0  0.30329  0.13994  0.45712  1.0000
  H   H31       1.0  0.11902  0.41756  0.45765  1.0000
  H   H32       1.0  0.27836  0.17281  0.13338  1.0000
  H   H33       1.0  0.27234  0.04516  0.25662  1.0000
  C   C31       1.0  0.32235  0.13678  0.46389  1.0000
  C   C32       1.0  0.19771  0.44124  0.42463  1.0000
  S   S18       1.0  0.29455  0.36437  0.49507  1.0000
  N   N1        1.0  0.17127  0.38613  0.18566  1.0000
  C   C33       1.0  0.16493  0.37732  0.21143  1.0000
  C   C34       1.0  0.19566  0.38930  0.17906  1.0000
  C   C35       1.0  0.18327  0.37097  0.23123  1.0000
  C   C36       1.0  0.21448  0.38294  0.19827  1.0000
  C   C37       1.0  0.20818  0.37371  0.22451  1.0000
  C   C38       1.0  0.15168  0.39304  0.16549  1.0000
  H   H34       1.0  0.14559  0.37465  0.21651  1.0000
  H   H35       1.0  0.20075  0.39587  0.15843  1.0000
  H   H36       1.0  0.17823  0.36377  0.25159  1.0000
  H   H37       1.0  0.23380  0.38475  0.19256  1.0000
  H   H38       1.0  0.22253  0.36852  0.23960  1.0000
  H   H39       1.0  0.13619  0.37970  0.16627  1.0000
  H   H40       1.0  0.14442  0.41202  0.17037  1.0000
  H   H41       1.0  0.15866  0.39236  0.14353  1.0000
  H   H42       1.0  0.25035  0.26128  0.02321  1.0000
  C   C39       1.0  0.05074  0.24810  0.29081  1.0000
  H   H43       1.0  0.25957  0.32818  0.45407  1.0000
  N   N2        1.0  0.07253  0.24912  0.30573  1.0000
  H   H44       1.0  0.01105  0.28364  0.21512  1.0000
  S   S19       1.0  0.19216  0.39131  0.02742  1.0000
  C   C40       1.0  0.30728  0.19648  0.11850  1.0000
  H   H45       1.0  0.33323  0.13681  0.17963  1.0000
  C   C41       1.0  0.29312  0.18531  0.13922  1.0000
  C   C42       1.0  0.28855  0.27262  0.46626  1.0000
  H   H46       1.0  0.15373  0.39791  0.41388  1.0000
  C   C43       1.0  0.16398  0.41248  0.42450  1.0000
  C   C44       1.0  0.27446  0.00496  0.25350  1.0000
  H   H47       1.0  0.32616  0.24200  0.46749  1.0000
  C   C45       1.0  0.09379  0.22731  0.26832  1.0000
  N   N3        1.0  0.24272  0.22466  0.30885  1.0000
  C   C46       1.0  0.22736  0.22987  0.33104  1.0000
  C   C47       1.0  0.24295  0.23999  0.28615  1.0000
  H   H48       1.0  0.24887  0.47202  0.49605  1.0000
  C   C48       1.0  0.22734  0.26107  0.28515  1.0000
  C   C49       1.0  0.21156  0.26648  0.30763  1.0000
  C   C50       1.0  0.25995  0.20327  0.30996  1.0000
  S   S20       1.0  0.30847  0.16994  0.34667  1.0000
  H   H49       1.0  0.25491  0.23569  0.26842  1.0000
  C   C51       1.0  0.30460  0.32419  0.02856  1.0000
  H   H50       1.0  0.22717  0.27291  0.26688  1.0000
  H   H51       1.0  0.25497  0.00318  0.24844  1.0000
  N   N4        1.0  0.15776  0.41997  0.45118  1.0000
  C   C52       1.0  0.31804  0.30483  0.04172  1.0000
  C   C53       1.0  0.21146  0.25076  0.33069  1.0000
  H   H52       1.0  0.18955  0.41608  0.39017  1.0000
  C   C54       1.0  0.26968  0.29089  0.46634  1.0000
  C   C55       1.0  0.18421  0.42275  0.41095  1.0000
  H   H53       1.0  0.28098  0.01526  0.32139  1.0000
  H   H54       1.0  0.13799  0.41076  0.48832  1.0000
  H   H55       1.0  0.25289  0.18835  0.32351  1.0000
  H   H56       1.0  0.26259  0.19484  0.28870  1.0000
  H   H57       1.0  0.27828  0.20908  0.31833  1.0000
  H   H58       1.0  0.13623  0.38843  0.46041  1.0000
  N   N5        1.0  0.32623  0.21187  0.12585  1.0000
  C   C56       1.0  0.07181  0.22686  0.25261  1.0000
  H   H59       1.0  0.33098  0.13504  0.12766  1.0000
  H   H60       1.0  0.11086  0.21942  0.25973  1.0000
  H   H61       1.0  0.03384  0.25649  0.29923  1.0000
  H   H62       1.0  0.25255  0.28806  0.47757  1.0000
  C   C57       1.0  0.31452  0.29868  0.44006  1.0000
  H   H63       1.0  0.31143  0.19406  0.40078  1.0000
  C   C58       1.0  0.01234  0.29113  0.23630  1.0000
  Fe  Fe9       1.0  0.31196  0.15059  0.30383  1.0000
  H   H64       1.0  0.29966  0.33532  0.43076  1.0000
  C   C59       1.0  0.31779  0.20570  0.17485  1.0000
  H   H65       1.0  0.20109  0.46367  0.46237  1.0000
  C   C60       1.0  0.13663  0.40873  0.46505  1.0000
  H   H66       1.0  0.05697  0.27389  0.33675  1.0000
  S   S21       1.0  0.23004  0.34394  0.01788  1.0000
  H   H67       1.0  0.03291  0.23730  0.25184  1.0000
  H   H68       1.0  0.07281  0.24648  0.35024  1.0000
  C   C61       1.0  0.05009  0.23720  0.26394  1.0000
  C   C62       1.0  0.07306  0.26085  0.33375  1.0000
  H   H69       1.0  0.28791  0.18106  0.18384  1.0000
  S   S22       1.0  0.32255  0.06062  0.27356  1.0000
  N   N6        1.0  0.31064  0.27669  0.45325  1.0000
  Fe  Fe10      1.0  0.25430  0.37455  0.50427  1.0000
  C   C63       1.0  0.33097  0.32801  0.49990  1.0000
  C   C64       1.0  0.32958  0.18612  0.39630  1.0000
  H   H70       1.0  0.33224  0.30216  0.43041  1.0000
  C   C65       1.0  0.32450  0.00983  0.26703  1.0000
  H   H71       1.0  0.32253  0.20886  0.19683  1.0000
  C   C66       1.0  0.33142  0.21675  0.15360  1.0000
  C   C67       1.0  0.30680  0.33574  0.50738  1.0000
  C   C68       1.0  0.32849  0.13679  0.49249  1.0000
  H   H72       1.0  0.33333  0.24995  0.43173  1.0000
  H   H73       1.0  0.33353  0.06145  0.21361  1.0000
  C   C69       1.0  0.33351  0.17320  0.37073  1.0000
  C   C70       1.0  0.33044  0.25757  0.45331  1.0000
  C   C71       1.0  0.27799  0.16671  0.84641  1.0000
  S   S23       1.0  0.30911  0.12387  0.80045  1.0000
  C   C72       1.0  0.30983  0.20319  0.86536  1.0000
  S   S24       1.0  0.29739  0.11986  0.73192  1.0000
  Fe  Fe11      1.0  0.28496  0.14385  0.76864  1.0000
  S   S25       1.0  0.24489  0.15564  0.77748  1.0000
  C   C73       1.0  0.22258  0.48603  0.00544  1.0000
  S   S26       1.0  0.18505  0.38872  0.51695  1.0000
  S   S27       1.0  0.31266  0.17301  0.76121  1.0000
  Fe  Fe12      1.0  0.15297  0.32674  0.79506  1.0000
  S   S28       1.0  0.14491  0.28578  0.79333  1.0000
  S   S29       1.0  0.16851  0.35142  0.83041  1.0000
  Fe  Fe13      1.0  0.14560  0.33220  0.73062  1.0000
  S   S30       1.0  0.13678  0.29198  0.72459  1.0000
  S   S31       1.0  0.14868  0.36093  0.69604  1.0000
  Fe  Fe14      1.0  0.11334  0.29698  0.76363  1.0000
  S   S32       1.0  0.07534  0.27827  0.76439  1.0000
  Fe  Fe15      1.0  0.16864  0.28415  0.75439  1.0000
  S   S33       1.0  0.20251  0.26109  0.74054  1.0000
  S   S34       1.0  0.12017  0.33800  0.76778  1.0000
  S   S35       1.0  0.17857  0.32430  0.75810  1.0000
  C   C74       1.0  0.28828  0.16512  0.87336  1.0000
  C   C75       1.0  0.29225  0.31985  0.52297  1.0000
  H   H74       1.0  0.23904  0.36648  0.60921  1.0000
  C   C76       1.0  0.28570  0.00756  0.75188  1.0000
  C   C77       1.0  0.30692  0.22436  0.82000  1.0000
  C   C78       1.0  0.22439  0.27948  0.99506  1.0000
  Fe  Fe16      1.0  0.21077  0.36489  0.54291  1.0000
  S   S36       1.0  0.20149  0.33892  0.57879  1.0000
  Fe  Fe17      1.0  0.20273  0.36564  0.99141  1.0000
  S   S37       1.0  0.17505  0.34503  0.96362  1.0000
  S   S38       1.0  0.24097  0.39317  0.54430  1.0000
  S   S39       1.0  0.23077  0.39121  0.97416  1.0000
  H   H75       1.0  0.24552  0.32625  0.62862  1.0000
  C   C79       1.0  0.22005  0.32391  0.69357  1.0000
  H   H76       1.0  0.28430  0.14943  0.88654  1.0000
  H   H77       1.0  0.27377  0.32568  0.52920  1.0000
  S   S40       1.0  0.33381  0.25661  0.52757  1.0000
  C   C80       1.0  0.17279  0.34610  0.86684  1.0000
  C   C81       1.0  0.18947  0.36110  0.88190  1.0000
  C   C82       1.0  0.19108  0.36024  0.91144  1.0000
  C   C83       1.0  0.17578  0.34452  0.92633  1.0000
  C   C84       1.0  0.15968  0.32888  0.91126  1.0000
  C   C85       1.0  0.15822  0.32958  0.88162  1.0000
  H   H78       1.0  0.20079  0.37395  0.87064  1.0000
  H   H79       1.0  0.20352  0.37244  0.92266  1.0000
  H   H80       1.0  0.14777  0.31662  0.92257  1.0000
  H   H81       1.0  0.14517  0.31808  0.87030  1.0000
  C   C86       1.0  0.16074  0.35413  0.66212  1.0000
  C   C87       1.0  0.16443  0.37366  0.64333  1.0000
  C   C88       1.0  0.17591  0.36924  0.61712  1.0000
  C   C89       1.0  0.18387  0.34520  0.60953  1.0000
  C   C90       1.0  0.17943  0.32559  0.62793  1.0000
  C   C91       1.0  0.16795  0.32999  0.65409  1.0000
  H   H82       1.0  0.15875  0.39237  0.64931  1.0000
  H   H83       1.0  0.17907  0.38448  0.60310  1.0000
  H   H84       1.0  0.18538  0.30691  0.62217  1.0000
  H   H85       1.0  0.16510  0.31480  0.66826  1.0000
  C   C92       1.0  0.04501  0.29214  0.76389  1.0000
  C   C93       1.0  0.04074  0.31706  0.77135  1.0000
  C   C94       1.0  0.02443  0.27710  0.75814  1.0000
  H   H86       1.0  0.05632  0.32886  0.77593  1.0000
  H   H87       1.0  0.02749  0.25778  0.75238  1.0000
  C   C95       1.0  0.23434  0.18647  0.77098  1.0000
  C   C96       1.0  0.21021  0.19401  0.77883  1.0000
  C   C97       1.0  0.20048  0.21751  0.77114  1.0000
  C   C98       1.0  0.21487  0.23357  0.75551  1.0000
  C   C99       1.0  0.23934  0.22645  0.74889  1.0000
  C   C100      1.0  0.24902  0.20308  0.75655  1.0000
  H   H88       1.0  0.19871  0.18135  0.79012  1.0000
  H   H89       1.0  0.18157  0.22279  0.77634  1.0000
  H   H90       1.0  0.25060  0.23875  0.73679  1.0000
  H   H91       1.0  0.26744  0.19758  0.74999  1.0000
  C   C101      1.0  0.32120  0.03271  0.76479  1.0000
  C   C102      1.0  0.29673  0.03101  0.75504  1.0000
  H   H92       1.0  0.26579  0.15238  0.83839  1.0000
  H   H93       1.0  0.28645  0.04770  0.74943  1.0000
  C   C103      1.0  0.22189  0.29503  0.97183  1.0000
  H   H94       1.0  0.21484  0.31069  0.70944  1.0000
  C   C104      1.0  0.23728  0.33286  0.64816  1.0000
  H   H95       1.0  0.21564  0.38531  0.67917  1.0000
  H   H96       1.0  0.20805  0.27311  0.00576  1.0000
  N   N7        1.0  0.23163  0.35757  0.65200  1.0000
  C   C105      1.0  0.32802  0.31648  0.98607  1.0000
  Fe  Fe18      1.0  0.32420  0.10218  0.76298  1.0000
  H   H97       1.0  0.20488  0.35572  0.71605  1.0000
  C   C106      1.0  0.30419  0.18355  0.88303  1.0000
  H   H98       1.0  0.17448  0.42155  0.97642  1.0000
  H   H99       1.0  0.01324  0.34580  0.77998  1.0000
  C   C107      1.0  0.30134  0.29606  0.52993  1.0000
  H   H100      1.0  0.27646  0.18741  0.80825  1.0000
  H   H101      1.0  0.23529  0.29603  0.66542  1.0000
  N   N8        1.0  0.15182  0.40523  0.91226  1.0000
  C   C108      1.0  0.16711  0.41863  0.89565  1.0000
  C   C109      1.0  0.15429  0.40620  0.94094  1.0000
  H   H102      1.0  0.11450  0.40189  0.89857  1.0000
  C   C110      1.0  0.18567  0.43325  0.90773  1.0000
  C   C111      1.0  0.17248  0.42081  0.95368  1.0000
  C   C112      1.0  0.13196  0.39064  0.89934  1.0000
  H   H103      1.0  0.28965  0.28369  0.54138  1.0000
  H   H104      1.0  0.14245  0.39529  0.95413  1.0000
  H   H105      1.0  0.32339  0.21807  0.80766  1.0000
  C   C113      1.0  0.30972  0.33029  0.00076  1.0000
  H   H106      1.0  0.33062  0.02589  0.70600  1.0000
  H   H107      1.0  0.12883  0.37348  0.91144  1.0000
  C   C114      1.0  0.01624  0.32661  0.77365  1.0000
  S   S41       1.0  0.20825  0.45652  0.00688  1.0000
  N   N9        1.0  0.24240  0.30382  0.95880  1.0000
  C   C115      1.0  0.26567  0.29733  0.96818  1.0000
  H   H108      1.0  0.31168  0.24151  0.83192  1.0000
  H   H109      1.0  0.31289  0.18214  0.90365  1.0000
  C   C116      1.0  0.01417  0.29565  0.83596  1.0000
  H   H110      1.0  0.19800  0.44359  0.89455  1.0000
  C   C117      1.0  0.23930  0.32166  0.93599  1.0000
  H   H111      1.0  0.28193  0.30476  0.95828  1.0000
  C   C118      1.0  0.21583  0.48596  0.51643  1.0000
  H   H112      1.0  0.00554  0.23631  0.81618  1.0000
  H   H113      1.0  0.05091  0.25332  0.84677  1.0000
  C   C119      1.0  0.26887  0.28168  0.99122  1.0000
  H   H114      1.0  0.22405  0.31612  0.92147  1.0000
  H   H115      1.0  0.23480  0.34031  0.94507  1.0000
  H   H116      1.0  0.25647  0.32317  0.92341  1.0000
  N   N10       1.0  0.22111  0.17963  0.70157  1.0000
  C   C120      1.0  0.22296  0.20254  0.68974  1.0000
  C   C121      1.0  0.24105  0.16347  0.70176  1.0000
  C   C122      1.0  0.24543  0.21003  0.67836  1.0000
  C   C123      1.0  0.26371  0.17031  0.69037  1.0000
  C   C124      1.0  0.26594  0.19378  0.67878  1.0000
  C   C125      1.0  0.19739  0.17196  0.71315  1.0000
  H   H117      1.0  0.20726  0.21552  0.68995  1.0000
  H   H118      1.0  0.23971  0.14540  0.71142  1.0000
  H   H119      1.0  0.24702  0.22845  0.66973  1.0000
  H   H120      1.0  0.27960  0.15765  0.69083  1.0000
  H   H121      1.0  0.28365  0.19934  0.67040  1.0000
  H   H122      1.0  0.18651  0.18825  0.72133  1.0000
  H   H123      1.0  0.18635  0.16232  0.69666  1.0000
  H   H124      1.0  0.20043  0.15930  0.73123  1.0000
  H   H125      1.0  0.20344  0.30054  0.96471  1.0000
  N   N11       1.0  0.29970  0.20455  0.83892  1.0000
  S   S42       1.0  0.29289  0.35427  0.98336  1.0000
  C   C126      1.0  0.23823  0.37544  0.63043  1.0000
  C   C127      1.0  0.23151  0.31567  0.66884  1.0000
  H   H126      1.0  0.32302  0.21685  0.87257  1.0000
  C   C128      1.0  0.28406  0.18659  0.82935  1.0000
  C   C129      1.0  0.18828  0.43437  0.93695  1.0000
  Fe  Fe19      1.0  0.22227  0.41612  0.01158  1.0000
  S   S43       1.0  0.33070  0.17202  0.68683  1.0000
  H   H127      1.0  0.20258  0.44563  0.94668  1.0000
  C   C130      1.0  0.22063  0.36584  0.67632  1.0000
  C   C131      1.0  0.21461  0.34917  0.69738  1.0000
  H   H128      1.0  0.22399  0.39060  0.62897  1.0000
  H   H129      1.0  0.25655  0.38350  0.63541  1.0000
  Fe  Fe20      1.0  0.25776  0.37088  0.00270  1.0000
  H   H130      1.0  0.04862  0.25005  0.80881  1.0000
  H   H131      1.0  0.16528  0.41770  0.87290  1.0000
  H   H132      1.0  0.05846  0.27858  0.82385  1.0000
  Fe  Fe21      1.0  0.32685  0.14847  0.72609  1.0000
  C   C132      1.0  0.04565  0.26293  0.82705  1.0000
  N   N12       1.0  0.01971  0.27161  0.82821  1.0000
  H   H133      1.0  0.29161  0.22920  0.80509  1.0000
  H   H134      1.0  0.13683  0.38452  0.87757  1.0000
  C   C133      1.0  0.32509  0.28792  0.52153  1.0000
  H   H135      1.0  0.26016  0.47276  0.01122  1.0000
  C   C134      1.0  0.24807  0.27288  0.00485  1.0000
  H   H136      1.0  0.28739  0.27701  0.99890  1.0000
  C   C135      1.0  0.24819  0.48894  0.00858  1.0000
  C   C136      1.0  0.33428  0.01069  0.77175  1.0000
  H   H137      1.0  0.02887  0.30869  0.84009  1.0000
  H   H138      1.0  0.33213  0.32112  0.96456  1.0000
  H   H139      1.0  0.26686  0.00646  0.74401  1.0000
  S   S44       1.0  0.20325  0.45645  0.52420  1.0000
  Fe  Fe22      1.0  0.21624  0.41616  0.51557  1.0000
  C   C137      1.0  0.26664  0.97819  0.32164  1.0000
  S   S45       1.0  0.28229  0.89004  0.29131  1.0000
  H   H140      1.0  0.12332  0.58420  0.47811  1.0000
  S   S46       1.0  0.29347  0.88539  0.22356  1.0000
  Fe  Fe23      1.0  0.29476  0.91559  0.25704  1.0000
  S   S47       1.0  0.27575  0.95374  0.25231  1.0000
  Fe  Fe24      1.0  0.28487  0.85933  0.25868  1.0000
  S   S48       1.0  0.26219  0.82539  0.24695  1.0000
  H   H141      1.0  0.30896  0.82258  0.21742  1.0000
  Fe  Fe25      1.0  0.15794  0.70763  0.22959  1.0000
  S   S49       1.0  0.13103  0.73953  0.23584  1.0000
  S   S50       1.0  0.17965  0.70731  0.18883  1.0000
  Fe  Fe26      1.0  0.15160  0.69076  0.29053  1.0000
  S   S51       1.0  0.12399  0.72145  0.30105  1.0000
  S   S52       1.0  0.17049  0.66268  0.31944  1.0000
  Fe  Fe27      1.0  0.10710  0.71257  0.25849  1.0000
  S   S53       1.0  0.06703  0.71334  0.24216  1.0000
  Fe  Fe28      1.0  0.14998  0.74576  0.27729  1.0000
  S   S54       1.0  0.16085  0.78385  0.29348  1.0000
  S   S55       1.0  0.13305  0.67997  0.24933  1.0000
  S   S56       1.0  0.17849  0.71588  0.26975  1.0000
  Fe  Fe29      1.0  0.19230  0.64140  0.48319  1.0000
  S   S57       1.0  0.23263  0.63340  0.47539  1.0000
  S   S58       1.0  0.16258  0.65594  0.45282  1.0000
  Fe  Fe30      1.0  0.20388  0.63115  0.05118  1.0000
  S   S59       1.0  0.24515  0.62563  0.04875  1.0000
  S   S60       1.0  0.18245  0.62517  0.09149  1.0000
  C   C138      1.0  0.22909  0.68600  0.31395  1.0000
  H   H142      1.0  0.32582  0.83617  0.34425  1.0000
  H   H143      1.0  0.07776  0.78566  0.23034  1.0000
  S   S61       1.0  0.20371  0.66506  0.02465  1.0000
  H   H144      1.0  0.30159  0.92613  0.33294  1.0000
  H   H145      1.0  0.17724  0.57222  0.07404  1.0000
  S   S62       1.0  0.26413  0.69540  0.02415  1.0000
  N   N13       1.0  0.31689  0.80425  0.13912  1.0000
  H   H146      1.0  0.21794  0.68011  0.29532  1.0000
  C   C139      1.0  0.24723  0.51229  0.49639  1.0000
  C   C140      1.0  0.29702  0.94574  0.33086  1.0000
  C   C141      1.0  0.18169  0.68319  0.16327  1.0000
  C   C142      1.0  0.16897  0.66097  0.16589  1.0000
  C   C143      1.0  0.16987  0.64302  0.14403  1.0000
  C   C144      1.0  0.18350  0.64712  0.11949  1.0000
  C   C145      1.0  0.19650  0.66916  0.11710  1.0000
  C   C146      1.0  0.19553  0.68711  0.13887  1.0000
  H   H147      1.0  0.15826  0.65776  0.18458  1.0000
  H   H148      1.0  0.15979  0.62598  0.14605  1.0000
  H   H149      1.0  0.20707  0.67254  0.09832  1.0000
  H   H150      1.0  0.20544  0.70424  0.13670  1.0000
  C   C147      1.0  0.16832  0.66165  0.35659  1.0000
  C   C148      1.0  0.18545  0.64681  0.37164  1.0000
  C   C149      1.0  0.18445  0.64546  0.40119  1.0000
  C   C150      1.0  0.16598  0.65863  0.41593  1.0000
  C   C151      1.0  0.14893  0.67361  0.40089  1.0000
  C   C152      1.0  0.15026  0.67536  0.37138  1.0000
  H   H151      1.0  0.19946  0.63609  0.36037  1.0000
  H   H152      1.0  0.19755  0.63373  0.41248  1.0000
  H   H153      1.0  0.13455  0.68381  0.41211  1.0000
  H   H154      1.0  0.13697  0.68684  0.36006  1.0000
  C   C153      1.0  0.03832  0.71150  0.26019  1.0000
  C   C154      1.0  0.01612  0.71176  0.24438  1.0000
  C   C155      1.0  0.03695  0.71130  0.28956  1.0000
  H   H155      1.0  0.28064  0.74158  0.50717  1.0000
  H   H156      1.0  0.05383  0.71098  0.30202  1.0000
  C   C156      1.0  0.09317  0.78080  0.29935  1.0000
  H   H157      1.0  0.03705  0.75975  0.22576  1.0000
  C   C157      1.0  0.33440  0.80990  0.18537  1.0000
  C   C158      1.0  0.29943  0.73130  0.02347  1.0000
  H   H158      1.0  0.31908  0.86124  0.01995  1.0000
  H   H159      1.0  0.22434  0.67370  0.33165  1.0000
  C   C159      1.0  0.26137  0.55526  0.07755  1.0000
  H   H160      1.0  0.28771  0.66786  0.46138  1.0000
  H   H161      1.0  0.11664  0.67057  0.48624  1.0000
  C   C160      1.0  0.23345  0.81518  0.25980  1.0000
  C   C161      1.0  0.22349  0.79345  0.24802  1.0000
  C   C162      1.0  0.20106  0.78403  0.25783  1.0000
  C   C163      1.0  0.18829  0.79628  0.27959  1.0000
  C   C164      1.0  0.19808  0.81816  0.29128  1.0000
  C   C165      1.0  0.22063  0.82757  0.28149  1.0000
  H   H162      1.0  0.23322  0.78376  0.23120  1.0000
  H   H163      1.0  0.19372  0.76725  0.24852  1.0000
  H   H164      1.0  0.18832  0.82778  0.30812  1.0000
  H   H165      1.0  0.22810  0.84434  0.29070  1.0000
  Fe  Fe31      1.0  0.23976  0.65760  0.51357  1.0000
  C   C166      1.0  0.32325  0.74083  0.01934  1.0000
  C   C167      1.0  0.29393  0.81104  0.14902  1.0000
  H   H166      1.0  0.31239  0.77831  0.10549  1.0000
  H   H167      1.0  0.26753  0.55443  0.09985  1.0000
  H   H168      1.0  0.01276  0.71188  0.32559  1.0000
  H   H169      1.0  0.28449  0.74369  0.03010  1.0000
  H   H170      1.0  0.27259  0.82332  0.18527  1.0000
  H   H171      1.0  0.32653  0.76039  0.02281  1.0000
  C   C168      1.0  0.28954  0.98340  0.25583  1.0000
  C   C169      1.0  0.29072  0.81765  0.17735  1.0000
  C   C170      1.0  0.33281  0.86281  0.12431  1.0000
  C   C171      1.0  0.21672  0.56512  0.07628  1.0000
  C   C172      1.0  0.31531  0.73524  0.45130  1.0000
  C   C173      1.0  0.07034  0.77326  0.30948  1.0000
  H   H172      1.0  0.26470  0.51396  0.48562  1.0000
  H   H173      1.0  0.26368  0.57443  0.06971  1.0000
  N   N14       1.0  0.22346  0.71213  0.32080  1.0000
  C   C174      1.0  0.23539  0.73042  0.30687  1.0000
  C   C175      1.0  0.20528  0.71812  0.33980  1.0000
  C   C176      1.0  0.22981  0.75547  0.31257  1.0000
  C   C177      1.0  0.19900  0.74296  0.34570  1.0000
  C   C178      1.0  0.21149  0.76171  0.33212  1.0000
  H   H174      1.0  0.24907  0.72573  0.29096  1.0000
  H   H175      1.0  0.23913  0.76999  0.30136  1.0000
  H   H176      1.0  0.18423  0.74762  0.36033  1.0000
  H   H177      1.0  0.20647  0.78105  0.33611  1.0000
  C   C179      1.0  0.07547  0.78243  0.25262  1.0000
  C   C180      1.0  0.01361  0.71187  0.30286  1.0000
  H   H178      1.0  0.10896  0.78277  0.31351  1.0000
  H   H179      1.0  0.25838  0.93921  0.32156  1.0000
  H   H180      1.0  0.27800  0.81159  0.13496  1.0000
  C   C181      1.0  0.27251  0.95304  0.32485  1.0000
  H   H181      1.0  0.30959  0.81072  0.09576  1.0000
  C   C182      1.0  0.12402  0.59726  0.49567  1.0000
  C   C183      1.0  0.09577  0.78551  0.27078  1.0000
  N   N15       1.0  0.12563  0.68412  0.12026  1.0000
  C   C184      1.0  0.13143  0.70603  0.13342  1.0000
  C   C185      1.0  0.11053  0.66765  0.13306  1.0000
  C   C186      1.0  0.12236  0.71172  0.16029  1.0000
  C   C187      1.0  0.10119  0.67274  0.15998  1.0000
  C   C188      1.0  0.10720  0.69492  0.17365  1.0000
  C   C189      1.0  0.13468  0.67880  0.09174  1.0000
  H   H182      1.0  0.14382  0.71889  0.12361  1.0000
  H   H183      1.0  0.10596  0.65027  0.12265  1.0000
  H   H184      1.0  0.12784  0.72866  0.17105  1.0000
  H   H185      1.0  0.08955  0.65951  0.17035  1.0000
  H   H186      1.0  0.10034  0.69897  0.19467  1.0000
  H   H187      1.0  0.13743  0.65847  0.08810  1.0000
  H   H188      1.0  0.12127  0.68614  0.07592  1.0000
  H   H189      1.0  0.15306  0.68723  0.08837  1.0000
  H   H190      1.0  0.27367  0.54318  0.06428  1.0000
  H   H191      1.0  0.24910  0.68300  0.30938  1.0000
  C   C190      1.0  0.30512  0.71160  0.45313  1.0000
  N   N16       1.0  0.23549  0.54766  0.07488  1.0000
  Fe  Fe32      1.0  0.22877  0.60196  0.50622  1.0000
  Fe  Fe33      1.0  0.24479  0.65813  0.01934  1.0000
  C   C191      1.0  0.31474  0.98601  0.26227  1.0000
  Fe  Fe34      1.0  0.32317  0.88287  0.29866  1.0000
  C   C192      1.0  0.29477  0.70592  0.01912  1.0000
  H   H192      1.0  0.19529  0.70369  0.35024  1.0000
  C   C193      1.0  0.23023  0.52300  0.07202  1.0000
  H   H193      1.0  0.01690  0.71182  0.22164  1.0000
  H   H194      1.0  0.28620  0.70889  0.44597  1.0000
  C   C194      1.0  0.18645  0.53311  0.06990  1.0000
  H   H195      1.0  0.12051  0.62927  0.46945  1.0000
  H   H196      1.0  0.03262  0.76483  0.29883  1.0000
  H   H197      1.0  0.06821  0.76924  0.33161  1.0000
  N   N17       1.0  0.05308  0.77524  0.26275  1.0000
  H   H198      1.0  0.31519  0.86731  0.11437  1.0000
  C   C195      1.0  0.31114  0.81713  0.19553  1.0000
  H   H199      1.0  0.24795  0.98398  0.31570  1.0000
  H   H200      1.0  0.32660  0.96966  0.26399  1.0000
  C   C196      1.0  0.33352  0.84137  0.36454  1.0000
  H   H201      1.0  0.02672  0.79118  0.23449  1.0000
  H   H202      1.0  0.32090  0.87547  0.16557  1.0000
  S   S63       1.0  0.18781  0.60840  0.51115  1.0000
  H   H203      1.0  0.11356  0.79121  0.26275  1.0000
  C   C197      1.0  0.05030  0.77075  0.29080  1.0000
  C   C198      1.0  0.31968  0.79720  0.10938  1.0000
  H   H204      1.0  0.30455  0.75063  0.44265  1.0000
  C   C199      1.0  0.03202  0.77280  0.24324  1.0000
  H   H205      1.0  0.22077  0.58463  0.07919  1.0000
  C   C200      1.0  0.12247  0.62283  0.49090  1.0000
  S   S64       1.0  0.32501  0.85038  0.26860  1.0000
  N   N18       1.0  0.31847  0.69243  0.46490  1.0000
  H   H206      1.0  0.14312  0.67326  0.50904  1.0000
  S   S65       1.0  0.24617  0.56363  0.49671  1.0000
  H   H207      1.0  0.01549  0.76514  0.25367  1.0000
  C   C201      1.0  0.19196  0.55815  0.07357  1.0000
  H   H208      1.0  0.16737  0.52749  0.06716  1.0000
  C   C202      1.0  0.23390  0.53398  0.50449  1.0000
  S   S66       1.0  0.26168  0.69293  0.50818  1.0000
  C   C203      1.0  0.12388  0.66624  0.50763  1.0000
  C   C204      1.0  0.30792  0.66759  0.46636  1.0000
  N   N19       1.0  0.31517  0.96300  0.33338  1.0000
  C   C205      1.0  0.20567  0.51534  0.06940  1.0000
  H   H209      1.0  0.24509  0.50915  0.07071  1.0000
  H   H210      1.0  0.30981  0.66031  0.48806  1.0000
  H   H211      1.0  0.32932  0.80502  0.38224  1.0000
  H   H212      1.0  0.31748  0.65467  0.45144  1.0000
  C   C206      1.0  0.28518  0.99573  0.32481  1.0000
  C   C207      1.0  0.30954  0.98775  0.33058  1.0000
  N   N20       1.0  0.12420  0.63947  0.51284  1.0000
  Fe  Fe35      1.0  0.33330  0.87773  0.23475  1.0000
  H   H213      1.0  0.32396  0.00148  0.33176  1.0000
  C   C208      1.0  0.24259  0.70013  0.91037  1.0000
  S   S67       1.0  0.27744  0.88872  0.78275  1.0000
  C   C209      1.0  0.30620  0.69072  0.53848  1.0000
  S   S68       1.0  0.29826  0.89187  0.71860  1.0000
  Fe  Fe36      1.0  0.29875  0.91638  0.75754  1.0000
  S   S69       1.0  0.28459  0.95646  0.75189  1.0000
  Fe  Fe37      1.0  0.28049  0.86317  0.74524  1.0000
  S   S70       1.0  0.25415  0.83540  0.72539  1.0000
  Fe  Fe38      1.0  0.31504  0.87321  0.79569  1.0000
  Fe  Fe39      1.0  0.16536  0.70504  0.73163  1.0000
  S   S71       1.0  0.13666  0.73561  0.73476  1.0000
  S   S72       1.0  0.19083  0.70068  0.69397  1.0000
  Fe  Fe40      1.0  0.16066  0.69224  0.79455  1.0000
  S   S73       1.0  0.13122  0.72193  0.80218  1.0000
  S   S74       1.0  0.18381  0.66842  0.82460  1.0000
  Fe  Fe41      1.0  0.11476  0.70906  0.76069  1.0000
  S   S75       1.0  0.07432  0.70328  0.74708  1.0000
  Fe  Fe42      1.0  0.15516  0.74599  0.77550  1.0000
  S   S76       1.0  0.16513  0.78511  0.78888  1.0000
  S   S77       1.0  0.14278  0.67742  0.75473  1.0000
  S   S78       1.0  0.18529  0.71743  0.77074  1.0000
  Fe  Fe43      1.0  0.19896  0.63966  0.98724  1.0000
  S   S79       1.0  0.23995  0.63431  0.98028  1.0000
  S   S80       1.0  0.16941  0.65318  0.95620  1.0000
  Fe  Fe44      1.0  0.19851  0.63371  0.54719  1.0000
  S   S81       1.0  0.23957  0.62567  0.54398  1.0000
  S   S82       1.0  0.17507  0.63161  0.58664  1.0000
  H   H214      1.0  0.01625  0.74088  0.81656  1.0000
  H   H215      1.0  0.29933  0.86107  0.97232  1.0000
  H   H216      1.0  0.11191  0.78951  0.79998  1.0000
  H   H217      1.0  0.27820  0.83954  0.62859  1.0000
  N   N21       1.0  0.09613  0.78343  0.75910  1.0000
  C   C210      1.0  0.08191  0.76785  0.71430  1.0000
  C   C211      1.0  0.01811  0.73065  0.79692  1.0000
  C   C212      1.0  0.29889  0.98552  0.75850  1.0000
  N   N22       1.0  0.24654  0.69787  0.93873  1.0000
  H   H218      1.0  0.06976  0.75572  0.70234  1.0000
  S   S83       1.0  0.31530  0.85559  0.83933  1.0000
  C   C213      1.0  0.18364  0.68421  0.66262  1.0000
  C   C214      1.0  0.16384  0.66787  0.66103  1.0000
  C   C215      1.0  0.16086  0.65248  0.63709  1.0000
  C   C216      1.0  0.17745  0.65354  0.61450  1.0000
  C   C217      1.0  0.19652  0.67072  0.61553  1.0000
  C   C218      1.0  0.19966  0.68589  0.63959  1.0000
  H   H219      1.0  0.15131  0.66652  0.67858  1.0000
  H   H220      1.0  0.14599  0.63930  0.63638  1.0000
  H   H221      1.0  0.20935  0.67174  0.59822  1.0000
  H   H222      1.0  0.21498  0.69855  0.64063  1.0000
  C   C219      1.0  0.17899  0.66377  0.86099  1.0000
  C   C220      1.0  0.19749  0.65123  0.87668  1.0000
  C   C221      1.0  0.19477  0.64761  0.90580  1.0000
  C   C222      1.0  0.17328  0.65616  0.91941  1.0000
  C   C223      1.0  0.15460  0.66834  0.90364  1.0000
  C   C224      1.0  0.15753  0.67237  0.87462  1.0000
  H   H223      1.0  0.21408  0.64437  0.86628  1.0000
  H   H224      1.0  0.20923  0.63813  0.91766  1.0000
  H   H225      1.0  0.13789  0.67494  0.91400  1.0000
  H   H226      1.0  0.14309  0.68189  0.86276  1.0000
  C   C225      1.0  0.04470  0.71093  0.76158  1.0000
  C   C226      1.0  0.04199  0.72392  0.78710  1.0000
  C   C227      1.0  0.02321  0.70435  0.74640  1.0000
  H   H227      1.0  0.05827  0.72887  0.79920  1.0000
  H   H228      1.0  0.02506  0.69431  0.72663  1.0000
  H   H229      1.0  0.13267  0.59958  0.56656  1.0000
  H   H230      1.0  0.32930  0.88597  0.66575  1.0000
  C   C228      1.0  0.30947  0.81698  0.61449  1.0000
  H   H231      1.0  0.32079  0.88083  0.93249  1.0000
  H   H232      1.0  0.32593  0.88252  0.61376  1.0000
  C   C229      1.0  0.27580  0.81577  0.80742  1.0000
  C   C230      1.0  0.12760  0.63129  0.53972  1.0000
  S   S84       1.0  0.31677  0.84632  0.75907  1.0000
  H   H233      1.0  0.33363  0.97051  0.77385  1.0000
  C   C231      1.0  0.22844  0.82281  0.74274  1.0000
  C   C232      1.0  0.21679  0.80210  0.73064  1.0000
  C   C233      1.0  0.19726  0.79053  0.74450  1.0000
  C   C234      1.0  0.18893  0.79986  0.77041  1.0000
  C   C235      1.0  0.20004  0.82104  0.78213  1.0000
  C   C236      1.0  0.21986  0.83238  0.76846  1.0000
  H   H234      1.0  0.22320  0.79465  0.71067  1.0000
  H   H235      1.0  0.18880  0.77429  0.73518  1.0000
  H   H236      1.0  0.19353  0.82852  0.80205  1.0000
  H   H237      1.0  0.22840  0.84858  0.77776  1.0000
  H   H238      1.0  0.25264  0.64711  0.64674  1.0000
  H   H239      1.0  0.23290  0.61407  0.61769  1.0000
  Fe  Fe45      1.0  0.23671  0.60198  0.01025  1.0000
  H   H240      1.0  0.27053  0.83276  0.79563  1.0000
  C   C237      1.0  0.11560  0.79664  0.71670  1.0000
  H   H241      1.0  0.20085  0.62336  0.73422  1.0000
  C   C238      1.0  0.08016  0.76920  0.74361  1.0000
  H   H242      1.0  0.25767  0.69704  0.89571  1.0000
  C   C239      1.0  0.25838  0.51292  0.00831  1.0000
  H   H243      1.0  0.12584  0.80903  0.75822  1.0000
  H   H244      1.0  0.07937  0.79789  0.79619  1.0000
  H   H245      1.0  0.23036  0.69940  0.97954  1.0000
  C   C240      1.0  0.09983  0.78160  0.70079  1.0000
  H   H246      1.0  0.10169  0.78037  0.67811  1.0000
  C   C241      1.0  0.11336  0.79747  0.74601  1.0000
  C   C242      1.0  0.31690  0.87012  0.97581  1.0000
  H   H247      1.0  0.18757  0.50541  0.99930  1.0000
  C   C243      1.0  0.22735  0.70139  0.95710  1.0000
  H   H248      1.0  0.21558  0.70709  0.87728  1.0000
  C   C244      1.0  0.30244  0.82918  0.66291  1.0000
  C   C245      1.0  0.24313  0.53430  0.00527  1.0000
  N   N23       1.0  0.26494  0.79394  0.79381  1.0000
  C   C246      1.0  0.27390  0.78592  0.76836  1.0000
  C   C247      1.0  0.24539  0.78238  0.80583  1.0000
  C   C248      1.0  0.26355  0.76548  0.75448  1.0000
  C   C249      1.0  0.23464  0.76185  0.79258  1.0000
  C   C250      1.0  0.24384  0.75336  0.76675  1.0000
  H   H249      1.0  0.31608  0.82764  0.89008  1.0000
  H   H250      1.0  0.28863  0.79585  0.75828  1.0000
  H   H251      1.0  0.21864  0.75324  0.80177  1.0000
  H   H252      1.0  0.27023  0.75964  0.73394  1.0000
  H   H253      1.0  0.18077  0.71387  0.91051  1.0000
  H   H254      1.0  0.23516  0.73796  0.75579  1.0000
  H   H255      1.0  0.26965  0.81842  0.82952  1.0000
  H   H256      1.0  0.31003  0.94252  0.69406  1.0000
  C   C251      1.0  0.28877  0.70527  0.52377  1.0000
  C   C252      1.0  0.20740  0.50738  0.00185  1.0000
  H   H257      1.0  0.23536  0.65839  0.69337  1.0000
  C   C253      1.0  0.12740  0.58876  0.52306  1.0000
  C   C254      1.0  0.21754  0.53135  0.00196  1.0000
  H   H258      1.0  0.12980  0.80724  0.70651  1.0000
  C   C255      1.0  0.32448  0.81686  0.67043  1.0000
  H   H259      1.0  0.17615  0.64091  0.71698  1.0000
  H   H260      1.0  0.20403  0.65593  0.72699  1.0000
  H   H261      1.0  0.20555  0.54753  0.99947  1.0000
  H   H262      1.0  0.19654  0.59227  0.63609  1.0000
  C   C256      1.0  0.09406  0.78425  0.78983  1.0000
  N   N24       1.0  0.20702  0.63133  0.69120  1.0000
  C   C257      1.0  0.19636  0.61281  0.67557  1.0000
  C   C258      1.0  0.22730  0.64326  0.68134  1.0000
  C   C259      1.0  0.20566  0.60618  0.64904  1.0000
  C   C260      1.0  0.23715  0.63700  0.65496  1.0000
  C   C261      1.0  0.22613  0.61844  0.63868  1.0000
  C   C262      1.0  0.19659  0.63812  0.71873  1.0000
  H   H263      1.0  0.18011  0.60357  0.68322  1.0000
  C   C263      1.0  0.32323  0.98724  0.76867  1.0000
  C   C264      1.0  0.19934  0.70988  0.91845  1.0000
  H   H264      1.0  0.27101  0.67781  0.96589  1.0000
  H   H265      1.0  0.30234  0.67151  0.54273  1.0000
  H   H266      1.0  0.12982  0.64447  0.55701  1.0000
  H   H267      1.0  0.33112  0.81766  0.69205  1.0000
  H   H268      1.0  0.27920  0.70949  0.95985  1.0000
  H   H269      1.0  0.30398  0.81787  0.59250  1.0000
  C   C265      1.0  0.27154  0.69252  0.94975  1.0000
  H   H270      1.0  0.28446  0.68583  0.93309  1.0000
  H   H271      1.0  0.08947  0.76565  0.79798  1.0000
  N   N25       1.0  0.33064  0.80428  0.62219  1.0000
  H   H272      1.0  0.06626  0.75835  0.75389  1.0000
  C   C266      1.0  0.20347  0.70728  0.94726  1.0000
  S   S85       1.0  0.19936  0.66705  0.51984  1.0000
  H   H273      1.0  0.23755  0.78940  0.82538  1.0000
  H   H274      1.0  0.29638  0.81391  0.80795  1.0000
  C   C267      1.0  0.32915  0.70087  0.54667  1.0000
  C   C268      1.0  0.31423  0.69011  0.01042  1.0000
  H   H275      1.0  0.12936  0.56902  0.52700  1.0000
  H   H276      1.0  0.18507  0.50599  0.53537  1.0000
  S   S86       1.0  0.25680  0.56417  0.00683  1.0000
  C   C269      1.0  0.29493  0.82939  0.63474  1.0000
  C   C270      1.0  0.21894  0.70613  0.89980  1.0000
  H   H277      1.0  0.18812  0.70904  0.96183  1.0000
  C   C271      1.0  0.12916  0.60586  0.54527  1.0000
  H   H278      1.0  0.11212  0.67636  0.52323  1.0000
  H   H279      1.0  0.29156  0.83908  0.67878  1.0000
  H   H280      1.0  0.27822  0.51492  0.01069  1.0000
  H   H281      1.0  0.20092  0.54790  0.52493  1.0000
  H   H282      1.0  0.31095  0.67054  0.00701  1.0000
  C   C272      1.0  0.33313  0.83786  0.88966  1.0000
  C   C273      1.0  0.20244  0.50764  0.52440  1.0000
  C   C274      1.0  0.31682  0.74026  0.52666  1.0000
  C   C275      1.0  0.32766  0.97800  0.69834  1.0000
  H   H283      1.0  0.33372  0.78197  0.58483  1.0000
  H   H284      1.0  0.31066  0.98826  0.69348  1.0000
  C   C276      1.0  0.32883  0.88133  0.95352  1.0000
  Fe  Fe46      1.0  0.33436  0.87660  0.73484  1.0000
  H   H285      1.0  0.32071  0.75923  0.52165  1.0000
  C   C277      1.0  0.21137  0.53147  0.51850  1.0000
  C   C278      1.0  0.32718  0.95204  0.69861  1.0000
  C   C279      1.0  0.32795  0.87020  0.00246  1.0000
  C   C280      1.0  0.29403  0.73017  0.51847  1.0000
  C   C281      1.0  0.33474  0.72556  0.54026  1.0000
  S   S87       1.0  0.19541  0.60589  0.01438  1.0000
  Fe  Fe47      1.0  0.37812  0.18276  0.05403  1.0000
  S   S88       1.0  0.39928  0.21716  0.06331  1.0000
  S   S89       1.0  0.35843  0.15809  0.08479  1.0000
  Fe  Fe48      1.0  0.39465  0.19878  0.47821  1.0000
  S   S90       1.0  0.40079  0.23940  0.48747  1.0000
  S   S91       1.0  0.39705  0.17971  0.43539  1.0000
  H   H286      1.0  0.60606  0.22172  0.14064  1.0000
  C   C282      1.0  0.66057  0.17732  0.40998  1.0000
  C   C283      1.0  0.35021  0.07474  0.17568  1.0000
  H   H287      1.0  0.48061  0.21533  0.48527  1.0000
  C   C284      1.0  0.36424  0.08539  0.22252  1.0000
  N   N26       1.0  0.37146  0.13008  0.48100  1.0000
  Fe  Fe49      1.0  0.64499  0.18757  0.04749  1.0000
  S   S92       1.0  0.62514  0.22458  0.05137  1.0000
  H   H288      1.0  0.63164  0.14182  0.21708  1.0000
  C   C285      1.0  0.34466  0.14651  0.13799  1.0000
  S   S93       1.0  0.64191  0.22113  0.47374  1.0000
  C   C286      1.0  0.34581  0.14760  0.16749  1.0000
  H   H289      1.0  0.34572  0.19850  0.43584  1.0000
  C   C287      1.0  0.36552  0.12950  0.45297  1.0000
  H   H290      1.0  0.62225  0.20136  0.11602  1.0000
  C   C288      1.0  0.60071  0.16111  0.39577  1.0000
  H   H291      1.0  0.60618  0.16402  0.13516  1.0000
  S   S94       1.0  0.36686  0.16205  0.21811  1.0000
  N   N27       1.0  0.62542  0.19138  0.15924  1.0000
  C   C289      1.0  0.49677  0.22019  0.49765  1.0000
  H   H292      1.0  0.59497  0.17398  0.46478  1.0000
  C   C290      1.0  0.36093  0.16027  0.12175  1.0000
  C   C291      1.0  0.37853  0.17509  0.13525  1.0000
  C   C292      1.0  0.37994  0.17586  0.16487  1.0000
  C   C293      1.0  0.36356  0.16211  0.18110  1.0000
  S   S95       1.0  0.34193  0.12607  0.28515  1.0000
  H   H293      1.0  0.64787  0.19236  0.37041  1.0000
  H   H294      1.0  0.39127  0.18564  0.12290  1.0000
  H   H295      1.0  0.39387  0.18701  0.17524  1.0000
  C   C294      1.0  0.37246  0.17838  0.41054  1.0000
  H   H296      1.0  0.34243  0.34033  0.48808  1.0000
  C   C295      1.0  0.51788  0.19817  0.03843  1.0000
  H   H297      1.0  0.59646  0.16886  0.37533  1.0000
  C   C296      1.0  0.36892  0.08935  0.16475  1.0000
  H   H298      1.0  0.39480  0.11024  0.22492  1.0000
  H   H299      1.0  0.39446  0.15739  0.38053  1.0000
  C   C297      1.0  0.34897  0.18874  0.41614  1.0000
  H   H300      1.0  0.36251  0.08406  0.24518  1.0000
  S   S96       1.0  0.42207  0.18529  0.51091  1.0000
  C   C298      1.0  0.34797  0.07269  0.20477  1.0000
  H   H301      1.0  0.64602  0.21473  0.18716  1.0000
  H   H302      1.0  0.40966  0.13802  0.47651  1.0000
  H   H303      1.0  0.61914  0.13465  0.46815  1.0000
  C   C299      1.0  0.62929  0.15591  0.20111  1.0000
  H   H304      1.0  0.37053  0.09093  0.14210  1.0000
  Fe  Fe50      1.0  0.37610  0.23443  0.02867  1.0000
  S   S97       1.0  0.66412  0.15830  0.32719  1.0000
  C   C300      1.0  0.34093  0.13291  0.44398  1.0000
  C   C301      1.0  0.49598  0.20822  0.02646  1.0000
  C   C302      1.0  0.58068  0.19752  0.41862  1.0000
  C   C303      1.0  0.61400  0.13854  0.39704  1.0000
  H   H305      1.0  0.51663  0.18538  0.05569  1.0000
  H   H306      1.0  0.42162  0.10420  0.16775  1.0000
  C   C304      1.0  0.60009  0.16402  0.44566  1.0000
  C   C305      1.0  0.37635  0.16547  0.38501  1.0000
  Fe  Fe51      1.0  0.66401  0.23892  0.50874  1.0000
  H   H307      1.0  0.56285  0.19660  0.43016  1.0000
  H   H308      1.0  0.57648  0.20320  0.39671  1.0000
  C   C306      1.0  0.62049  0.12883  0.42321  1.0000
  H   H309      1.0  0.55805  0.19621  0.03747  1.0000
  H   H310      1.0  0.59197  0.21224  0.42885  1.0000
  Fe  Fe52      1.0  0.42561  0.20470  0.02900  1.0000
  H   H311      1.0  0.55469  0.28069  0.04952  1.0000
  H   H312      1.0  0.60949  0.13220  0.17211  1.0000
  S   S98       1.0  0.35381  0.20025  0.02109  1.0000
  C   C307      1.0  0.34042  0.22392  0.10385  1.0000
  N   N28       1.0  0.59400  0.17355  0.41994  1.0000
  Fe  Fe53      1.0  0.65901  0.23977  0.03077  1.0000
  S   S99       1.0  0.35295  0.26729  0.04520  1.0000
  Fe  Fe54      1.0  0.65794  0.18532  0.48915  1.0000
  C   C308      1.0  0.61616  0.29363  0.05086  1.0000
  H   H313      1.0  0.62016  0.12923  0.37785  1.0000
  H   H314      1.0  0.52283  0.20709  0.46630  1.0000
  H   H315      1.0  0.65157  0.19172  0.42248  1.0000
  C   C309      1.0  0.38257  0.10001  0.21091  1.0000
  S   S100      1.0  0.46693  0.19836  0.03937  1.0000
  C   C310      1.0  0.40485  0.11624  0.17056  1.0000
  C   C311      1.0  0.65853  0.17767  0.38045  1.0000
  C   C312      1.0  0.66537  0.16371  0.11270  1.0000
  S   S101      1.0  0.64560  0.15970  0.08310  1.0000
  C   C313      1.0  0.52080  0.21555  0.48692  1.0000
  C   C314      1.0  0.35700  0.16290  0.36517  1.0000
  H   H316      1.0  0.40309  0.10679  0.48755  1.0000
  C   C315      1.0  0.54213  0.22203  0.50246  1.0000
  C   C316      1.0  0.63942  0.17929  0.20531  1.0000
  C   C317      1.0  0.62309  0.21020  0.13731  1.0000
  S   S102      1.0  0.36225  0.19576  0.50693  1.0000
  C   C318      1.0  0.59249  0.28909  0.06097  1.0000
  H   H317      1.0  0.34804  0.26558  0.46130  1.0000
  H   H318      1.0  0.36026  0.15294  0.34559  1.0000
  H   H319      1.0  0.63174  0.11194  0.42455  1.0000
  S   S103      1.0  0.57186  0.21692  0.48695  1.0000
  H   H320      1.0  0.58923  0.28876  0.08343  1.0000
  C   C319      1.0  0.63724  0.19695  0.18406  1.0000
  S   S104      1.0  0.40563  0.16878  0.02231  1.0000
  C   C320      1.0  0.61346  0.14159  0.44770  1.0000
  C   C321      1.0  0.61691  0.15051  0.17591  1.0000
  N   N29       1.0  0.38471  0.10186  0.18236  1.0000
  C   C322      1.0  0.39743  0.12664  0.48974  1.0000
  C   C323      1.0  0.57312  0.28470  0.04201  1.0000
  H   H321      1.0  0.39934  0.12421  0.14991  1.0000
  H   H322      1.0  0.64992  0.18338  0.22436  1.0000
  C   C324      1.0  0.61505  0.16862  0.15511  1.0000
  H   H323      1.0  0.40951  0.13221  0.18461  1.0000
  H   H324      1.0  0.65824  0.12742  0.12901  1.0000
  C   C325      1.0  0.35327  0.13318  0.50073  1.0000
  H   H325      1.0  0.63146  0.29687  0.06537  1.0000
  C   C326      1.0  0.54143  0.20427  0.02814  1.0000
  H   H326      1.0  0.63955  0.22232  0.13735  1.0000
  H   H327      1.0  0.37998  0.12723  0.43731  1.0000
  H   H328      1.0  0.46232  0.14699  0.02148  1.0000
  Fe  Fe55      1.0  0.61138  0.21643  0.50534  1.0000
  H   H329      1.0  0.34394  0.01156  0.27239  1.0000
  C   C327      1.0  0.62023  0.29335  0.02183  1.0000
  C   C328      1.0  0.34014  0.30415  0.50695  1.0000
  C   C329      1.0  0.66723  0.14493  0.13291  1.0000
  H   H330      1.0  0.35858  0.29820  0.50067  1.0000
  H   H331      1.0  0.35978  0.22738  0.11085  1.0000
  H   H332      1.0  0.34656  0.22878  0.15944  1.0000
  H   H333      1.0  0.34178  0.21196  0.08465  1.0000
  H   H334      1.0  0.33648  0.13324  0.42164  1.0000
  Fe  Fe56      1.0  0.33601  0.14718  0.24502  1.0000
  H   H335      1.0  0.40044  0.13266  0.51197  1.0000
  H   H336      1.0  0.33748  0.06509  0.16173  1.0000
  C   C330      1.0  0.33629  0.29096  0.02708  1.0000
  Fe  Fe57      1.0  0.38989  0.18589  0.54059  1.0000
  S   S105      1.0  0.39577  0.22513  0.55445  1.0000
  S   S106      1.0  0.38550  0.15341  0.56994  1.0000
  Fe  Fe58      1.0  0.38296  0.18905  0.98970  1.0000
  S   S107      1.0  0.40425  0.22470  0.99450  1.0000
  S   S108      1.0  0.37258  0.16361  0.95282  1.0000
  C   C331      1.0  0.66423  0.09724  0.80072  1.0000
  H   H337      1.0  0.40708  0.17918  0.63631  1.0000
  H   H338      1.0  0.35479  0.13140  0.90927  1.0000
  H   H339      1.0  0.35817  0.12863  0.66385  1.0000
  C   C332      1.0  0.40940  0.21884  0.63543  1.0000
  N   N30       1.0  0.45919  0.15406  0.97784  1.0000
  S   S109      1.0  0.46383  0.23970  0.53759  1.0000
  S   S110      1.0  0.63195  0.23773  0.53936  1.0000
  H   H340      1.0  0.35760  0.19572  0.59300  1.0000
  H   H341      1.0  0.48125  0.23259  0.99469  1.0000
  S   S111      1.0  0.64382  0.23547  0.98700  1.0000
  Fe  Fe59      1.0  0.42637  0.22542  0.52218  1.0000
  H   H342      1.0  0.64739  0.08612  0.80381  1.0000
  H   H343      1.0  0.64052  0.18009  0.86629  1.0000
  H   H344      1.0  0.65867  0.11714  0.79837  1.0000
  H   H345      1.0  0.62551  0.28924  0.96790  1.0000
  H   H346      1.0  0.59540  0.30380  0.96276  1.0000
  H   H347      1.0  0.46237  0.16100  0.60783  1.0000
  C   C333      1.0  0.44324  0.16547  0.60040  1.0000
  H   H348      1.0  0.64594  0.18746  0.91775  1.0000
  H   H349      1.0  0.37676  0.21019  0.86422  1.0000
  C   C334      1.0  0.36969  0.15832  0.60212  1.0000
  C   C335      1.0  0.36975  0.13945  0.62228  1.0000
  C   C336      1.0  0.35802  0.14325  0.64846  1.0000
  S   S112      1.0  0.35808  0.17798  0.82085  1.0000
  S   S113      1.0  0.62892  0.17854  0.00450  1.0000
  C   C337      1.0  0.42186  0.23898  0.62452  1.0000
  Fe  Fe60      1.0  0.64840  0.20018  0.55112  1.0000
  H   H350      1.0  0.66207  0.12110  0.85015  1.0000
  C   C338      1.0  0.36851  0.16834  0.91626  1.0000
  C   C339      1.0  0.37456  0.19059  0.90343  1.0000
  C   C340      1.0  0.37183  0.19300  0.87407  1.0000
  C   C341      1.0  0.36251  0.17344  0.85739  1.0000
  H   H351      1.0  0.56270  0.28109  0.99850  1.0000
  H   H352      1.0  0.38161  0.20580  0.91604  1.0000
  C   C342      1.0  0.66431  0.17478  0.64844  1.0000
  C   C343      1.0  0.45989  0.13662  0.00126  1.0000
  H   H353      1.0  0.66718  0.09385  0.64779  1.0000
  H   H354      1.0  0.33680  0.20239  0.63888  1.0000
  H   H355      1.0  0.45797  0.20078  0.91682  1.0000
  H   H356      1.0  0.35522  0.28631  0.98763  1.0000
  C   C344      1.0  0.35624  0.15131  0.87028  1.0000
  H   H357      1.0  0.34909  0.13612  0.85769  1.0000
  S   S114      1.0  0.35467  0.12969  0.75476  1.0000
  Fe  Fe61      1.0  0.61130  0.21686  0.00738  1.0000
  C   C345      1.0  0.54337  0.22047  0.00559  1.0000
  H   H358      1.0  0.45136  0.25022  0.59726  1.0000
  C   C346      1.0  0.49374  0.23186  0.52391  1.0000
  C   C347      1.0  0.35778  0.18102  0.60830  1.0000
  H   H359      1.0  0.44244  0.16388  0.57705  1.0000
  C   C348      1.0  0.41689  0.19469  0.62771  1.0000
  S   S115      1.0  0.64719  0.18325  0.59488  1.0000
  H   H360      1.0  0.63886  0.29642  0.01427  1.0000
  H   H361      1.0  0.37898  0.12184  0.61771  1.0000
  H   H362      1.0  0.42288  0.14412  0.96374  1.0000
  C   C349      1.0  0.60547  0.28811  0.97297  1.0000
  H   H363      1.0  0.64657  0.16624  0.65158  1.0000
  N   N31       1.0  0.43597  0.19074  0.60926  1.0000
  C   C350      1.0  0.44853  0.21035  0.59883  1.0000
  C   C351      1.0  0.52148  0.23069  0.99370  1.0000
  H   H364      1.0  0.46370  0.20724  0.58422  1.0000
  C   C352      1.0  0.34602  0.18477  0.63436  1.0000
  H   H365      1.0  0.39383  0.22183  0.64951  1.0000
  H   H366      1.0  0.51299  0.24734  0.55982  1.0000
  C   C353      1.0  0.35942  0.14874  0.89954  1.0000
  H   H367      1.0  0.41604  0.25784  0.62994  1.0000
  C   C354      1.0  0.65879  0.17827  0.87574  1.0000
  C   C355      1.0  0.51505  0.23819  0.53956  1.0000
  H   H368      1.0  0.59874  0.27030  0.96382  1.0000
  C   C356      1.0  0.34605  0.16596  0.65457  1.0000
  C   C357      1.0  0.44169  0.23475  0.60627  1.0000
  H   H369      1.0  0.36088  0.02528  0.72117  1.0000
  H   H370      1.0  0.49491  0.19754  0.94859  1.0000
  H   H371      1.0  0.35790  0.13344  0.52301  1.0000
  C   C358      1.0  0.66180  0.18247  0.90492  1.0000
  C   C359      1.0  0.47918  0.16875  0.97359  1.0000
  C   C360      1.0  0.43820  0.17237  0.93820  1.0000
  C   C361      1.0  0.47911  0.18572  0.95158  1.0000
  C   C362      1.0  0.45841  0.18756  0.93384  1.0000
  C   C363      1.0  0.49791  0.22468  0.00410  1.0000
  H   H372      1.0  0.52275  0.24327  0.97625  1.0000
  Fe  Fe62      1.0  0.36994  0.23552  0.51890  1.0000
  H   H373      1.0  0.42197  0.17361  0.92460  1.0000
  S   S116      1.0  0.57257  0.22833  0.99133  1.0000
  H   H374      1.0  0.43047  0.15140  0.60868  1.0000
  C   C364      1.0  0.43888  0.15562  0.96042  1.0000
  H   H375      1.0  0.49517  0.16767  0.98759  1.0000
  H   H376      1.0  0.55527  0.23839  0.54120  1.0000
  C   C365      1.0  0.34106  0.29668  0.99905  1.0000
  H   H377      1.0  0.35323  0.01176  0.77928  1.0000
  H   H378      1.0  0.44243  0.12609  0.00272  1.0000
  C   C366      1.0  0.53911  0.23312  0.52905  1.0000
  S   S117      1.0  0.62637  0.17909  0.51848  1.0000
  N   N32       1.0  0.60116  0.28881  0.00339  1.0000
  H   H379      1.0  0.47558  0.12314  0.99865  1.0000
  C   C367      1.0  0.57777  0.28496  0.01312  1.0000
  H   H380      1.0  0.35727  0.02309  0.68328  1.0000
  Fe  Fe63      1.0  0.66225  0.19765  0.98714  1.0000
  Fe  Fe64      1.0  0.33784  0.15200  0.79051  1.0000
  S   S118      1.0  0.33724  0.06133  0.76570  1.0000
  C   C368      1.0  0.34949  0.01740  0.70368  1.0000
  H   H381      1.0  0.65958  0.12969  0.61246  1.0000
  C   C369      1.0  0.34583  0.83003  0.41251  1.0000
  S   S119      1.0  0.36343  0.86651  0.20330  1.0000
  C   C370      1.0  0.43643  0.73931  0.03343  1.0000
  Fe  Fe65      1.0  0.64087  0.82718  0.48841  1.0000
  S   S120      1.0  0.61754  0.79304  0.48806  1.0000
  N   N33       1.0  0.47967  0.74753  0.04082  1.0000
  Fe  Fe66      1.0  0.42763  0.80910  0.02801  1.0000
  S   S121      1.0  0.63719  0.79833  0.05412  1.0000
  C   C371      1.0  0.50992  0.81014  0.49362  1.0000
  H   H382      1.0  0.34736  0.94333  0.31966  1.0000
  Fe  Fe67      1.0  0.41928  0.80678  0.51122  1.0000
  C   C372      1.0  0.63314  0.91398  0.24111  1.0000
  H   H383      1.0  0.65523  0.90893  0.51133  1.0000
  C   C373      1.0  0.34160  0.86558  0.36921  1.0000
  Fe  Fe68      1.0  0.37421  0.82592  0.04246  1.0000
  S   S122      1.0  0.39689  0.79180  0.05274  1.0000
  H   H384      1.0  0.34197  0.94249  0.35697  1.0000
  Fe  Fe69      1.0  0.36839  0.80980  0.48118  1.0000
  S   S123      1.0  0.39536  0.77836  0.48955  1.0000
  C   C374      1.0  0.55104  0.74682  0.50700  1.0000
  H   H385      1.0  0.50774  0.81317  0.47128  1.0000
  S   S124      1.0  0.66113  0.86553  0.08664  1.0000
  H   H386      1.0  0.49464  0.76852  0.07495  1.0000
  S   S125      1.0  0.40558  0.84440  0.02073  1.0000
  S   S126      1.0  0.64131  0.85327  0.45127  1.0000
  H   H387      1.0  0.55726  0.81571  0.05365  1.0000
  H   H388      1.0  0.37085  0.72269  0.48285  1.0000
  H   H389      1.0  0.35526  0.79844  0.14909  1.0000
  C   C375      1.0  0.63696  0.92810  0.26553  1.0000
  C   C376      1.0  0.35265  0.71954  0.47366  1.0000
  S   S127      1.0  0.39288  0.83864  0.50080  1.0000
  H   H390      1.0  0.64653  0.88097  0.40059  1.0000
  Fe  Fe70      1.0  0.65058  0.77496  0.50961  1.0000
  C   C377      1.0  0.60692  0.72600  0.46600  1.0000
  C   C378      1.0  0.42155  0.81558  0.42957  1.0000
  C   C379      1.0  0.50019  0.75326  0.06014  1.0000
  C   C380      1.0  0.65363  0.94755  0.26527  1.0000
  N   N34       1.0  0.59058  0.73227  0.48968  1.0000
  H   H391      1.0  0.45241  0.75046  0.07302  1.0000
  C   C381      1.0  0.43127  0.83936  0.42988  1.0000
  C   C382      1.0  0.34085  0.95450  0.33813  1.0000
  C   C383      1.0  0.35384  0.85428  0.41724  1.0000
  C   C384      1.0  0.54161  0.81175  0.04003  1.0000
  C   C385      1.0  0.40167  0.82433  0.38505  1.0000
  S   S128      1.0  0.34685  0.84593  0.07179  1.0000
  H   H392      1.0  0.62090  0.89822  0.24123  1.0000
  C   C386      1.0  0.35871  0.86191  0.16654  1.0000
  C   C387      1.0  0.37811  0.85152  0.15028  1.0000
  C   C388      1.0  0.37484  0.84659  0.12127  1.0000
  C   C389      1.0  0.35217  0.85229  0.10811  1.0000
  H   H393      1.0  0.42348  0.86668  0.34951  1.0000
  H   H394      1.0  0.35955  0.88089  0.02711  1.0000
  H   H395      1.0  0.38994  0.83856  0.10910  1.0000
  H   H396      1.0  0.39993  0.88307  0.37004  1.0000
  S   S129      1.0  0.45882  0.80893  0.49384  1.0000
  H   H397      1.0  0.43348  0.87378  0.40793  1.0000
  S   S130      1.0  0.34105  0.88799  0.34216  1.0000
  S   S131      1.0  0.34931  0.80661  0.43821  1.0000
  H   H398      1.0  0.35786  0.89068  0.39960  1.0000
  C   C390      1.0  0.34194  0.69615  0.47508  1.0000
  H   H399      1.0  0.55008  0.81136  0.49248  1.0000
  C   C391      1.0  0.51716  0.81492  0.05012  1.0000
  H   H400      1.0  0.51427  0.82128  0.07156  1.0000
  H   H401      1.0  0.42551  0.80313  0.44684  1.0000
  H   H402      1.0  0.63209  0.83503  0.12425  1.0000
  H   H403      1.0  0.62757  0.92353  0.28482  1.0000
  H   H404      1.0  0.55992  0.74260  0.46330  1.0000
  H   H405      1.0  0.39827  0.78983  0.40724  1.0000
  H   H406      1.0  0.51667  0.75983  0.04867  1.0000
  H   H407      1.0  0.61749  0.74260  0.46002  1.0000
  C   C392      1.0  0.33557  0.82373  0.38611  1.0000
  C   C393      1.0  0.35163  0.87197  0.39572  1.0000
  C   C394      1.0  0.49648  0.80948  0.03297  1.0000
  H   H408      1.0  0.44280  0.84531  0.44751  1.0000
  H   H409      1.0  0.36176  0.85937  0.43745  1.0000
  C   C395      1.0  0.45612  0.74606  0.05111  1.0000
  C   C396      1.0  0.40659  0.80800  0.40713  1.0000
  C   C397      1.0  0.56679  0.74055  0.48466  1.0000
  C   C398      1.0  0.66136  0.84891  0.42215  1.0000
  H   H410      1.0  0.63153  0.83281  0.17651  1.0000
  C   C399      1.0  0.64488  0.84589  0.13676  1.0000
  H   H411      1.0  0.35365  0.97018  0.34139  1.0000
  C   C400      1.0  0.42590  0.85529  0.40752  1.0000
  H   H412      1.0  0.53229  0.75378  0.50308  1.0000
  Fe  Fe71      1.0  0.65004  0.83782  0.05236  1.0000
  N   N35       1.0  0.66245  0.93868  0.21664  1.0000
  C   C401      1.0  0.64456  0.84473  0.16636  1.0000
  H   H413      1.0  0.35224  0.68118  0.48517  1.0000
  C   C402      1.0  0.48867  0.80750  0.51030  1.0000
  H   H414      1.0  0.39147  0.85770  0.34777  1.0000
  S   S132      1.0  0.46637  0.81042  0.04818  1.0000
  N   N36       1.0  0.41122  0.84769  0.38551  1.0000
  H   H415      1.0  0.38961  0.81841  0.36797  1.0000
  C   C403      1.0  0.40639  0.86457  0.36204  1.0000
  C   C404      1.0  0.66086  0.85899  0.18285  1.0000
  H   H416      1.0  0.39576  0.84716  0.16024  1.0000
  H   H417      1.0  0.50563  0.73654  0.07227  1.0000
  C   C405      1.0  0.66642  0.95250  0.24055  1.0000
  C   C406      1.0  0.53399  0.80915  0.50558  1.0000
  H   H418      1.0  0.35050  0.81030  0.19924  1.0000
  C   C407      1.0  0.33696  0.80339  0.15694  1.0000
  H   H419      1.0  0.65738  0.95820  0.28435  1.0000
  C   C408      1.0  0.33599  0.86749  0.15337  1.0000
  C   C409      1.0  0.64606  0.91961  0.21669  1.0000
  S   S133      1.0  0.65934  0.85764  0.21995  1.0000
  C   C410      1.0  0.66003  0.86583  0.39990  1.0000
  H   H420      1.0  0.64323  0.90822  0.19799  1.0000
  S   S134      1.0  0.66466  0.73696  0.49486  1.0000
  H   H421      1.0  0.59626  0.71924  0.44744  1.0000
  H   H422      1.0  0.41772  0.73820  0.04154  1.0000
  H   H423      1.0  0.33942  0.79740  0.10275  1.0000
  H   H424      1.0  0.62055  0.71109  0.47177  1.0000
  C   C411      1.0  0.66108  0.86187  0.12353  1.0000
  H   H425      1.0  0.34702  0.75755  0.46110  1.0000
  S   S135      1.0  0.62544  0.84765  0.01549  1.0000
  C   C412      1.0  0.33922  0.73916  0.46165  1.0000
  Fe  Fe72      1.0  0.61482  0.80747  0.01479  1.0000
  S   S136      1.0  0.33538  0.90978  0.26580  1.0000
  H   H426      1.0  0.66858  0.93493  0.17227  1.0000
  H   H427      1.0  0.38696  0.98687  0.71753  1.0000
  S   S137      1.0  0.36614  0.86604  0.70551  1.0000
  H   H428      1.0  0.59180  0.73712  0.56075  1.0000
  C   C413      1.0  0.34276  0.72505  0.01078  1.0000
  S   S138      1.0  0.64571  0.79560  0.98497  1.0000
  H   H429      1.0  0.64831  0.84606  0.78797  1.0000
  C   C414      1.0  0.38719  0.90286  0.98831  1.0000
  S   S139      1.0  0.63675  0.78419  0.55295  1.0000
  Fe  Fe73      1.0  0.65857  0.81908  0.54926  1.0000
  H   H430      1.0  0.34285  0.68938  0.55737  1.0000
  H   H431      1.0  0.48490  0.79692  0.99187  1.0000
  S   S140      1.0  0.34762  0.80377  0.52120  1.0000
  S   S141      1.0  0.57604  0.79596  0.99965  1.0000
  H   H432      1.0  0.39634  0.84157  0.66350  1.0000
  Fe  Fe74      1.0  0.37448  0.82974  0.54208  1.0000
  S   S142      1.0  0.40242  0.79987  0.55382  1.0000
  S   S143      1.0  0.35532  0.85750  0.57186  1.0000
  Fe  Fe75      1.0  0.39165  0.82575  0.98099  1.0000
  S   S144      1.0  0.41578  0.79153  0.98705  1.0000
  S   S145      1.0  0.39334  0.84858  0.94094  1.0000
  C   C415      1.0  0.37011  0.97718  0.71210  1.0000
  Fe  Fe76      1.0  0.38319  0.77697  0.01105  1.0000
  Fe  Fe77      1.0  0.37610  0.77437  0.53079  1.0000
  S   S146      1.0  0.62685  0.84121  0.53051  1.0000
  C   C416      1.0  0.44088  0.73434  0.00504  1.0000
  H   H433      1.0  0.35852  0.77745  0.60951  1.0000
  C   C417      1.0  0.51591  0.80258  0.55112  1.0000
  C   C418      1.0  0.34566  0.79169  0.60049  1.0000
  H   H434      1.0  0.51808  0.79965  0.57348  1.0000
  Fe  Fe78      1.0  0.60561  0.80556  0.53128  1.0000
  C   C419      1.0  0.52502  0.79758  0.99542  1.0000
  C   C420      1.0  0.36007  0.86622  0.86633  1.0000
  N   N37       1.0  0.36254  0.89226  0.98439  1.0000
  H   H435      1.0  0.40147  0.88998  0.97916  1.0000
  H   H436      1.0  0.46845  0.73271  0.97250  1.0000
  Fe  Fe79      1.0  0.65717  0.83546  0.98776  1.0000
  H   H437      1.0  0.34856  0.91844  0.70605  1.0000
  C   C421      1.0  0.54571  0.80271  0.01271  1.0000
  C   C422      1.0  0.33797  0.85310  0.86658  1.0000
  S   S147      1.0  0.37313  0.73627  0.00556  1.0000
  C   C423      1.0  0.37215  0.84902  0.91210  1.0000
  H   H438      1.0  0.54816  0.75074  0.55201  1.0000
  C   C424      1.0  0.35094  0.88136  0.00639  1.0000
  H   H439      1.0  0.58830  0.80392  0.94083  1.0000
  C   C425      1.0  0.61512  0.86570  0.91616  1.0000
  H   H440      1.0  0.59746  0.90340  0.94797  1.0000
  C   C426      1.0  0.36295  0.86390  0.66835  1.0000
  C   C427      1.0  0.38080  0.85034  0.65271  1.0000
  C   C428      1.0  0.37866  0.84794  0.62320  1.0000
  C   C429      1.0  0.35888  0.85958  0.60897  1.0000
  S   S148      1.0  0.33630  0.90257  0.77272  1.0000
  H   H441      1.0  0.65931  0.87807  0.56353  1.0000
  H   H442      1.0  0.39255  0.83750  0.61144  1.0000
  H   H443      1.0  0.52794  0.79060  0.97422  1.0000
  C   C430      1.0  0.37699  0.86426  0.88905  1.0000
  H   H444      1.0  0.50287  0.74399  0.00478  1.0000
  H   H445      1.0  0.65669  0.81868  0.66880  1.0000
  N   N38       1.0  0.60352  0.86456  0.94157  1.0000
  H   H446      1.0  0.35309  0.68729  0.99972  1.0000
  C   C431      1.0  0.59561  0.82129  0.93345  1.0000
  H   H447      1.0  0.62881  0.86551  0.74577  1.0000
  C   C432      1.0  0.33811  0.69966  0.00631  1.0000
  S   S149      1.0  0.56703  0.80307  0.55067  1.0000
  H   H448      1.0  0.64335  0.85459  0.60740  1.0000
  C   C433      1.0  0.65617  0.87062  0.64680  1.0000
  H   H449      1.0  0.47574  0.80158  0.55231  1.0000
  H   H450      1.0  0.58481  0.84164  0.97058  1.0000
  C   C434      1.0  0.34310  0.87537  0.65411  1.0000
  C   C435      1.0  0.58445  0.73742  0.53944  1.0000
  S   S150      1.0  0.36468  0.73705  0.54780  1.0000
  C   C436      1.0  0.34123  0.87338  0.62459  1.0000
  H   H451      1.0  0.38699  0.94077  0.71826  1.0000
  H   H452      1.0  0.66685  0.78983  0.68393  1.0000
  C   C437      1.0  0.61707  0.84468  0.89865  1.0000
  H   H453      1.0  0.36402  0.87806  0.84879  1.0000
  H   H454      1.0  0.35678  0.80554  0.58937  1.0000
  C   C438      1.0  0.66765  0.81775  0.76378  1.0000
  H   H455      1.0  0.36152  0.89994  0.94048  1.0000
  C   C439      1.0  0.55992  0.74502  0.53454  1.0000
  C   C440      1.0  0.35017  0.83569  0.91222  1.0000
  C   C441      1.0  0.53713  0.80541  0.53448  1.0000
  C   C442      1.0  0.59963  0.73107  0.51663  1.0000
  C   C443      1.0  0.60742  0.82229  0.90751  1.0000
  C   C444      1.0  0.65901  0.85692  0.62151  1.0000
  C   C445      1.0  0.65162  0.83822  0.76715  1.0000
  C   C446      1.0  0.35182  0.89229  0.95820  1.0000
  N   N39       1.0  0.66195  0.81943  0.71363  1.0000
  C   C447      1.0  0.49183  0.80365  0.53916  1.0000
  C   C448      1.0  0.50057  0.80118  0.00534  1.0000
  H   H456      1.0  0.38823  0.92102  0.97764  1.0000
  C   C449      1.0  0.64581  0.83920  0.71681  1.0000
  H   H457      1.0  0.39394  0.87468  0.88876  1.0000
  H   H458      1.0  0.63826  0.87882  0.65197  1.0000
  C   C450      1.0  0.60287  0.88660  0.96003  1.0000
  H   H459      1.0  0.58941  0.88472  0.97742  1.0000
  C   C451      1.0  0.64062  0.84905  0.74355  1.0000
  C   C452      1.0  0.59376  0.84274  0.95029  1.0000
  C   C453      1.0  0.37028  0.95118  0.71254  1.0000
  S   S151      1.0  0.35836  0.81000  0.00203  1.0000
  H   H460      1.0  0.39177  0.90588  0.01093  1.0000
  H   H461      1.0  0.62159  0.88935  0.96949  1.0000
  H   H462      1.0  0.62389  0.88268  0.90983  1.0000
  H   H463      1.0  0.60948  0.80566  0.89455  1.0000
  H   H464      1.0  0.35598  0.79566  0.65556  1.0000
  H   H465      1.0  0.62696  0.84556  0.87891  1.0000
  H   H466      1.0  0.63761  0.84819  0.69860  1.0000
  H   H467      1.0  0.42561  0.72949  0.99108  1.0000
  C   C454      1.0  0.34867  0.93859  0.70567  1.0000
  H   H468      1.0  0.34616  0.82395  0.92982  1.0000
  H   H469      1.0  0.61878  0.72547  0.52061  1.0000
  N   N40       1.0  0.34893  0.99023  0.70515  1.0000
  C   C455      1.0  0.33849  0.80451  0.64966  1.0000
  C   C456      1.0  0.46490  0.73614  0.99465  1.0000
  S   S152      1.0  0.66761  0.86313  0.95413  1.0000
  H   H470      1.0  0.66779  0.91032  0.56144  1.0000
  C   C457      1.0  0.48424  0.74257  0.01301  1.0000
  C   C458      1.0  0.66869  0.81030  0.68545  1.0000
  Fe  Fe80      1.0  0.72081  0.10389  0.26201  1.0000
  S   S153      1.0  0.68498  0.12551  0.25403  1.0000
  S   S154      1.0  0.72943  0.06419  0.24607  1.0000
  Fe  Fe81      1.0  0.74763  0.15054  0.28329  1.0000
  S   S155      1.0  0.71417  0.17482  0.27672  1.0000
  S   S156      1.0  0.78180  0.16668  0.30412  1.0000
  Fe  Fe82      1.0  0.69311  0.14410  0.29608  1.0000
  H   H471      1.0  0.78002  0.05327  0.27575  1.0000
  Fe  Fe83      1.0  0.70916  0.15454  0.23547  1.0000
  H   H472      1.0  0.70142  0.23606  0.37620  1.0000
  S   S157      1.0  0.72708  0.12054  0.30534  1.0000
  S   S158      1.0  0.74444  0.13229  0.24082  1.0000
  H   H473      1.0  0.70723  0.04652  0.29836  1.0000
  H   H474      1.0  0.90966  0.39200  0.19821  1.0000
  H   H475      1.0  0.76408  0.07878  0.29277  1.0000
  C   C459      1.0  0.92499  0.37866  0.20345  1.0000
  H   H476      1.0  0.70095  0.00387  0.31600  1.0000
  C   C460      1.0  0.87987  0.41891  0.44549  1.0000
  H   H477      1.0  0.82559  0.41475  0.39243  1.0000
  C   C461      1.0  0.68349  0.13996  0.37703  1.0000
  Fe  Fe84      1.0  0.82423  0.36699  0.04660  1.0000
  S   S159      1.0  0.84041  0.34262  0.08162  1.0000
  Fe  Fe85      1.0  0.81172  0.37576  0.47874  1.0000
  S   S160      1.0  0.81012  0.36876  0.43140  1.0000
  S   S161      1.0  0.78522  0.38299  0.04473  1.0000
  S   S162      1.0  0.78324  0.40471  0.49212  1.0000
  Fe  Fe86      1.0  0.92298  0.29636  0.25457  1.0000
  S   S163      1.0  0.91126  0.33449  0.26949  1.0000
  S   S164      1.0  0.96147  0.28742  0.23661  1.0000
  Fe  Fe87      1.0  0.86892  0.27744  0.25757  1.0000
  S   S165      1.0  0.85411  0.31443  0.27333  1.0000
  S   S166      1.0  0.84201  0.24896  0.23998  1.0000
  Fe  Fe88      1.0  0.87840  0.33067  0.24027  1.0000
  S   S167      1.0  0.86479  0.36171  0.21148  1.0000
  Fe  Fe89      1.0  0.88817  0.31457  0.30116  1.0000
  S   S168      1.0  0.89237  0.32573  0.34744  1.0000
  S   S169      1.0  0.89151  0.29401  0.22324  1.0000
  S   S170      1.0  0.90165  0.27616  0.28750  1.0000
  H   H478      1.0  0.75059  0.33442  0.49451  1.0000
  C   C462      1.0  0.72281  0.19430  0.35648  1.0000
  H   H479      1.0  0.72463  0.17382  0.35352  1.0000
  H   H480      1.0  0.97591  0.30825  0.29158  1.0000
  C   C463      1.0  0.93747  0.31533  0.17275  1.0000
  C   C464      1.0  0.84724  0.34892  0.11748  1.0000
  C   C465      1.0  0.84283  0.37217  0.13017  1.0000
  C   C466      1.0  0.84829  0.37586  0.15900  1.0000
  C   C467      1.0  0.85797  0.35634  0.17539  1.0000
  C   C468      1.0  0.86223  0.33311  0.16269  1.0000
  C   C469      1.0  0.85712  0.32952  0.13387  1.0000
  H   H481      1.0  0.83522  0.38726  0.11777  1.0000
  H   H482      1.0  0.84491  0.39393  0.16863  1.0000
  H   H483      1.0  0.86961  0.31790  0.17493  1.0000
  H   H484      1.0  0.86056  0.31146  0.12426  1.0000
  C   C470      1.0  0.83265  0.35471  0.40903  1.0000
  C   C471      1.0  0.85637  0.34790  0.41871  1.0000
  C   C472      1.0  0.87433  0.33877  0.39959  1.0000
  C   C473      1.0  0.86869  0.33603  0.37076  1.0000
  C   C474      1.0  0.84486  0.34250  0.36119  1.0000
  C   C475      1.0  0.82699  0.35189  0.38024  1.0000
  H   H485      1.0  0.86099  0.35006  0.44078  1.0000
  H   H486      1.0  0.89273  0.33378  0.40715  1.0000
  H   H487      1.0  0.84030  0.34052  0.33908  1.0000
  H   H488      1.0  0.80869  0.35713  0.37258  1.0000
  C   C476      1.0  0.67984  0.14898  0.15863  1.0000
  H   H489      1.0  0.71537  0.30676  0.06874  1.0000
  C   C477      1.0  0.66973  0.15885  0.36387  1.0000
  S   S171      1.0  0.78746  0.45457  0.02634  1.0000
  C   C478      1.0  0.80056  0.48415  0.02031  1.0000
  S   S172      1.0  0.70269  0.17980  0.19797  1.0000
  C   C479      1.0  0.69053  0.17197  0.16435  1.0000
  H   H490      1.0  0.70686  0.20036  0.34304  1.0000
  S   S173      1.0  0.80097  0.34863  0.51171  1.0000
  N   N41       1.0  0.92573  0.35766  0.18350  1.0000
  S   S174      1.0  0.69248  0.26589  0.49254  1.0000
  C   C480      1.0  0.81325  0.43956  0.43905  1.0000
  H   H491      1.0  0.74412  0.33376  0.04305  1.0000
  H   H492      1.0  0.69518  0.12427  0.41666  1.0000
  H   H493      1.0  0.69204  0.12526  0.36448  1.0000
  C   C481      1.0  0.79758  0.19053  0.28675  1.0000
  C   C482      1.0  0.81651  0.20337  0.30091  1.0000
  C   C483      1.0  0.82999  0.22174  0.28715  1.0000
  C   C484      1.0  0.82487  0.22709  0.25895  1.0000
  C   C485      1.0  0.80595  0.21419  0.24483  1.0000
  C   C486      1.0  0.79224  0.19614  0.25869  1.0000
  H   H494      1.0  0.82084  0.19908  0.32259  1.0000
  H   H495      1.0  0.84457  0.23147  0.29821  1.0000
  H   H496      1.0  0.80186  0.21818  0.22302  1.0000
  H   H497      1.0  0.77773  0.18639  0.24754  1.0000
  C   C487      1.0  0.88336  0.40649  0.41981  1.0000
  S   S175      1.0  0.67467  0.15549  0.46029  1.0000
  H   H498      1.0  0.74030  0.01547  0.22359  1.0000
  H   H499      1.0  0.92117  0.37217  0.22505  1.0000
  H   H500      1.0  0.72814  0.17914  0.45174  1.0000
  C   C488      1.0  0.72459  0.30448  0.49413  1.0000
  C   C489      1.0  0.91682  0.36056  0.15667  1.0000
  C   C490      1.0  0.67726  0.18617  0.11781  1.0000
  H   H501      1.0  0.90995  0.34292  0.11631  1.0000
  C   C491      1.0  0.73165  0.01301  0.24379  1.0000
  C   C492      1.0  0.72416  0.03408  0.25972  1.0000
  C   C493      1.0  0.71309  0.03057  0.28582  1.0000
  H   H502      1.0  0.94295  0.38835  0.20344  1.0000
  N   N42       1.0  0.83762  0.42851  0.43245  1.0000
  C   C494      1.0  0.84100  0.41669  0.40707  1.0000
  C   C495      1.0  0.85680  0.43010  0.45139  1.0000
  C   C496      1.0  0.86393  0.40562  0.40031  1.0000
  C   C497      1.0  0.73448  0.32684  0.50437  1.0000
  H   H503      1.0  0.90089  0.39708  0.41518  1.0000
  H   H504      1.0  0.85417  0.43953  0.47153  1.0000
  H   H505      1.0  0.86620  0.39533  0.38064  1.0000
  C   C498      1.0  0.72272  0.19194  0.43526  1.0000
  H   H506      1.0  0.67614  0.20071  0.10234  1.0000
  H   H507      1.0  0.92845  0.30231  0.13091  1.0000
  H   H508      1.0  0.90823  0.37801  0.15032  1.0000
  H   H509      1.0  0.73550  0.16793  0.40178  1.0000
  C   C499      1.0  0.73129  0.32217  0.03150  1.0000
  C   C500      1.0  0.71501  0.30685  0.04598  1.0000
  Fe  Fe90      1.0  0.80211  0.41449  0.02055  1.0000
  H   H510      1.0  0.69796  0.20811  0.14780  1.0000
  C   C501      1.0  0.68513  0.13937  0.40660  1.0000
  H   H511      1.0  0.94376  0.33333  0.21266  1.0000
  C   C502      1.0  0.70331  0.23047  0.42083  1.0000
  H   H512      1.0  0.73331  0.29501  0.47647  1.0000
  N   N43       1.0  0.79243  0.08950  0.26518  1.0000
  C   C503      1.0  0.78998  0.08499  0.23688  1.0000
  C   C504      1.0  0.80292  0.11097  0.27479  1.0000
  C   C505      1.0  0.79858  0.10201  0.21741  1.0000
  C   C506      1.0  0.81187  0.12829  0.25591  1.0000
  C   C507      1.0  0.80960  0.12380  0.22706  1.0000
  C   C508      1.0  0.78254  0.07201  0.28540  1.0000
  H   H513      1.0  0.78078  0.06844  0.22921  1.0000
  H   H514      1.0  0.80398  0.11511  0.29718  1.0000
  H   H515      1.0  0.79612  0.09860  0.19503  1.0000
  H   H516      1.0  0.81987  0.14544  0.26369  1.0000
  H   H517      1.0  0.81586  0.13747  0.21229  1.0000
  H   H518      1.0  0.79522  0.06988  0.30378  1.0000
  H   H519      1.0  0.81208  0.44590  0.46141  1.0000
  C   C509      1.0  0.93634  0.33555  0.19152  1.0000
  N   N44       1.0  0.80648  0.32302  0.19318  1.0000
  C   C510      1.0  0.81413  0.29949  0.20012  1.0000
  C   C511      1.0  0.80020  0.32851  0.16597  1.0000
  C   C512      1.0  0.81630  0.28088  0.17941  1.0000
  C   C513      1.0  0.80211  0.31034  0.14473  1.0000
  C   C514      1.0  0.81033  0.28641  0.15154  1.0000
  C   C515      1.0  0.80391  0.34217  0.21523  1.0000
  H   H520      1.0  0.81882  0.29499  0.22174  1.0000
  H   H521      1.0  0.79433  0.34720  0.16038  1.0000
  H   H522      1.0  0.82271  0.26234  0.18505  1.0000
  H   H523      1.0  0.79802  0.31503  0.12299  1.0000
  H   H524      1.0  0.81228  0.27224  0.13522  1.0000
  H   H525      1.0  0.78494  0.34203  0.22410  1.0000
  H   H526      1.0  0.81767  0.33905  0.23245  1.0000
  H   H527      1.0  0.80770  0.36089  0.20687  1.0000
  H   H528      1.0  0.70742  0.21941  0.46403  1.0000
  C   C516      1.0  0.92801  0.31796  0.14552  1.0000
  H   H529      1.0  0.80937  0.45578  0.42545  1.0000
  H   H530      1.0  0.94547  0.29769  0.17948  1.0000
  C   C517      1.0  0.99249  0.30502  0.27926  1.0000
  S   S176      1.0  0.67960  0.20331  0.03006  1.0000
  C   C518      1.0  0.91778  0.34076  0.13730  1.0000
  C   C519      1.0  0.70955  0.00632  0.29577  1.0000
  H   H531      1.0  0.79859  0.42556  0.43560  1.0000
  N   N45       1.0  0.71858  0.20117  0.38607  1.0000
  C   C520      1.0  0.70740  0.22353  0.39269  1.0000
  C   C521      1.0  0.99053  0.29529  0.25192  1.0000
  C   C522      1.0  0.71087  0.21444  0.44217  1.0000
  H   H532      1.0  0.74006  0.20284  0.34884  1.0000
  S   S177      1.0  0.84135  0.39974  0.02539  1.0000
  C   C523      1.0  0.69834  0.29164  0.03123  1.0000
  C   C524      1.0  0.68959  0.19033  0.14361  1.0000
  S   S178      1.0  0.84211  0.39172  0.50561  1.0000
  H   H533      1.0  0.89475  0.41947  0.46097  1.0000
  H   H534      1.0  0.68053  0.13468  0.17438  1.0000
  C   C525      1.0  0.72661  0.18563  0.40694  1.0000
  C   C526      1.0  0.70356  0.29432  0.50645  1.0000
  H   H535      1.0  0.69424  0.24809  0.42624  1.0000
  S   S179      1.0  0.67792  0.27309  0.05032  1.0000
  C   C527      1.0  0.67344  0.15787  0.42321  1.0000
  H   H536      1.0  0.73541  0.24460  0.02775  1.0000
  C   C528      1.0  0.78928  0.49261  0.51251  1.0000
  H   H537      1.0  0.77714  0.47686  0.51267  1.0000
  Fe  Fe91      1.0  0.73017  0.11112  0.76100  1.0000
  S   S180      1.0  0.69814  0.13723  0.75085  1.0000
  S   S181      1.0  0.72062  0.07153  0.74662  1.0000
  Fe  Fe92      1.0  0.76164  0.15466  0.78265  1.0000
  S   S182      1.0  0.73134  0.18275  0.77453  1.0000
  S   S183      1.0  0.79609  0.17108  0.80277  1.0000
  Fe  Fe93      1.0  0.70618  0.15493  0.79314  1.0000
  H   H538      1.0  0.76320  0.21628  0.74651  1.0000
  Fe  Fe94      1.0  0.72643  0.16261  0.73325  1.0000
  H   H539      1.0  0.75778  0.27207  0.53362  1.0000
  S   S184      1.0  0.73658  0.12766  0.80431  1.0000
  S   S185      1.0  0.75817  0.13565  0.74046  1.0000
  H   H540      1.0  0.70444  0.02364  0.72768  1.0000
  H   H541      1.0  0.75231  0.05213  0.79260  1.0000
  C   C529      1.0  0.70271  0.16938  0.87122  1.0000
  C   C530      1.0  0.69383  0.10564  0.87163  1.0000
  H   H542      1.0  0.80350  0.46348  0.96396  1.0000
  H   H543      1.0  0.70275  0.06553  0.80450  1.0000
  C   C531      1.0  0.97622  0.26310  0.82379  1.0000
  H   H544      1.0  0.73272  0.29234  0.56669  1.0000
  Fe  Fe95      1.0  0.82859  0.36739  0.54035  1.0000
  S   S186      1.0  0.85190  0.34207  0.56873  1.0000
  Fe  Fe96      1.0  0.83400  0.37899  0.98460  1.0000
  S   S187      1.0  0.86254  0.37923  0.94957  1.0000
  S   S188      1.0  0.80168  0.39604  0.55717  1.0000
  S   S189      1.0  0.79597  0.39561  0.97868  1.0000
  Fe  Fe97      1.0  0.92540  0.31127  0.76704  1.0000
  S   S190      1.0  0.89824  0.34343  0.77314  1.0000
  S   S191      1.0  0.96533  0.32421  0.77414  1.0000
  Fe  Fe98      1.0  0.88331  0.27622  0.75115  1.0000
  S   S192      1.0  0.85433  0.30628  0.75550  1.0000
  S   S193      1.0  0.86928  0.23923  0.73451  1.0000
  Fe  Fe99      1.0  0.88063  0.33022  0.73267  1.0000
  S   S194      1.0  0.86787  0.35902  0.70071  1.0000
  Fe  Fe100     1.0  0.87431  0.31657  0.79559  1.0000
  S   S195      1.0  0.84766  0.32177  0.83239  1.0000
  S   S196      1.0  0.90882  0.29969  0.72529  1.0000
  S   S197      1.0  0.90237  0.28501  0.79244  1.0000
  C   C532      1.0  0.68211  0.17453  0.67030  1.0000
  H   H545      1.0  0.72394  0.17140  0.90985  1.0000
  H   H546      1.0  0.95123  0.29418  0.83170  1.0000
  H   H547      1.0  0.72250  0.14418  0.62277  1.0000
  H   H548      1.0  0.86425  0.43801  0.93896  1.0000
  C   C533      1.0  0.85499  0.34665  0.60564  1.0000
  C   C534      1.0  0.84866  0.36932  0.61866  1.0000
  C   C535      1.0  0.85226  0.37261  0.64786  1.0000
  C   C536      1.0  0.86185  0.35320  0.66446  1.0000
  C   C537      1.0  0.86767  0.33032  0.65157  1.0000
  C   C538      1.0  0.86444  0.32716  0.62226  1.0000
  H   H549      1.0  0.84147  0.38452  0.60615  1.0000
  H   H550      1.0  0.84777  0.39039  0.65762  1.0000
  H   H551      1.0  0.87506  0.31521  0.66409  1.0000
  H   H552      1.0  0.86931  0.30952  0.61240  1.0000
  C   C539      1.0  0.85842  0.36265  0.91737  1.0000
  C   C540      1.0  0.83643  0.35030  0.91115  1.0000
  C   C541      1.0  0.83351  0.33793  0.88504  1.0000
  C   C542      1.0  0.85248  0.33772  0.86488  1.0000
  C   C543      1.0  0.87442  0.35020  0.87104  1.0000
  C   C544      1.0  0.87732  0.36266  0.89714  1.0000
  H   H553      1.0  0.82168  0.35028  0.92644  1.0000
  H   H554      1.0  0.81646  0.32839  0.88044  1.0000
  H   H555      1.0  0.88912  0.35028  0.85569  1.0000
  H   H556      1.0  0.89434  0.37228  0.90170  1.0000
  H   H557      1.0  0.98433  0.27482  0.75603  1.0000
  C   C545      1.0  0.68487  0.10263  0.65142  1.0000
  C   C546      1.0  0.68529  0.18000  0.91740  1.0000
  C   C547      1.0  0.73747  0.23396  0.95719  1.0000
  H   H558      1.0  0.80085  0.40068  0.88724  1.0000
  C   C548      1.0  0.78020  0.44427  0.93447  1.0000
  H   H559      1.0  0.71858  0.16431  0.85843  1.0000
  C   C549      1.0  0.71384  0.30766  0.98735  1.0000
  C   C550      1.0  0.76356  0.33664  0.60332  1.0000
  Fe  Fe101     1.0  0.77455  0.37832  0.52685  1.0000
  Fe  Fe102     1.0  0.78238  0.36314  0.00294  1.0000
  C   C551      1.0  0.82508  0.48673  0.01159  1.0000
  H   H560      1.0  0.71328  0.30800  0.96460  1.0000
  H   H561      1.0  0.84964  0.46438  0.95617  1.0000
  C   C552      1.0  0.73063  0.32276  0.00212  1.0000
  C   C553      1.0  0.81648  0.18976  0.78353  1.0000
  C   C554      1.0  0.83063  0.20766  0.79785  1.0000
  C   C555      1.0  0.84672  0.22309  0.78313  1.0000
  C   C556      1.0  0.84941  0.22019  0.75402  1.0000
  C   C557      1.0  0.83574  0.20186  0.73981  1.0000
  C   C558      1.0  0.81902  0.18702  0.75438  1.0000
  H   H562      1.0  0.82892  0.20980  0.82041  1.0000
  H   H563      1.0  0.85723  0.23703  0.79436  1.0000
  H   H564      1.0  0.83794  0.19926  0.71736  1.0000
  H   H565      1.0  0.80848  0.17311  0.74315  1.0000
  H   H566      1.0  0.68517  0.28032  0.99023  1.0000
  H   H567      1.0  0.73203  0.10365  0.69926  1.0000
  C   C559      1.0  0.78690  0.33315  0.59131  1.0000
  C   C560      1.0  0.77931  0.42641  0.91293  1.0000
  C   C561      1.0  0.71004  0.19676  0.64064  1.0000
  C   C562      1.0  0.84801  0.44416  0.95173  1.0000
  H   H568      1.0  0.72672  0.08702  0.88749  1.0000
  H   H569      1.0  0.69122  0.11727  0.89027  1.0000
  C   C563      1.0  0.73107  0.23085  0.98525  1.0000
  Fe  Fe103     1.0  0.81308  0.41963  0.52060  1.0000
  C   C564      1.0  0.72770  0.04104  0.75906  1.0000
  C   C565      1.0  0.71665  0.02058  0.74553  1.0000
  C   C566      1.0  0.74344  0.03668  0.78212  1.0000
  N   N46       1.0  0.94170  0.35233  0.69642  1.0000
  C   C567      1.0  0.96065  0.33521  0.69915  1.0000
  C   C568      1.0  0.92734  0.35269  0.67257  1.0000
  C   C569      1.0  0.72332  0.33951  0.52694  1.0000
  C   C570      1.0  0.93098  0.33486  0.65125  1.0000
  H   H570      1.0  0.95250  0.30266  0.63808  1.0000
  C   C571      1.0  0.93748  0.37117  0.71851  1.0000
  C   C572      1.0  0.97042  0.28763  0.83142  1.0000
  H   H571      1.0  0.91273  0.36667  0.67006  1.0000
  C   C573      1.0  0.71683  0.07402  0.84582  1.0000
  H   H572      1.0  0.91917  0.33498  0.63261  1.0000
  H   H573      1.0  0.76006  0.00906  0.80938  1.0000
  H   H574      1.0  0.94397  0.36440  0.73938  1.0000
  H   H575      1.0  0.94745  0.38834  0.71348  1.0000
  H   H576      1.0  0.91731  0.37565  0.72060  1.0000
  C   C574      1.0  0.69860  0.09674  0.67565  1.0000
  H   H577      1.0  0.76046  0.35131  0.61883  1.0000
  S   S198      1.0  0.75079  0.34155  0.98298  1.0000
  H   H578      1.0  0.76111  0.22516  0.79775  1.0000
  H   H579      1.0  0.73214  0.06067  0.84431  1.0000
  C   C575      1.0  0.66936  0.18575  0.62247  1.0000
  C   C576      1.0  0.72990  0.12519  0.66139  1.0000
  C   C577      1.0  0.70569  0.17342  0.90040  1.0000
  H   H580      1.0  0.79023  0.26983  0.54306  1.0000
  H   H581      1.0  0.78683  0.29867  0.98103  1.0000
  S   S199      1.0  0.68142  0.20278  0.52291  1.0000
  H   H582      1.0  0.78682  0.25859  0.81873  1.0000
  N   N47       1.0  0.82452  0.43891  0.93730  1.0000
  N   N48       1.0  0.77096  0.30064  0.56160  1.0000
  C   C578      1.0  0.70509  0.18549  0.66646  1.0000
  C   C579      1.0  0.78728  0.25481  0.79627  1.0000
  C   C580      1.0  0.74409  0.32155  0.59476  1.0000
  H   H583      1.0  0.69644  0.20522  0.59876  1.0000
  H   H584      1.0  0.76162  0.42111  0.90387  1.0000
  H   H585      1.0  0.72779  0.20526  0.63749  1.0000
  C   C581      1.0  0.80310  0.45026  0.94655  1.0000
  C   C582      1.0  0.74817  0.30344  0.57383  1.0000
  H   H586      1.0  0.72570  0.32451  0.60341  1.0000
  C   C583      1.0  0.69231  0.19680  0.61867  1.0000
  C   C584      1.0  0.72127  0.10807  0.68054  1.0000
  H   H587      1.0  0.80212  0.34490  0.59763  1.0000
  C   C585      1.0  0.75381  0.25273  0.95022  1.0000
  C   C586      1.0  0.79031  0.31490  0.57042  1.0000
  N   N49       1.0  0.79007  0.24379  0.73906  1.0000
  C   C587      1.0  0.80399  0.26245  0.75035  1.0000
  C   C588      1.0  0.77423  0.23102  0.75557  1.0000
  C   C589      1.0  0.80285  0.26824  0.77913  1.0000
  C   C590      1.0  0.94968  0.31677  0.65432  1.0000
  C   C591      1.0  0.74786  0.01219  0.79154  1.0000
  C   C592      1.0  0.79162  0.23798  0.70889  1.0000
  H   H588      1.0  0.81665  0.27239  0.73721  1.0000
  N   N50       1.0  0.76352  0.26790  0.97067  1.0000
  H   H589      1.0  0.81445  0.28256  0.78828  1.0000
  H   H590      1.0  0.75863  0.25515  0.92833  1.0000
  H   H591      1.0  0.67321  0.09130  0.78065  1.0000
  C   C593      1.0  0.70020  0.07690  0.82328  1.0000
  C   C594      1.0  0.80126  0.41497  0.90358  1.0000
  H   H592      1.0  0.81099  0.23994  0.70139  1.0000
  C   C595      1.0  0.99567  0.31148  0.76837  1.0000
  H   H593      1.0  0.84073  0.41222  0.90895  1.0000
  H   H594      1.0  0.72964  0.22191  0.94102  1.0000
  C   C596      1.0  0.67921  0.17175  0.85875  1.0000
  S   S200      1.0  0.73642  0.36685  0.54143  1.0000
  H   H595      1.0  0.69178  0.08356  0.69071  1.0000
  C   C597      1.0  0.00113  0.25532  0.82244  1.0000
  S   S201      1.0  0.82855  0.45909  0.52213  1.0000
  H   H596      1.0  0.69302  0.33944  0.55628  1.0000
  C   C598      1.0  0.96477  0.31702  0.67833  1.0000
  H   H597      1.0  0.77902  0.25060  0.69695  1.0000
  C   C599      1.0  0.77280  0.23613  0.78447  1.0000
  H   H598      1.0  0.83841  0.49155  0.58103  1.0000
  H   H599      1.0  0.78634  0.21844  0.70435  1.0000
  C   C600      1.0  0.67748  0.10787  0.84875  1.0000
  H   H600      1.0  0.76324  0.45287  0.94248  1.0000
  S   S202      1.0  0.69024  0.18454  0.95404  1.0000
  N   N51       1.0  0.69356  0.11930  0.63260  1.0000
  C   C601      1.0  0.82383  0.42154  0.91602  1.0000
  H   H601      1.0  0.97261  0.33542  0.71759  1.0000
  H   H602      1.0  0.74712  0.13475  0.66554  1.0000
  H   H603      1.0  0.67921  0.10806  0.59276  1.0000
  H   H604      1.0  0.83694  0.47042  0.00922  1.0000
  C   C602      1.0  0.70193  0.32965  0.53896  1.0000
  C   C603      1.0  0.67907  0.12454  0.60703  1.0000
  S   S203      1.0  0.72860  0.18447  0.69271  1.0000
  C   C604      1.0  0.81489  0.48888  0.51576  1.0000
  C   C605      1.0  0.71581  0.13051  0.63728  1.0000
  H   H605      1.0  0.97951  0.30319  0.68094  1.0000
  H   H606      1.0  0.84894  0.43390  0.97186  1.0000
  C   C606      1.0  0.99990  0.28672  0.76016  1.0000
  C   C607      1.0  0.75727  0.26499  0.99827  1.0000
  H   H607      1.0  0.80842  0.31263  0.56080  1.0000
  C   C608      1.0  0.78056  0.28740  0.96259  1.0000
  H   H608      1.0  0.77107  0.30048  0.94792  1.0000
  H   H609      1.0  0.79726  0.27915  0.95228  1.0000
  C   C609      1.0  0.71374  0.08871  0.87002  1.0000
  H   H610      1.0  0.71839  0.21639  0.99083  1.0000
  N   N52       1.0  0.68124  0.09413  0.82469  1.0000
  H   H611      1.0  0.68645  0.14053  0.59535  1.0000
  C   C610      1.0  0.77469  0.28298  0.53819  1.0000
  H   H612      1.0  0.77910  0.29327  0.51879  1.0000
  C   C611      1.0  0.69221  0.30700  0.52896  1.0000
  C   C612      1.0  0.74089  0.24648  0.00597  1.0000
  S   S204      1.0  0.82019  0.34521  0.00590  1.0000
  H   H613      1.0  0.67583  0.29952  0.53842  1.0000
  S   S205      1.0  0.67439  0.16547  0.82239  1.0000
  H   H614      1.0  0.96149  0.25039  0.81844  1.0000
  H   H615      1.0  0.98509  0.32333  0.84259  1.0000
  C   C613      1.0  0.69789  0.29197  0.00182  1.0000
  H   H616      1.0  0.67806  0.16585  0.69008  1.0000
  C   C614      1.0  0.98947  0.30401  0.83764  1.0000
  H   H617      1.0  0.76442  0.27741  0.01444  1.0000
  Fe  Fe104     1.0  0.74600  0.86930  0.25579  1.0000
  S   S206      1.0  0.71591  0.84321  0.26626  1.0000
  S   S207      1.0  0.77658  0.84964  0.23105  1.0000
  Fe  Fe105     1.0  0.71663  0.91447  0.27902  1.0000
  S   S208      1.0  0.68436  0.89050  0.29075  1.0000
  S   S209      1.0  0.71139  0.95518  0.29341  1.0000
  Fe  Fe106     1.0  0.71318  0.86378  0.30755  1.0000
  S   S210      1.0  0.71401  0.83971  0.34671  1.0000
  Fe  Fe107     1.0  0.69013  0.87202  0.24839  1.0000
  C   C615      1.0  0.99139  0.71250  0.28703  1.0000
  S   S211      1.0  0.74534  0.88832  0.29828  1.0000
  S   S212      1.0  0.72018  0.89753  0.23541  1.0000
  S   S213      1.0  0.78085  0.56799  0.50825  1.0000
  C   C616      1.0  0.74952  0.73623  0.47428  1.0000
  C   C617      1.0  0.94434  0.69616  0.37187  1.0000
  H   H618      1.0  0.89516  0.63391  0.40522  1.0000
  S   S214      1.0  0.69992  0.76288  0.03794  1.0000
  C   C618      1.0  0.88357  0.59173  0.07514  1.0000
  C   C619      1.0  0.79488  0.52951  0.01856  1.0000
  Fe  Fe108     1.0  0.81899  0.64550  0.05010  1.0000
  S   S215      1.0  0.81450  0.65383  0.09713  1.0000
  Fe  Fe109     1.0  0.83021  0.64792  0.49501  1.0000
  S   S216      1.0  0.85159  0.66922  0.46182  1.0000
  S   S217      1.0  0.78959  0.61888  0.03567  1.0000
  S   S218      1.0  0.78937  0.64022  0.49176  1.0000
  Fe  Fe110     1.0  0.92338  0.71461  0.28547  1.0000
  S   S219      1.0  0.90431  0.67995  0.27074  1.0000
  S   S220      1.0  0.96251  0.71396  0.30493  1.0000
  Fe  Fe111     1.0  0.87471  0.74592  0.27960  1.0000
  S   S221      1.0  0.85280  0.71339  0.26380  1.0000
  S   S222      1.0  0.85726  0.78252  0.29464  1.0000
  Fe  Fe112     1.0  0.87244  0.69228  0.29848  1.0000
  S   S223      1.0  0.85154  0.66645  0.32735  1.0000
  Fe  Fe113     1.0  0.88652  0.70416  0.23744  1.0000
  S   S224      1.0  0.89037  0.69283  0.19102  1.0000
  S   S225      1.0  0.89256  0.72506  0.31541  1.0000
  S   S226      1.0  0.90735  0.73852  0.25112  1.0000
  N   N53       1.0  0.77882  0.70574  0.45650  1.0000
  C   C620      1.0  0.72818  0.66138  0.06068  1.0000
  C   C621      1.0  0.91162  0.64320  0.33739  1.0000
  H   H619      1.0  0.78303  0.54582  0.02116  1.0000
  H   H620      1.0  0.78876  0.70143  0.07653  1.0000
  C   C622      1.0  0.84991  0.66880  0.42444  1.0000
  C   C623      1.0  0.83777  0.65016  0.40923  1.0000
  C   C624      1.0  0.83795  0.65007  0.37954  1.0000
  C   C625      1.0  0.85021  0.66856  0.36468  1.0000
  C   C626      1.0  0.86184  0.68753  0.37990  1.0000
  C   C627      1.0  0.86173  0.68757  0.40959  1.0000
  H   H621      1.0  0.82867  0.63552  0.42031  1.0000
  H   H622      1.0  0.82889  0.63531  0.36798  1.0000
  H   H623      1.0  0.87133  0.70188  0.36884  1.0000
  H   H624      1.0  0.87114  0.70212  0.42112  1.0000
  C   C628      1.0  0.86863  0.68277  0.16515  1.0000
  C   C629      1.0  0.87675  0.67880  0.13733  1.0000
  C   C630      1.0  0.86037  0.67044  0.11609  1.0000
  C   C631      1.0  0.83566  0.66579  0.12252  1.0000
  C   C632      1.0  0.82752  0.66971  0.15032  1.0000
  C   C633      1.0  0.84386  0.67824  0.17152  1.0000
  H   H625      1.0  0.89586  0.68231  0.13220  1.0000
  H   H626      1.0  0.86691  0.66754  0.09482  1.0000
  H   H627      1.0  0.80848  0.66601  0.15560  1.0000
  H   H628      1.0  0.83739  0.68112  0.19282  1.0000
  H   H629      1.0  0.93509  0.71193  0.36078  1.0000
  H   H630      1.0  0.80308  0.60263  0.11432  1.0000
  C   C634      1.0  0.92627  0.66405  0.34177  1.0000
  H   H631      1.0  0.66911  0.90029  0.46265  1.0000
  H   H632      1.0  0.96304  0.69316  0.36255  1.0000
  H   H633      1.0  0.68990  0.88857  0.12992  1.0000
  H   H634      1.0  0.73159  0.74575  0.47277  1.0000
  C   C635      1.0  0.67697  0.94352  0.19143  1.0000
  H   H635      1.0  0.70840  0.81179  0.39711  1.0000
  H   H636      1.0  0.75728  0.85043  0.16785  1.0000
  C   C636      1.0  0.70625  0.67555  0.06153  1.0000
  H   H637      1.0  0.97592  0.71270  0.24517  1.0000
  C   C637      1.0  0.78649  0.68786  0.43455  1.0000
  C   C638      1.0  0.69493  0.82694  0.39784  1.0000
  C   C639      1.0  0.75668  0.71848  0.45399  1.0000
  C   C640      1.0  0.79867  0.83074  0.24895  1.0000
  C   C641      1.0  0.80465  0.83522  0.27721  1.0000
  C   C642      1.0  0.82291  0.82049  0.29069  1.0000
  C   C643      1.0  0.83497  0.80081  0.27627  1.0000
  C   C644      1.0  0.82867  0.79599  0.24814  1.0000
  C   C645      1.0  0.81079  0.81112  0.23445  1.0000
  H   H638      1.0  0.79559  0.85039  0.28852  1.0000
  H   H639      1.0  0.82771  0.82437  0.31242  1.0000
  H   H640      1.0  0.83792  0.78095  0.23680  1.0000
  H   H641      1.0  0.80641  0.80765  0.21252  1.0000
  C   C646      1.0  0.69346  0.84374  0.37545  1.0000
  H   H642      1.0  0.69609  0.93577  0.19410  1.0000
  C   C647      1.0  0.84340  0.57283  0.07252  1.0000
  C   C648      1.0  0.90433  0.64191  0.38733  1.0000
  H   H643      1.0  0.68754  0.81566  0.09310  1.0000
  C   C649      1.0  0.70511  0.81689  0.17484  1.0000
  C   C650      1.0  0.71703  0.98525  0.27986  1.0000
  C   C651      1.0  0.67895  0.82947  0.42107  1.0000
  C   C652      1.0  0.67595  0.86325  0.37662  1.0000
  C   C653      1.0  0.69889  0.87561  0.47543  1.0000
  H   H644      1.0  0.87335  0.56407  0.04401  1.0000
  C   C654      1.0  0.73750  0.73079  0.02267  1.0000
  C   C655      1.0  0.70641  0.69945  0.07321  1.0000
  H   H645      1.0  0.79717  0.57979  0.08765  1.0000
  S   S227      1.0  0.68236  0.82862  0.02459  1.0000
  C   C656      1.0  0.72605  0.83023  0.18257  1.0000
  H   H646      1.0  0.69023  0.88541  0.18198  1.0000
  H   H647      1.0  0.73065  0.83314  0.20462  1.0000
  C   C657      1.0  0.72811  0.98875  0.25374  1.0000
  C   C658      1.0  0.70212  0.70181  0.50001  1.0000
  H   H648      1.0  0.71033  0.83753  0.08431  1.0000
  H   H649      1.0  0.70442  0.87113  0.45400  1.0000
  H   H650      1.0  0.75945  0.75397  0.51357  1.0000
  H   H651      1.0  0.71892  0.80488  0.08680  1.0000
  C   C659      1.0  0.99280  0.71232  0.25767  1.0000
  C   C660      1.0  0.71079  0.86420  0.49814  1.0000
  H   H652      1.0  0.69307  0.80978  0.19092  1.0000
  H   H653      1.0  0.90211  0.59396  0.06699  1.0000
  H   H654      1.0  0.76721  0.66065  0.06984  1.0000
  H   H655      1.0  0.74424  0.71476  0.43646  1.0000
  H   H656      1.0  0.72845  0.64311  0.05073  1.0000
  H   H657      1.0  0.83097  0.55989  0.06224  1.0000
  H   H658      1.0  0.76650  0.70325  0.01658  1.0000
  H   H659      1.0  0.79803  0.69712  0.41871  1.0000
  N   N54       1.0  0.92963  0.67373  0.36825  1.0000
  C   C661      1.0  0.91890  0.66295  0.39092  1.0000
  H   H660      1.0  0.88835  0.61656  0.35706  1.0000
  C   C662      1.0  0.82029  0.53394  0.51286  1.0000
  C   C663      1.0  0.86750  0.57496  0.06228  1.0000
  C   C664      1.0  0.76517  0.74089  0.49719  1.0000
  H   H661      1.0  0.77254  0.72601  0.09473  1.0000
  H   H662      1.0  0.93465  0.67272  0.32381  1.0000
  H   H663      1.0  0.73407  0.97279  0.24128  1.0000
  H   H664      1.0  0.77024  0.67933  0.42395  1.0000
  H   H665      1.0  0.68265  0.80370  0.14048  1.0000
  H   H666      1.0  0.92099  0.67088  0.41188  1.0000
  C   C665      1.0  0.87552  0.60581  0.09832  1.0000
  C   C666      1.0  0.77927  0.51689  0.50955  1.0000
  C   C667      1.0  0.70743  0.82017  0.09617  1.0000
  N   N55       1.0  0.79875  0.76657  0.32326  1.0000
  C   C668      1.0  0.79026  0.78289  0.34348  1.0000
  C   C669      1.0  0.78900  0.76714  0.29658  1.0000
  C   C670      1.0  0.77155  0.80040  0.33722  1.0000
  C   C671      1.0  0.77038  0.78452  0.28956  1.0000
  C   C672      1.0  0.76161  0.80117  0.31009  1.0000
  C   C673      1.0  0.81788  0.74796  0.33068  1.0000
  H   H667      1.0  0.79813  0.78259  0.36452  1.0000
  H   H668      1.0  0.79616  0.75467  0.28032  1.0000
  H   H669      1.0  0.76483  0.81354  0.35310  1.0000
  H   H670      1.0  0.76331  0.78561  0.26817  1.0000
  H   H671      1.0  0.74741  0.81496  0.30498  1.0000
  H   H672      1.0  0.80980  0.73301  0.34331  1.0000
  H   H673      1.0  0.82651  0.73938  0.31165  1.0000
  H   H674      1.0  0.83324  0.75682  0.34264  1.0000
  C   C674      1.0  0.79440  0.71044  0.47873  1.0000
  N   N56       1.0  0.71369  0.82378  0.12603  1.0000
  C   C675      1.0  0.73444  0.83664  0.13344  1.0000
  C   C676      1.0  0.69925  0.81367  0.14629  1.0000
  C   C677      1.0  0.77376  0.70552  0.09197  1.0000
  H   H675      1.0  0.94678  0.70153  0.39433  1.0000
  H   H676      1.0  0.80968  0.57015  0.12135  1.0000
  H   H677      1.0  0.76660  0.50394  0.03063  1.0000
  H   H678      1.0  0.74597  0.84451  0.11739  1.0000
  C   C678      1.0  0.90055  0.63214  0.36034  1.0000
  S   S228      1.0  0.80953  0.67374  0.01717  1.0000
  S   S229      1.0  0.84861  0.62715  0.02338  1.0000
  H   H679      1.0  0.81199  0.70046  0.48071  1.0000
  H   H680      1.0  0.67990  0.96719  0.24083  1.0000
  H   H681      1.0  0.72579  0.85084  0.49455  1.0000
  H   H682      1.0  0.88775  0.61903  0.10849  1.0000
  C   C679      1.0  0.85135  0.60306  0.10811  1.0000
  N   N57       1.0  0.83545  0.58720  0.09476  1.0000
  H   H683      1.0  0.90819  0.63619  0.31623  1.0000
  C   C680      1.0  0.78773  0.72789  0.49951  1.0000
  C   C681      1.0  0.81010  0.58475  0.10511  1.0000
  H   H684      1.0  0.72878  0.72798  0.09146  1.0000
  C   C682      1.0  0.74092  0.84009  0.16182  1.0000
  H   H685      1.0  0.74936  0.74329  0.03433  1.0000
  H   H686      1.0  0.79772  0.67238  0.44366  1.0000
  H   H687      1.0  0.77928  0.69699  0.11231  1.0000
  H   H688      1.0  0.84521  0.61412  0.12609  1.0000
  C   C683      1.0  0.72871  0.70901  0.08351  1.0000
  C   C684      1.0  0.67734  0.87615  0.14005  1.0000
  C   C685      1.0  0.79465  0.53772  0.51007  1.0000
  C   C686      1.0  0.67912  0.89217  0.48030  1.0000
  C   C687      1.0  0.75013  0.67152  0.07117  1.0000
  H   H689      1.0  0.69363  0.69282  0.48197  1.0000
  S   S230      1.0  0.67451  0.80832  0.50697  1.0000
  N   N58       1.0  0.75028  0.69520  0.08194  1.0000
  H   H690      1.0  0.68018  0.81634  0.43806  1.0000
  C   C688      1.0  0.67751  0.87446  0.16955  1.0000
  C   C689      1.0  0.78560  0.50570  0.02389  1.0000
  H   H691      1.0  0.73186  0.67433  0.50357  1.0000
  C   C690      1.0  0.69151  0.72394  0.51096  1.0000
  H   H692      1.0  0.68936  0.66833  0.05227  1.0000
  H   H693      1.0  0.75941  0.51956  0.50724  1.0000
  C   C691      1.0  0.71231  0.73709  0.01881  1.0000
  C   C692      1.0  0.72375  0.69128  0.51222  1.0000
  C   C693      1.0  0.67130  0.89687  0.50788  1.0000
  H   H694      1.0  0.68967  0.71102  0.07298  1.0000
  H   H695      1.0  0.67468  0.87634  0.35959  1.0000
  H   H696      1.0  0.67801  0.96383  0.18784  1.0000
  H   H697      1.0  0.83239  0.54972  0.51317  1.0000
  Fe  Fe114     1.0  0.66873  0.78953  0.02436  1.0000
  Fe  Fe115     1.0  0.75233  0.87443  0.75233  1.0000
  S   S231      1.0  0.71573  0.85568  0.75075  1.0000
  S   S232      1.0  0.78721  0.85531  0.73576  1.0000
  Fe  Fe116     1.0  0.72961  0.92352  0.77424  1.0000
  S   S233      1.0  0.69096  0.90798  0.77489  1.0000
  S   S234      1.0  0.74306  0.96122  0.79087  1.0000
  Fe  Fe117     1.0  0.70878  0.87354  0.79323  1.0000
  H   H698      1.0  0.80038  0.65296  0.65001  1.0000
  Fe  Fe118     1.0  0.70076  0.89105  0.73249  1.0000
  H   H699      1.0  0.79554  0.71486  0.59444  1.0000
  S   S235      1.0  0.74675  0.88994  0.79585  1.0000
  S   S236      1.0  0.73803  0.90892  0.73070  1.0000
  C   C694      1.0  0.99931  0.71082  0.75639  1.0000
  H   H700      1.0  0.72034  0.84196  0.62770  1.0000
  C   C695      1.0  0.72115  0.99610  0.75487  1.0000
  C   C696      1.0  0.73677  0.99172  0.77801  1.0000
  H   H701      1.0  0.82301  0.65838  0.69427  1.0000
  C   C697      1.0  0.69937  0.86312  0.65854  1.0000
  H   H702      1.0  0.96208  0.71759  0.85477  1.0000
  Fe  Fe119     1.0  0.83277  0.63275  0.55774  1.0000
  S   S237      1.0  0.85177  0.62429  0.59967  1.0000
  Fe  Fe120     1.0  0.83609  0.65286  0.98862  1.0000
  S   S238      1.0  0.86051  0.67576  0.96037  1.0000
  S   S239      1.0  0.79230  0.62416  0.55791  1.0000
  S   S240      1.0  0.80766  0.62710  0.97097  1.0000
  Fe  Fe121     1.0  0.92757  0.72367  0.78072  1.0000
  S   S241      1.0  0.91390  0.68682  0.76434  1.0000
  S   S242      1.0  0.96704  0.73283  0.79550  1.0000
  Fe  Fe122     1.0  0.87381  0.74530  0.78625  1.0000
  S   S243      1.0  0.85706  0.71007  0.77008  1.0000
  S   S244      1.0  0.84770  0.77420  0.80598  1.0000
  Fe  Fe123     1.0  0.88477  0.69075  0.79831  1.0000
  S   S245      1.0  0.87220  0.66029  0.82752  1.0000
  Fe  Fe124     1.0  0.88727  0.70975  0.73765  1.0000
  S   S246      1.0  0.87748  0.70847  0.69063  1.0000
  S   S247      1.0  0.89995  0.72583  0.81607  1.0000
  S   S248      1.0  0.90260  0.74664  0.75241  1.0000
  C   C698      1.0  0.72390  0.72466  0.54679  1.0000
  C   C699      1.0  0.68738  0.85124  0.86081  1.0000
  H   H703      1.0  0.82105  0.72468  0.67969  1.0000
  H   H704      1.0  0.80419  0.67129  0.88197  1.0000
  H   H705      1.0  0.98301  0.70569  0.74439  1.0000
  C   C700      1.0  0.86365  0.67085  0.92354  1.0000
  C   C701      1.0  0.87478  0.68923  0.90749  1.0000
  C   C702      1.0  0.87731  0.68634  0.87815  1.0000
  C   C703      1.0  0.86911  0.66479  0.86449  1.0000
  C   C704      1.0  0.85811  0.64631  0.88056  1.0000
  C   C705      1.0  0.85518  0.64940  0.90989  1.0000
  H   H706      1.0  0.88132  0.70592  0.91782  1.0000
  H   H707      1.0  0.88560  0.70083  0.86621  1.0000
  H   H708      1.0  0.85175  0.62953  0.87028  1.0000
  H   H709      1.0  0.84671  0.63501  0.92197  1.0000
  C   C706      1.0  0.87249  0.68433  0.66546  1.0000
  C   C707      1.0  0.86648  0.69092  0.63766  1.0000
  C   C708      1.0  0.86016  0.67278  0.61735  1.0000
  C   C709      1.0  0.86012  0.64769  0.62451  1.0000
  C   C710      1.0  0.86666  0.64099  0.65216  1.0000
  C   C711      1.0  0.87276  0.65920  0.67259  1.0000
  H   H710      1.0  0.86640  0.71028  0.63187  1.0000
  H   H711      1.0  0.85541  0.67822  0.59613  1.0000
  H   H712      1.0  0.86690  0.62161  0.65786  1.0000
  H   H713      1.0  0.87745  0.65384  0.69385  1.0000
  H   H714      1.0  0.68964  0.88773  0.57458  1.0000
  C   C712      1.0  0.82084  0.56133  0.58482  1.0000
  N   N59       1.0  0.80279  0.54404  0.58117  1.0000
  C   C713      1.0  0.68219  0.84659  0.61442  1.0000
  Fe  Fe125     1.0  0.81851  0.60199  0.00702  1.0000
  C   C714      1.0  0.80514  0.69874  0.92912  1.0000
  S   S249      1.0  0.82663  0.66906  0.53620  1.0000
  H   H715      1.0  0.81642  0.70783  0.94588  1.0000
  H   H716      1.0  0.69499  0.68481  0.98300  1.0000
  H   H717      1.0  0.79029  0.67006  0.60309  1.0000
  S   S250      1.0  0.76229  0.69095  0.55136  1.0000
  C   C715      1.0  0.83429  0.51051  0.00601  1.0000
  C   C716      1.0  0.99663  0.72424  0.78161  1.0000
  H   H718      1.0  0.92189  0.63379  0.81370  1.0000
  S   S251      1.0  0.83203  0.56146  0.00183  1.0000
  C   C717      1.0  0.80268  0.83161  0.75494  1.0000
  C   C718      1.0  0.79628  0.82642  0.78266  1.0000
  C   C719      1.0  0.81014  0.80865  0.79798  1.0000
  C   C720      1.0  0.83014  0.79557  0.78555  1.0000
  C   C721      1.0  0.83623  0.80042  0.75765  1.0000
  C   C722      1.0  0.82268  0.81854  0.74252  1.0000
  H   H719      1.0  0.78093  0.83639  0.79246  1.0000
  H   H720      1.0  0.80531  0.80502  0.81955  1.0000
  H   H721      1.0  0.85168  0.79057  0.74792  1.0000
  H   H722      1.0  0.82781  0.82251  0.72112  1.0000
  H   H723      1.0  0.71502  0.86540  0.67270  1.0000
  C   C723      1.0  0.68809  0.87485  0.87334  1.0000
  C   C724      1.0  0.67459  0.89084  0.55877  1.0000
  H   H724      1.0  0.69253  0.89074  0.86078  1.0000
  C   C725      1.0  0.80846  0.72279  0.63671  1.0000
  C   C726      1.0  0.70700  0.69774  0.99380  1.0000
  H   H725      1.0  0.71189  0.86041  0.54303  1.0000
  H   H726      1.0  0.96610  0.69405  0.88147  1.0000
  H   H727      1.0  0.71246  0.98062  0.74421  1.0000
  H   H728      1.0  0.77478  0.57084  0.57004  1.0000
  H   H729      1.0  0.83001  0.68865  0.70724  1.0000
  C   C727      1.0  0.80242  0.67267  0.64654  1.0000
  C   C728      1.0  0.81385  0.71269  0.66309  1.0000
  C   C729      1.0  0.79678  0.68217  0.61994  1.0000
  C   C730      1.0  0.67654  0.85761  0.91873  1.0000
  C   C731      1.0  0.77667  0.55201  0.57922  1.0000
  C   C732      1.0  0.73468  0.70270  0.53571  1.0000
  Fe  Fe126     1.0  0.78641  0.65938  0.53400  1.0000
  C   C733      1.0  0.95784  0.64439  0.79863  1.0000
  H   H730      1.0  0.73222  0.73359  0.56498  1.0000
  C   C734      1.0  0.97755  0.66051  0.80257  1.0000
  S   S252      1.0  0.69223  0.84650  0.82425  1.0000
  H   H731      1.0  0.79835  0.67831  0.70816  1.0000
  C   C735      1.0  0.84581  0.55400  0.58702  1.0000
  C   C736      1.0  0.67631  0.87372  0.66547  1.0000
  N   N60       1.0  0.80719  0.91218  0.78012  1.0000
  C   C737      1.0  0.82138  0.89089  0.77808  1.0000
  C   C738      1.0  0.79962  0.92099  0.80586  1.0000
  C   C739      1.0  0.82726  0.87709  0.80202  1.0000
  C   C740      1.0  0.80509  0.90763  0.83026  1.0000
  C   C741      1.0  0.81882  0.88542  0.82822  1.0000
  C   C742      1.0  0.80074  0.92593  0.75459  1.0000
  H   H732      1.0  0.82758  0.88400  0.75769  1.0000
  H   H733      1.0  0.78865  0.93807  0.80757  1.0000
  H   H734      1.0  0.83774  0.85971  0.80006  1.0000
  H   H735      1.0  0.79830  0.91426  0.85048  1.0000
  H   H736      1.0  0.82278  0.87457  0.84685  1.0000
  H   H737      1.0  0.78393  0.93798  0.75773  1.0000
  H   H738      1.0  0.81639  0.93774  0.74854  1.0000
  H   H739      1.0  0.79639  0.91286  0.73696  1.0000
  S   S253      1.0  0.74285  0.66056  0.98969  1.0000
  C   C743      1.0  0.70231  0.84979  0.63304  1.0000
  H   H740      1.0  0.83634  0.75536  0.86704  1.0000
  C   C744      1.0  0.81926  0.53204  0.00935  1.0000
  H   H741      1.0  0.67163  0.81808  0.91887  1.0000
  H   H742      1.0  0.86001  0.56792  0.58948  1.0000
  H   H743      1.0  0.81611  0.58098  0.58584  1.0000
  H   H744      1.0  0.78524  0.70376  0.93218  1.0000
  S   S254      1.0  0.68732  0.83053  0.58213  1.0000
  H   H745      1.0  0.69452  0.75238  0.54300  1.0000
  Fe  Fe127     1.0  0.78169  0.64663  0.00147  1.0000
  N   N61       1.0  0.81091  0.68789  0.66767  1.0000
  C   C745      1.0  0.79980  0.70738  0.61506  1.0000
  H   H746      1.0  0.80777  0.67840  0.93212  1.0000
  H   H747      1.0  0.99168  0.69095  0.82705  1.0000
  H   H748      1.0  0.83316  0.72587  0.82687  1.0000
  H   H749      1.0  0.81123  0.74237  0.63306  1.0000
  N   N62       1.0  0.95597  0.68046  0.84100  1.0000
  C   C746      1.0  0.93695  0.66422  0.83787  1.0000
  C   C747      1.0  0.97643  0.67829  0.82427  1.0000
  C   C748      1.0  0.93748  0.64606  0.81656  1.0000
  C   C749      1.0  0.73198  0.69097  0.99887  1.0000
  C   C750      1.0  0.68256  0.87800  0.90211  1.0000
  C   C751      1.0  0.95489  0.69986  0.86293  1.0000
  H   H750      1.0  0.92105  0.66544  0.85162  1.0000
  H   H751      1.0  0.68091  0.81246  0.86796  1.0000
  H   H752      1.0  0.95824  0.63077  0.78160  1.0000
  C   C752      1.0  0.80887  0.51924  0.58051  1.0000
  C   C753      1.0  0.69718  0.72072  0.00371  1.0000
  H   H753      1.0  0.76616  0.53949  0.56487  1.0000
  H   H754      1.0  0.67768  0.72521  0.00083  1.0000
  Fe  Fe128     1.0  0.79930  0.60534  0.51610  1.0000
  N   N63       1.0  0.81317  0.70608  0.90107  1.0000
  C   C754      1.0  0.81093  0.68988  0.87881  1.0000
  C   C755      1.0  0.82191  0.72945  0.89707  1.0000
  C   C756      1.0  0.81808  0.69672  0.85180  1.0000
  C   C757      1.0  0.82917  0.73692  0.87031  1.0000
  C   C758      1.0  0.82729  0.72038  0.84762  1.0000
  H   H755      1.0  0.81722  0.68351  0.83438  1.0000
  H   H756      1.0  0.82352  0.74237  0.91467  1.0000
  H   H757      1.0  0.76813  0.55215  0.60036  1.0000
  C   C759      1.0  0.81568  0.67779  0.69574  1.0000
  H   H758      1.0  0.93548  0.70384  0.86966  1.0000
  C   C760      1.0  0.70255  0.73537  0.53434  1.0000
  C   C761      1.0  0.83366  0.51122  0.58271  1.0000
  H   H759      1.0  0.68282  0.89641  0.91151  1.0000
  H   H760      1.0  0.85324  0.51224  0.99910  1.0000
  H   H761      1.0  0.67685  0.80971  0.78202  1.0000
  N   N64       1.0  0.68341  0.88601  0.53008  1.0000
  H   H762      1.0  0.68614  0.79346  0.73417  1.0000
  C   C762      1.0  0.70277  0.86964  0.52550  1.0000
  H   H763      1.0  0.79969  0.73081  0.51767  1.0000
  C   C763      1.0  0.85222  0.52876  0.58581  1.0000
  H   H764      1.0  0.87154  0.52281  0.58706  1.0000
  H   H765      1.0  0.68816  0.81523  0.68090  1.0000
  C   C764      1.0  0.68146  0.83081  0.87746  1.0000
  H   H766      1.0  0.99341  0.65964  0.78863  1.0000
  C   C765      1.0  0.67626  0.83391  0.90633  1.0000
  H   H767      1.0  0.79463  0.50550  0.57734  1.0000
  C   C766      1.0  0.83033  0.50965  0.51544  1.0000
  S   S255      1.0  0.67168  0.89041  0.69744  1.0000
  C   C767      1.0  0.67284  0.80870  0.73668  1.0000
  H   H768      1.0  0.85018  0.50700  0.51783  1.0000
  C   C768      1.0  0.74729  0.70794  0.01271  1.0000
  S   S256      1.0  0.84036  0.61193  0.51697  1.0000
