data_image0
_chemical_formula_structural       FeS2Fe2SFe2S3CSHSHFeS2H2FeS2FeS2HCSHC3HC4H4C6H4C6H4C6H4NHNHC2H2CHCHCHNC3HCHC2H3NH2SCHC3HC2HNCFeC6HSH5CH4C2HSFe2HS2HCSH2SH2SCSC6H4FeS2FeS2Fe2S3CSCS2HC7H4C6H4C4HC2H2NHCNC6H8FeH5CNC2HFeC2SHFeCHNH2C2H3CHNHC2HC2HSC3FeS2FeS2FeSFeS3CHC7H4C6H5C4NH2C6H5C3HCHNH2CHCSNC6H9SCHFeH3C2SHSH8CHS2FeS2FeS2FeSFeS3FeS2C6H4C6H4C6H4C5HCHC2HCHCSC2H3CHC3H2C2FeSHCHNHCHCNH2CH2NH8CH3NCHCH3CHCFeS2FeSFeSFeS3NHFeHSCHC6H4C6H4SCH2SFeHSHCFeH2C6H7CHCNC4H4C2H2CHSH5C3HSC3H2NC2HC2HSCHCHCHCHSCSFe2S2FeSFeSFeS3CSHS2FeS2HCFeS2NCS2C2FeH2C2HC5H2C6H4C5H3CHC6H4CH2C2SNHC2H2C3FeHC2HCNHCNH2CH2CH8FeCHCHCNHCH3C2HC2HCHC2H3C2H2FeHCHCH2FeS2FeS2FeSFeS3CHSFeSHC6H4C6H4C6H5C4H3C3H2C3SHCSH3CH3FeC2NH2NC5HSC2NHCH2CHCH2C2H2C2NH6SH3FeS2FeSFeSFeS3FeSFeCSH2C6H4C6H4S2NFeSCH2SH2CHC6H4NCHCHFeC3H3CHCHC2HCHCH2CSC2HCHCNH2SC3H4NHC3H5CH5SC2HC2H2C2FeS2FeSFeSFeS3FeSFeS2H4SCHC2FeS2CHSH2CH2C4H2FeC6H4C6H2CHC6H4CHCH2CNH4CH2NSCHCFe2HSHC2SHCHNC6H2CHSHCH4SCSFeSHFeS2FeSFeS3FeS2FeSC2SFeS2HSHC4FeC2H3FeC2H2C6H4C6H4C5SH4C2H2CHCH2NH3NCFeC2HCFeHC2HC2HCSCSHSHCH4SHSCNHSC2H3C6H5SFeS2FeS2FeSFeS2H2SC8H4C6H6SH4CH3CHCHCHC2H2CHC2H3SC4FeCSC2HN2C6HCH2CH2Fe2HSH2C3NH2NH5FeS2FeS2FeSFeS3FeS2FeS2C6H4C6H4C4H4C6H3C2HSC2NHC2HNC4HFeHCHCHNH4NCHC2HC2HCH2CH3C2H2CHCH7CH2NH
_chemical_formula_sum              "Fe96 S192 C576 H576 N48"
_cell_length_a       42.7059
_cell_length_b       42.3775
_cell_length_c       46.7009
_cell_angle_alpha    90.2906
_cell_angle_beta     89.9635
_cell_angle_gamma    89.9704

_space_group_name_H-M_alt    "P 1"
_space_group_IT_number       1

loop_
  _space_group_symop_operation_xyz
  'x, y, z'

loop_
  _atom_site_type_symbol
  _atom_site_label
  _atom_site_symmetry_multiplicity
  _atom_site_fract_x
  _atom_site_fract_y
  _atom_site_fract_z
  _atom_site_occupancy
  Fe  Fe1       1.0  0.29737  0.24792  0.09768  1.0000
  S   S1        1.0  0.30296  0.20585  0.06840  1.0000
  S   S2        1.0  0.27573  0.23209  0.14013  1.0000
  Fe  Fe2       1.0  0.32719  0.29198  0.05299  1.0000
  Fe  Fe3       1.0  0.13274  0.28091  0.32933  1.0000
  S   S3        1.0  0.33788  0.34129  0.03636  1.0000
  Fe  Fe4       1.0  0.28578  0.23753  0.03309  1.0000
  Fe  Fe5       1.0  0.35089  0.22450  0.05921  1.0000
  S   S4        1.0  0.39761  0.19848  0.05988  1.0000
  S   S5        1.0  0.27714  0.27839  0.06292  1.0000
  S   S6        1.0  0.34681  0.26505  0.09038  1.0000
  C   C1        1.0  0.12747  0.08419  0.32490  1.0000
  S   S7        1.0  0.46403  0.42093  0.04723  1.0000
  H   H1        1.0  0.21038  0.24331  0.05130  1.0000
  S   S8        1.0  0.01973  0.07405  0.30459  1.0000
  H   H2        1.0  0.40988  0.42629  0.00916  1.0000
  Fe  Fe6       1.0  0.45754  0.02671  0.09815  1.0000
  S   S9        1.0  0.47194  0.03701  0.14334  1.0000
  S   S10       1.0  0.41371  0.05044  0.08069  1.0000
  H   H3        1.0  0.18922  0.29436  0.06805  1.0000
  H   H4        1.0  0.27514  0.23198  0.31617  1.0000
  Fe  Fe7       1.0  0.17929  0.27442  0.27940  1.0000
  S   S11       1.0  0.19746  0.22843  0.29575  1.0000
  S   S12       1.0  0.19860  0.29980  0.24009  1.0000
  Fe  Fe8       1.0  0.14665  0.21599  0.30310  1.0000
  S   S13       1.0  0.13247  0.16876  0.28301  1.0000
  S   S14       1.0  0.12847  0.26141  0.28447  1.0000
  H   H5        1.0  0.01981  0.38105  0.29247  1.0000
  C   C2        1.0  0.31779  0.00814  0.12500  1.0000
  S   S15       1.0  0.05562  0.45168  0.33221  1.0000
  H   H6        1.0  0.20401  0.17322  0.08320  1.0000
  C   C3        1.0  0.09846  0.36640  0.32461  1.0000
  C   C4        1.0  0.20407  0.24610  0.07368  1.0000
  C   C5        1.0  0.04817  0.10317  0.29649  1.0000
  H   H7        1.0  0.25370  0.34047  0.25633  1.0000
  C   C6        1.0  0.07940  0.14855  0.31226  1.0000
  C   C7        1.0  0.09768  0.14647  0.28745  1.0000
  C   C8        1.0  0.09021  0.12349  0.26671  1.0000
  C   C9        1.0  0.06555  0.10201  0.27113  1.0000
  H   H8        1.0  0.17507  0.30151  0.11951  1.0000
  H   H9        1.0  0.07847  0.02382  0.30868  1.0000
  H   H10       1.0  0.10425  0.12170  0.24748  1.0000
  H   H11       1.0  0.06072  0.08395  0.25532  1.0000
  C   C10       1.0  0.25441  0.25185  0.16746  1.0000
  C   C11       1.0  0.24895  0.28439  0.16715  1.0000
  C   C12       1.0  0.23130  0.29867  0.18926  1.0000
  C   C13       1.0  0.21898  0.28060  0.21183  1.0000
  C   C14       1.0  0.22424  0.24805  0.21196  1.0000
  C   C15       1.0  0.24192  0.23382  0.18994  1.0000
  H   H12       1.0  0.25832  0.29853  0.14992  1.0000
  H   H13       1.0  0.22736  0.32389  0.18898  1.0000
  H   H14       1.0  0.21493  0.23386  0.22918  1.0000
  H   H15       1.0  0.24591  0.20860  0.19032  1.0000
  C   C16       1.0  0.42804  0.40020  0.04489  1.0000
  C   C17       1.0  0.42229  0.37520  0.06391  1.0000
  C   C18       1.0  0.39489  0.35678  0.06159  1.0000
  C   C19       1.0  0.37267  0.36366  0.04052  1.0000
  C   C20       1.0  0.39093  0.03691  0.16097  1.0000
  C   C21       1.0  0.08874  0.39776  0.32008  1.0000
  H   H16       1.0  0.43931  0.36981  0.08031  1.0000
  H   H17       1.0  0.39083  0.33748  0.07619  1.0000
  H   H18       1.0  0.18232  0.25700  0.15333  1.0000
  H   H19       1.0  0.27736  0.34505  0.28835  1.0000
  C   C22       1.0  0.40133  0.15749  0.06712  1.0000
  C   C23       1.0  0.37558  0.13710  0.06619  1.0000
  C   C24       1.0  0.37975  0.10445  0.07056  1.0000
  C   C25       1.0  0.40956  0.09188  0.07637  1.0000
  C   C26       1.0  0.43520  0.11235  0.07796  1.0000
  C   C27       1.0  0.43111  0.14493  0.07309  1.0000
  H   H20       1.0  0.35258  0.14637  0.06142  1.0000
  H   H21       1.0  0.35979  0.08884  0.06910  1.0000
  H   H22       1.0  0.45828  0.10302  0.08233  1.0000
  H   H23       1.0  0.45120  0.16044  0.07381  1.0000
  N   N1        1.0  0.44104  0.28522  0.04182  1.0000
  H   H24       1.0  0.35813  0.03472  0.11201  1.0000
  N   N2        1.0  0.36022  0.02240  0.15628  1.0000
  H   H25       1.0  0.25800  0.28754  0.31905  1.0000
  C   C28       1.0  0.18395  0.27903  0.11181  1.0000
  C   C29       1.0  0.02180  0.33867  0.31776  1.0000
  H   H26       1.0  0.40852  0.01830  0.16566  1.0000
  H   H27       1.0  0.30047  0.24595  0.22787  1.0000
  C   C30       1.0  0.45965  0.31078  0.03627  1.0000
  H   H28       1.0  0.28336  0.30145  0.23181  1.0000
  C   C31       1.0  0.18789  0.25403  0.13077  1.0000
  H   H29       1.0  0.09510  0.40951  0.30039  1.0000
  C   C32       1.0  0.22213  0.19197  0.08292  1.0000
  H   H30       1.0  0.03686  0.32607  0.30284  1.0000
  N   N3        1.0  0.11582  0.03990  0.28207  1.0000
  C   C33       1.0  0.10825  0.01783  0.25881  1.0000
  C   C34       1.0  0.37812  0.38910  0.02193  1.0000
  C   C35       1.0  0.05480  0.12691  0.31676  1.0000
  H   H31       1.0  0.16297  0.10222  0.29661  1.0000
  C   C36       1.0  0.45199  0.33172  0.01427  1.0000
  H   H32       1.0  0.24190  0.18513  0.09712  1.0000
  C   C37       1.0  0.34589  0.00718  0.17849  1.0000
  C   C38       1.0  0.13912  0.06172  0.27852  1.0000
  H   H33       1.0  0.46860  0.27193  0.07832  1.0000
  H   H34       1.0  0.15241  0.06254  0.25876  1.0000
  H   H35       1.0  0.23690  0.33206  0.29024  1.0000
  N   N4        1.0  0.26944  0.29762  0.27557  1.0000
  H   H36       1.0  0.08836  0.02715  0.24604  1.0000
  H   H37       1.0  0.20463  0.20662  0.13586  1.0000
  S   S16       1.0  0.18194  0.29788  0.32277  1.0000
  C   C39       1.0  0.20042  0.22552  0.12075  1.0000
  H   H38       1.0  0.29623  0.21067  0.27023  1.0000
  C   C40       1.0  0.25907  0.33053  0.27777  1.0000
  C   C41       1.0  0.28919  0.23521  0.27183  1.0000
  C   C42       1.0  0.41492  0.27960  0.02569  1.0000
  H   H39       1.0  0.23166  0.19356  0.06078  1.0000
  C   C43       1.0  0.28188  0.28641  0.25048  1.0000
  C   C44       1.0  0.09796  0.04003  0.30641  1.0000
  H   H40       1.0  0.42821  0.26018  0.07930  1.0000
  N   N5        1.0  0.20868  0.22200  0.09261  1.0000
  C   C45       1.0  0.27733  0.24711  0.29755  1.0000
  Fe  Fe9       1.0  0.47865  0.46264  0.01950  1.0000
  C   C46       1.0  0.19193  0.27505  0.08302  1.0000
  C   C47       1.0  0.14540  0.08407  0.29993  1.0000
  C   C48       1.0  0.26754  0.27858  0.29906  1.0000
  C   C49       1.0  0.29168  0.25499  0.24814  1.0000
  C   C50       1.0  0.40578  0.40711  0.02390  1.0000
  C   C51       1.0  0.34658  0.02304  0.12976  1.0000
  H   H41       1.0  0.04146  0.12800  0.33645  1.0000
  S   S17       1.0  0.33437  0.25260  0.02114  1.0000
  H   H42       1.0  0.39911  0.05024  0.14190  1.0000
  H   H43       1.0  0.11200  0.35411  0.30843  1.0000
  H   H44       1.0  0.08502  0.16598  0.32847  1.0000
  H   H45       1.0  0.12842  0.01397  0.24415  1.0000
  H   H46       1.0  0.45498  0.23983  0.05592  1.0000
  C   C52       1.0  0.44882  0.26336  0.06499  1.0000
  H   H47       1.0  0.38996  0.05373  0.17926  1.0000
  H   H48       1.0  0.35730  0.00566  0.19920  1.0000
  H   H49       1.0  0.48015  0.31562  0.04924  1.0000
  H   H50       1.0  0.40047  0.25915  0.03002  1.0000
  C   C53       1.0  0.10362  0.06202  0.32824  1.0000
  C   C54       1.0  0.01227  0.36948  0.31197  1.0000
  H   H51       1.0  0.30735  0.00822  0.10383  1.0000
  S   S18       1.0  0.01183  0.03992  0.22715  1.0000
  Fe  Fe10      1.0  0.00723  0.03354  0.27445  1.0000
  Fe  Fe11      1.0  0.19651  0.25051  0.33982  1.0000
  H   H52       1.0  0.46608  0.35267  0.01065  1.0000
  S   S19       1.0  0.25831  0.21616  0.49972  1.0000
  S   S20       1.0  0.47383  0.45398  0.47871  1.0000
  H   H53       1.0  0.40656  0.43818  0.45889  1.0000
  C   C55       1.0  0.41801  0.34777  0.48644  1.0000
  S   S21       1.0  0.24082  0.25080  0.36744  1.0000
  H   H54       1.0  0.33931  0.33873  0.49285  1.0000
  H   H55       1.0  0.42733  0.13967  0.61462  1.0000
  S   S22       1.0  0.02144  0.47719  0.40715  1.0000
  H   H56       1.0  0.04774  0.41013  0.38156  1.0000
  H   H57       1.0  0.48895  0.07015  0.53805  1.0000
  S   S23       1.0  0.46305  0.49777  0.53664  1.0000
  C   C56       1.0  0.38926  0.33259  0.48977  1.0000
  S   S24       1.0  0.14728  0.23420  0.34869  1.0000
  C   C57       1.0  0.24444  0.24276  0.40470  1.0000
  C   C58       1.0  0.22053  0.22823  0.42031  1.0000
  C   C59       1.0  0.22515  0.22060  0.44939  1.0000
  C   C60       1.0  0.25345  0.22787  0.46341  1.0000
  C   C61       1.0  0.27711  0.24306  0.44800  1.0000
  C   C62       1.0  0.27269  0.25019  0.41877  1.0000
  H   H58       1.0  0.19875  0.22223  0.40980  1.0000
  H   H59       1.0  0.20673  0.20871  0.46100  1.0000
  H   H60       1.0  0.29906  0.24861  0.45839  1.0000
  H   H61       1.0  0.29139  0.26132  0.40690  1.0000
  Fe  Fe12      1.0  0.29382  0.23312  0.60020  1.0000
  S   S25       1.0  0.30457  0.19458  0.56837  1.0000
  S   S26       1.0  0.26771  0.21414  0.63931  1.0000
  Fe  Fe13      1.0  0.33102  0.28168  0.56472  1.0000
  S   S27       1.0  0.34467  0.24616  0.53084  1.0000
  S   S28       1.0  0.34025  0.33456  0.56104  1.0000
  Fe  Fe14      1.0  0.29435  0.23013  0.53377  1.0000
  Fe  Fe15      1.0  0.35351  0.21344  0.56825  1.0000
  S   S29       1.0  0.39713  0.18425  0.57793  1.0000
  S   S30       1.0  0.28000  0.26728  0.56579  1.0000
  S   S31       1.0  0.34347  0.25047  0.60187  1.0000
  C   C63       1.0  0.24505  0.23276  0.66630  1.0000
  S   S32       1.0  0.47288  0.40191  0.54636  1.0000
  C   C64       1.0  0.07166  0.36682  0.37023  1.0000
  S   S33       1.0  0.46299  0.02553  0.63757  1.0000
  S   S34       1.0  0.42556  0.03866  0.56203  1.0000
  H   H62       1.0  0.40507  0.44268  0.49729  1.0000
  C   C65       1.0  0.39317  0.43191  0.47847  1.0000
  C   C66       1.0  0.43586  0.38397  0.55204  1.0000
  C   C67       1.0  0.40798  0.40127  0.55133  1.0000
  C   C68       1.0  0.37898  0.38588  0.55494  1.0000
  C   C69       1.0  0.37750  0.35304  0.55905  1.0000
  C   C70       1.0  0.40541  0.33581  0.56028  1.0000
  C   C71       1.0  0.43442  0.35126  0.55698  1.0000
  H   H63       1.0  0.40879  0.42653  0.54822  1.0000
  H   H64       1.0  0.35754  0.39945  0.55426  1.0000
  H   H65       1.0  0.40464  0.31057  0.56358  1.0000
  H   H66       1.0  0.45589  0.33773  0.55784  1.0000
  C   C72       1.0  0.39851  0.14248  0.57688  1.0000
  C   C73       1.0  0.38581  0.12544  0.55393  1.0000
  C   C74       1.0  0.39326  0.09325  0.55026  1.0000
  C   C75       1.0  0.41331  0.07784  0.56951  1.0000
  C   C76       1.0  0.42457  0.09444  0.59333  1.0000
  C   C77       1.0  0.41727  0.12662  0.59691  1.0000
  H   H67       1.0  0.37166  0.13745  0.53816  1.0000
  H   H68       1.0  0.38434  0.08059  0.53180  1.0000
  H   H69       1.0  0.44006  0.08297  0.60829  1.0000
  H   H70       1.0  0.43970  0.33458  0.48814  1.0000
  C   C78       1.0  0.36323  0.38284  0.48499  1.0000
  C   C79       1.0  0.46985  0.11661  0.53128  1.0000
  C   C80       1.0  0.15410  0.49955  0.41965  1.0000
  C   C81       1.0  0.23757  0.26486  0.66547  1.0000
  H   H71       1.0  0.36969  0.44299  0.47667  1.0000
  C   C82       1.0  0.41873  0.38046  0.48249  1.0000
  C   C83       1.0  0.01353  0.32477  0.34370  1.0000
  H   H72       1.0  0.38836  0.30746  0.49407  1.0000
  H   H73       1.0  0.45179  0.16418  0.53192  1.0000
  N   N6        1.0  0.12382  0.48897  0.41859  1.0000
  H   H74       1.0  0.34171  0.39639  0.48537  1.0000
  C   C84       1.0  0.06199  0.39819  0.36573  1.0000
  N   N7        1.0  0.20654  0.20997  0.58350  1.0000
  C   C85       1.0  0.20737  0.21539  0.55469  1.0000
  C   C86       1.0  0.19929  0.23388  0.60217  1.0000
  C   C87       1.0  0.20113  0.24546  0.54385  1.0000
  C   C88       1.0  0.19310  0.26430  0.59211  1.0000
  C   C89       1.0  0.19413  0.27008  0.56273  1.0000
  C   C90       1.0  0.21457  0.17851  0.59416  1.0000
  H   H75       1.0  0.21352  0.19653  0.53990  1.0000
  H   H76       1.0  0.19867  0.22964  0.62502  1.0000
  H   H77       1.0  0.20264  0.24970  0.52095  1.0000
  H   H78       1.0  0.18801  0.28329  0.60709  1.0000
  H   H79       1.0  0.18994  0.29364  0.55459  1.0000
  H   H80       1.0  0.23988  0.17388  0.59037  1.0000
  H   H81       1.0  0.21047  0.17645  0.61759  1.0000
  H   H82       1.0  0.20050  0.16016  0.58303  1.0000
  Fe  Fe16      1.0  0.45944  0.01292  0.59127  1.0000
  H   H83       1.0  0.08858  0.06279  0.34697  1.0000
  H   H84       1.0  0.02227  0.30141  0.34891  1.0000
  H   H85       1.0  0.17788  0.47795  0.35285  1.0000
  H   H86       1.0  0.07915  0.49985  0.43640  1.0000
  H   H87       1.0  0.44125  0.39220  0.48112  1.0000
  C   C91       1.0  0.11290  0.47368  0.39471  1.0000
  N   N8        1.0  0.39154  0.39754  0.48172  1.0000
  C   C92       1.0  0.36166  0.35017  0.48900  1.0000
  C   C93       1.0  0.16283  0.48076  0.37142  1.0000
  H   H88       1.0  0.06463  0.35471  0.38954  1.0000
  Fe  Fe17      1.0  0.48223  0.44977  0.52586  1.0000
  C   C94       1.0  0.13215  0.46947  0.37075  1.0000
  C   C95       1.0  0.46624  0.14686  0.54276  1.0000
  S   S35       1.0  0.09600  0.30958  0.35376  1.0000
  H   H89       1.0  0.45842  0.11030  0.51132  1.0000
  Fe  Fe18      1.0  0.02073  0.47927  0.35928  1.0000
  C   C96       1.0  0.47958  0.15404  0.56936  1.0000
  H   H90       1.0  0.47521  0.17715  0.57867  1.0000
  N   N9        1.0  0.37089  0.00850  0.64954  1.0000
  H   H91       1.0  0.39198  0.05191  0.66292  1.0000
  H   H92       1.0  0.24583  0.27921  0.64792  1.0000
  C   C97       1.0  0.08937  0.35055  0.34945  1.0000
  C   C98       1.0  0.48701  0.09408  0.54628  1.0000
  H   H93       1.0  0.08906  0.46491  0.39385  1.0000
  H   H94       1.0  0.13122  0.10231  0.34105  1.0000
  H   H95       1.0  0.10203  0.47122  0.45604  1.0000
  C   C99       1.0  0.10315  0.49329  0.44339  1.0000
  H   H96       1.0  0.39648  0.03029  0.61581  1.0000
  N   N10       1.0  0.49618  0.13170  0.58404  1.0000
  H   H97       1.0  0.49657  0.12383  0.62881  1.0000
  C   C100      1.0  0.38012  0.01191  0.62168  1.0000
  C   C101      1.0  0.38429  0.02889  0.67183  1.0000
  H   H98       1.0  0.12315  0.45773  0.35172  1.0000
  C   C102      1.0  0.17395  0.49588  0.39602  1.0000
  C   C103      1.0  0.06989  0.41351  0.34028  1.0000
  H   H99       1.0  0.27734  0.26992  0.91296  1.0000
  S   S36       1.0  0.48046  0.46192  0.97127  1.0000
  C   C104      1.0  0.30572  0.28349  0.69569  1.0000
  C   C105      1.0  0.23394  0.21439  0.68915  1.0000
  C   C106      1.0  0.29404  0.24246  0.72971  1.0000
  Fe  Fe19      1.0  0.12232  0.26288  0.82803  1.0000
  S   S37       1.0  0.14207  0.22190  0.85299  1.0000
  S   S38       1.0  0.08288  0.28987  0.85028  1.0000
  Fe  Fe20      1.0  0.17046  0.25488  0.77964  1.0000
  S   S39       1.0  0.19379  0.21415  0.80139  1.0000
  S   S40       1.0  0.18911  0.27910  0.73946  1.0000
  Fe  Fe21      1.0  0.14462  0.19698  0.81027  1.0000
  S   S41       1.0  0.13728  0.14390  0.80445  1.0000
  Fe  Fe22      1.0  0.18916  0.24210  0.84230  1.0000
  S   S42       1.0  0.23069  0.25307  0.87140  1.0000
  S   S43       1.0  0.12132  0.23635  0.78589  1.0000
  S   S44       1.0  0.16931  0.28442  0.81989  1.0000
  C   C107      1.0  0.08900  0.08825  0.72575  1.0000
  H   H100      1.0  0.27979  0.25464  0.79074  1.0000
  C   C108      1.0  0.06864  0.06328  0.71958  1.0000
  C   C109      1.0  0.05971  0.39494  0.83713  1.0000
  C   C110      1.0  0.08177  0.37980  0.81939  1.0000
  C   C111      1.0  0.08891  0.34758  0.82294  1.0000
  C   C112      1.0  0.07376  0.33009  0.84412  1.0000
  C   C113      1.0  0.05164  0.34520  0.86186  1.0000
  C   C114      1.0  0.04478  0.37753  0.85853  1.0000
  H   H101      1.0  0.09342  0.39309  0.80278  1.0000
  H   H102      1.0  0.10604  0.33628  0.80921  1.0000
  H   H103      1.0  0.03999  0.33186  0.87843  1.0000
  H   H104      1.0  0.02808  0.38903  0.87249  1.0000
  C   C115      1.0  0.04454  0.09231  0.78585  1.0000
  C   C116      1.0  0.04543  0.12547  0.78704  1.0000
  C   C117      1.0  0.07345  0.14161  0.79332  1.0000
  C   C118      1.0  0.10088  0.12470  0.79877  1.0000
  C   C119      1.0  0.09993  0.09149  0.79801  1.0000
  C   C120      1.0  0.07192  0.07532  0.79154  1.0000
  H   H105      1.0  0.02431  0.13880  0.78287  1.0000
  H   H106      1.0  0.07383  0.16714  0.79382  1.0000
  H   H107      1.0  0.12102  0.07820  0.80235  1.0000
  H   H108      1.0  0.07150  0.04980  0.79095  1.0000
  H   H109      1.0  0.25448  0.22815  0.77089  1.0000
  C   C121      1.0  0.11233  0.02729  0.72170  1.0000
  C   C122      1.0  0.20917  0.26027  0.71089  1.0000
  C   C123      1.0  0.21620  0.22807  0.71142  1.0000
  C   C124      1.0  0.21962  0.27850  0.68765  1.0000
  N   N11       1.0  0.12022  0.08277  0.73010  1.0000
  H   H110      1.0  0.04373  0.06769  0.71726  1.0000
  H   H111      1.0  0.20817  0.21378  0.72910  1.0000
  C   C125      1.0  0.23422  0.24392  0.90840  1.0000
  C   C126      1.0  0.21209  0.22546  0.92274  1.0000
  C   C127      1.0  0.21590  0.21877  0.95211  1.0000
  C   C128      1.0  0.24183  0.23037  0.96748  1.0000
  C   C129      1.0  0.26383  0.24901  0.95318  1.0000
  C   C130      1.0  0.26003  0.25568  0.92381  1.0000
  H   H112      1.0  0.19231  0.21588  0.91115  1.0000
  H   H113      1.0  0.19883  0.20418  0.96290  1.0000
  H   H114      1.0  0.28389  0.25811  0.96469  1.0000
  H   H115      1.0  0.36687  0.03393  0.68893  1.0000
  H   H116      1.0  0.12859  0.13114  0.74163  1.0000
  C   C131      1.0  0.30827  0.25210  0.70419  1.0000
  C   C132      1.0  0.08046  0.03264  0.71745  1.0000
  C   C133      1.0  0.40624  0.30035  0.00388  1.0000
  H   H117      1.0  0.29576  0.21792  0.73596  1.0000
  C   C134      1.0  0.27485  0.29433  0.73797  1.0000
  H   H118      1.0  0.15671  0.04844  0.73171  1.0000
  N   N12       1.0  0.27729  0.26343  0.74603  1.0000
  H   H119      1.0  0.12792  0.27547  0.90056  1.0000
  H   H120      1.0  0.24184  0.26740  0.77823  1.0000
  C   C135      1.0  0.26279  0.25291  0.77281  1.0000
  H   H121      1.0  0.21421  0.30344  0.68709  1.0000
  C   C136      1.0  0.14152  0.10901  0.73643  1.0000
  S   S45       1.0  0.05194  0.43559  0.83191  1.0000
  N   N13       1.0  0.15467  0.31718  0.89326  1.0000
  C   C137      1.0  0.18318  0.32747  0.88372  1.0000
  C   C138      1.0  0.12928  0.33685  0.89288  1.0000
  C   C139      1.0  0.18641  0.35767  0.87210  1.0000
  C   C140      1.0  0.13172  0.36728  0.88161  1.0000
  C   C141      1.0  0.16039  0.37757  0.87086  1.0000
  C   C142      1.0  0.15157  0.28536  0.90506  1.0000
  H   H122      1.0  0.20349  0.31211  0.88463  1.0000
  H   H123      1.0  0.10670  0.32870  0.90051  1.0000
  H   H124      1.0  0.20888  0.36538  0.86389  1.0000
  H   H125      1.0  0.11127  0.38247  0.88053  1.0000
  H   H126      1.0  0.16230  0.40088  0.86149  1.0000
  H   H127      1.0  0.16870  0.26897  0.89502  1.0000
  H   H128      1.0  0.15578  0.28580  0.92850  1.0000
  H   H129      1.0  0.32038  0.23514  0.69062  1.0000
  H   H130      1.0  0.38468  0.29661  0.99204  1.0000
  S   S46       1.0  0.24568  0.22101  0.00441  1.0000
  C   C143      1.0  0.42492  0.32658  0.99820  1.0000
  H   H131      1.0  0.07938  0.11184  0.72811  1.0000
  Fe  Fe23      1.0  0.01972  0.46691  0.85854  1.0000
  H   H132      1.0  0.26109  0.31080  0.75065  1.0000
  H   H133      1.0  0.41787  0.34346  0.98203  1.0000
  H   H134      1.0  0.40492  0.01704  0.68156  1.0000
  C   C144      1.0  0.13200  0.05279  0.72811  1.0000
  C   C145      1.0  0.28902  0.30483  0.71270  1.0000
  S   S47       1.0  0.01764  0.46739  0.90664  1.0000
  H   H135      1.0  0.23940  0.18947  0.68983  1.0000
  S   S48       1.0  0.00879  0.07358  0.77660  1.0000
  H   H136      1.0  0.15708  0.11354  0.71788  1.0000
  H   H137      1.0  0.15595  0.10357  0.75562  1.0000
  H   H138      1.0  0.31607  0.29105  0.67560  1.0000
  H   H139      1.0  0.28636  0.32916  0.70599  1.0000
  H   H140      1.0  0.06498  0.01300  0.71272  1.0000
  H   H141      1.0  0.36098  0.39467  0.00567  1.0000
  H   H142      1.0  0.12163  0.00348  0.72019  1.0000
  H   H143      1.0  0.46076  0.90033  0.09091  1.0000
  C   C146      1.0  0.39533  0.87158  0.12274  1.0000
  H   H144      1.0  0.48181  0.61884  0.05991  1.0000
  S   S49       1.0  0.02992  0.98558  0.27431  1.0000
  S   S50       1.0  0.07476  0.98032  0.20004  1.0000
  Fe  Fe24      1.0  0.26579  0.81436  0.22660  1.0000
  S   S51       1.0  0.22307  0.79661  0.20391  1.0000
  S   S52       1.0  0.28860  0.78748  0.26346  1.0000
  Fe  Fe25      1.0  0.27571  0.86769  0.18272  1.0000
  S   S53       1.0  0.23250  0.85383  0.15757  1.0000
  S   S54       1.0  0.30428  0.90731  0.16227  1.0000
  Fe  Fe26      1.0  0.20971  0.84818  0.20092  1.0000
  S   S55       1.0  0.16009  0.85938  0.21633  1.0000
  Fe  Fe27      1.0  0.24931  0.80380  0.16255  1.0000
  S   S56       1.0  0.26042  0.76562  0.12901  1.0000
  S   S57       1.0  0.25161  0.86563  0.22576  1.0000
  S   S58       1.0  0.29340  0.81810  0.18559  1.0000
  Fe  Fe28      1.0  0.46964  0.98425  0.14922  1.0000
  S   S59       1.0  0.44278  0.95847  0.18426  1.0000
  S   S60       1.0  0.45328  0.97441  0.10483  1.0000
  C   C147      1.0  0.34358  0.91880  0.16860  1.0000
  C   C148      1.0  0.35888  0.91350  0.19464  1.0000
  C   C149      1.0  0.38923  0.92581  0.19927  1.0000
  C   C150      1.0  0.40454  0.94338  0.17793  1.0000
  C   C151      1.0  0.38917  0.94835  0.15192  1.0000
  C   C152      1.0  0.35904  0.93605  0.14727  1.0000
  H   H145      1.0  0.34710  0.90056  0.21142  1.0000
  H   H146      1.0  0.40079  0.92186  0.21956  1.0000
  H   H147      1.0  0.40004  0.96224  0.13547  1.0000
  H   H148      1.0  0.34737  0.94046  0.12712  1.0000
  C   C153      1.0  0.10127  0.94932  0.20759  1.0000
  C   C154      1.0  0.12689  0.94419  0.18921  1.0000
  C   C155      1.0  0.14664  0.91783  0.19278  1.0000
  C   C156      1.0  0.14085  0.89637  0.21481  1.0000
  C   C157      1.0  0.11621  0.90247  0.23406  1.0000
  C   C158      1.0  0.09645  0.92877  0.23048  1.0000
  H   H149      1.0  0.13085  0.96006  0.17149  1.0000
  H   H150      1.0  0.16541  0.91333  0.17773  1.0000
  H   H151      1.0  0.11172  0.88611  0.25130  1.0000
  H   H152      1.0  0.07689  0.93247  0.24485  1.0000
  C   C159      1.0  0.21737  0.73352  0.04289  1.0000
  C   C160      1.0  0.24734  0.72382  0.05109  1.0000
  C   C161      1.0  0.26011  0.73415  0.07737  1.0000
  C   C162      1.0  0.24340  0.75472  0.09558  1.0000
  C   C163      1.0  0.21368  0.76497  0.08711  1.0000
  C   C164      1.0  0.20068  0.75421  0.06101  1.0000
  H   H153      1.0  0.26051  0.70799  0.03739  1.0000
  H   H154      1.0  0.28308  0.72599  0.08371  1.0000
  H   H155      1.0  0.20045  0.78063  0.10092  1.0000
  H   H156      1.0  0.17746  0.76186  0.05491  1.0000
  C   C165      1.0  0.48927  0.89677  0.14196  1.0000
  C   C166      1.0  0.23770  0.77801  0.29994  1.0000
  C   C167      1.0  0.26939  0.77227  0.29433  1.0000
  C   C168      1.0  0.28638  0.75314  0.31339  1.0000
  C   C169      1.0  0.41478  0.88329  0.10124  1.0000
  H   H157      1.0  0.22428  0.79262  0.28550  1.0000
  C   C170      1.0  0.42666  0.63471  0.01842  1.0000
  H   H158      1.0  0.31334  0.70924  0.19747  1.0000
  C   C171      1.0  0.31703  0.99217  0.17450  1.0000
  C   C172      1.0  0.45899  0.60769  0.05445  1.0000
  H   H159      1.0  0.24430  0.80237  0.03582  1.0000
  C   C173      1.0  0.21060  0.70896  0.23696  1.0000
  H   H160      1.0  0.48998  0.91219  0.16130  1.0000
  C   C174      1.0  0.44577  0.89129  0.10778  1.0000
  S   S61       1.0  0.46069  0.51267  0.02290  1.0000
  C   C175      1.0  0.40705  0.86797  0.15040  1.0000
  C   C176      1.0  0.06545  0.85418  0.21215  1.0000
  H   H161      1.0  0.28688  0.71998  0.25434  1.0000
  H   H162      1.0  0.31066  0.74855  0.21283  1.0000
  H   H163      1.0  0.31089  0.74848  0.30930  1.0000
  C   C177      1.0  0.23740  0.71126  0.25390  1.0000
  H   H164      1.0  0.08697  0.84131  0.20781  1.0000
  C   C178      1.0  0.02865  0.89382  0.19963  1.0000
  C   C179      1.0  0.29848  0.73062  0.19935  1.0000
  C   C180      1.0  0.07296  0.88375  0.16755  1.0000
  H   H165      1.0  0.23587  0.70898  0.27702  1.0000
  H   H166      1.0  0.29563  0.74124  0.17777  1.0000
  C   C181      1.0  0.21303  0.71253  0.20733  1.0000
  C   C182      1.0  0.04888  0.84780  0.23735  1.0000
  Fe  Fe29      1.0  0.03128  0.99059  0.22667  1.0000
  S   S62       1.0  0.20023  0.72123  0.00992  1.0000
  H   H167      1.0  0.05733  0.83014  0.25219  1.0000
  C   C183      1.0  0.43798  0.87670  0.15631  1.0000
  H   H168      1.0  0.41277  0.64524  0.03540  1.0000
  N   N14       1.0  0.26818  0.72248  0.21208  1.0000
  H   H169      1.0  0.24382  0.72236  0.17216  1.0000
  C   C184      1.0  0.02160  0.86470  0.24343  1.0000
  H   H170      1.0  0.06206  0.87106  0.14927  1.0000
  C   C185      1.0  0.24224  0.71912  0.19515  1.0000
  N   N15       1.0  0.05551  0.87733  0.19393  1.0000
  H   H171      1.0  0.07322  0.90951  0.16302  1.0000
  H   H172      1.0  0.09785  0.87625  0.16944  1.0000
  C   C186      1.0  0.26623  0.71765  0.24096  1.0000
  H   H173      1.0  0.18800  0.70469  0.24680  1.0000
  H   H174      1.0  0.10165  0.99430  0.26734  1.0000
  N   N16       1.0  0.45683  0.88831  0.13514  1.0000
  H   H175      1.0  0.36099  0.58820  0.01408  1.0000
  H   H176      1.0  0.19237  0.71092  0.19389  1.0000
  H   H177      1.0  0.44096  0.61631  0.06975  1.0000
  H   H178      1.0  0.19909  0.77045  0.32902  1.0000
  H   H179      1.0  0.44659  0.87494  0.17810  1.0000
  H   H180      1.0  0.39189  0.85953  0.16739  1.0000
  H   H181      1.0  0.40587  0.88649  0.07971  1.0000
  H   H182      1.0  0.27209  0.54307  0.01271  1.0000
  C   C187      1.0  0.01121  0.88759  0.22432  1.0000
  H   H183      1.0  0.37101  0.86593  0.11823  1.0000
  H   H184      1.0  0.30629  0.97897  0.19180  1.0000
  H   H185      1.0  0.29937  0.80043  0.01877  1.0000
  N   N17       1.0  0.45081  0.61461  0.02464  1.0000
  C   C188      1.0  0.22345  0.76532  0.32464  1.0000
  H   H186      1.0  0.46134  0.58177  0.05753  1.0000
  C   C189      1.0  0.27204  0.74018  0.33792  1.0000
  H   H187      1.0  0.28131  0.97977  0.14397  1.0000
  H   H188      1.0  0.00851  0.86036  0.26298  1.0000
  H   H189      1.0  0.02077  0.91224  0.18525  1.0000
  C   C190      1.0  0.30304  0.99250  0.14753  1.0000
  H   H190      1.0  0.48702  0.58518  0.00813  1.0000
  C   C191      1.0  0.24939  0.79778  0.01339  1.0000
  Fe  Fe30      1.0  0.22175  0.63165  0.42871  1.0000
  S   S63       1.0  0.25466  0.64785  0.39406  1.0000
  S   S64       1.0  0.19128  0.59091  0.41266  1.0000
  Fe  Fe31      1.0  0.24789  0.68048  0.47230  1.0000
  S   S65       1.0  0.28052  0.70065  0.43922  1.0000
  Fe  Fe32      1.0  0.24089  0.69667  0.40770  1.0000
  S   S66       1.0  0.22150  0.73172  0.37504  1.0000
  Fe  Fe33      1.0  0.29143  0.64993  0.42854  1.0000
  S   S67       1.0  0.34330  0.63777  0.42555  1.0000
  S   S68       1.0  0.20664  0.68059  0.44172  1.0000
  S   S69       1.0  0.25997  0.62969  0.46204  1.0000
  N   N18       1.0  0.34307  0.63611  0.50732  1.0000
  H   H191      1.0  0.06209  0.62428  0.39048  1.0000
  Fe  Fe34      1.0  0.01827  0.53014  0.40509  1.0000
  H   H192      1.0  0.09577  0.90859  0.66086  1.0000
  S   S70       1.0  0.04683  0.56316  0.43338  1.0000
  C   C192      1.0  0.27879  0.78903  0.53842  1.0000
  H   H193      1.0  0.29528  0.63209  0.52010  1.0000
  C   C193      1.0  0.36026  0.60259  0.43885  1.0000
  C   C194      1.0  0.34190  0.57766  0.44885  1.0000
  C   C195      1.0  0.35628  0.55026  0.45967  1.0000
  C   C196      1.0  0.38909  0.54774  0.46117  1.0000
  C   C197      1.0  0.40748  0.57276  0.45136  1.0000
  C   C198      1.0  0.39309  0.59993  0.44002  1.0000
  H   H194      1.0  0.31665  0.57936  0.44799  1.0000
  H   H195      1.0  0.34186  0.53102  0.46717  1.0000
  H   H196      1.0  0.43274  0.57106  0.45226  1.0000
  H   H197      1.0  0.40747  0.61906  0.43219  1.0000
  C   C199      1.0  0.15052  0.58612  0.41757  1.0000
  C   C200      1.0  0.13396  0.56689  0.39820  1.0000
  C   C201      1.0  0.10201  0.56026  0.40241  1.0000
  C   C202      1.0  0.08642  0.57252  0.42631  1.0000
  C   C203      1.0  0.10274  0.59241  0.44531  1.0000
  C   C204      1.0  0.13463  0.59939  0.44086  1.0000
  H   H198      1.0  0.14599  0.55692  0.37987  1.0000
  H   H199      1.0  0.08960  0.54523  0.38744  1.0000
  H   H200      1.0  0.09078  0.60205  0.46384  1.0000
  H   H201      1.0  0.14714  0.61417  0.45597  1.0000
  S   S71       1.0  0.26033  0.69487  0.51844  1.0000
  C   C205      1.0  0.14715  0.68899  0.39065  1.0000
  H   H202      1.0  0.35696  0.67360  0.47951  1.0000
  H   H203      1.0  0.28554  0.72579  0.35248  1.0000
  S   S72       1.0  0.19818  0.78198  0.61542  1.0000
  Fe  Fe35      1.0  0.46366  0.97301  0.64495  1.0000
  H   H204      1.0  0.28037  0.71277  0.57470  1.0000
  S   S73       1.0  0.45713  0.96053  0.59861  1.0000
  H   H205      1.0  0.15861  0.71023  0.39851  1.0000
  C   C206      1.0  0.39792  0.91153  0.64433  1.0000
  Fe  Fe36      1.0  0.22091  0.80112  0.65636  1.0000
  H   H206      1.0  0.41562  0.91584  0.62828  1.0000
  H   H207      1.0  0.37219  0.87886  0.61779  1.0000
  C   C207      1.0  0.24172  0.71811  0.54541  1.0000
  C   C208      1.0  0.21228  0.73194  0.54155  1.0000
  C   C209      1.0  0.19903  0.75082  0.56345  1.0000
  C   C210      1.0  0.21518  0.75649  0.58926  1.0000
  C   C211      1.0  0.24463  0.74268  0.59309  1.0000
  C   C212      1.0  0.25766  0.72343  0.57139  1.0000
  H   H208      1.0  0.19965  0.72797  0.52178  1.0000
  H   H209      1.0  0.17615  0.76121  0.56031  1.0000
  H   H210      1.0  0.25728  0.74668  0.61283  1.0000
  H   H211      1.0  0.37656  0.99430  0.57835  1.0000
  H   H212      1.0  0.35414  0.55217  0.53770  1.0000
  H   H213      1.0  0.28176  0.77365  0.51992  1.0000
  H   H214      1.0  0.06795  0.64854  0.42132  1.0000
  C   C213      1.0  0.34992  0.88445  0.65896  1.0000
  H   H215      1.0  0.10406  0.69779  0.41303  1.0000
  C   C214      1.0  0.37321  0.89050  0.63845  1.0000
  N   N19       1.0  0.24618  0.82369  0.56639  1.0000
  C   C215      1.0  0.26937  0.82659  0.58645  1.0000
  C   C216      1.0  0.29770  0.81041  0.58316  1.0000
  C   C217      1.0  0.30232  0.79139  0.55903  1.0000
  C   C218      1.0  0.21661  0.84086  0.56997  1.0000
  H   H216      1.0  0.26599  0.84113  0.60536  1.0000
  H   H217      1.0  0.31572  0.81245  0.59945  1.0000
  H   H218      1.0  0.32390  0.77819  0.55646  1.0000
  H   H219      1.0  0.21687  0.86279  0.55710  1.0000
  C   C219      1.0  0.11637  0.68186  0.39868  1.0000
  C   C220      1.0  0.31815  0.62085  0.51938  1.0000
  H   H220      1.0  0.19653  0.82579  0.56332  1.0000
  H   H221      1.0  0.21228  0.84693  0.59283  1.0000
  C   C221      1.0  0.32169  0.59046  0.53054  1.0000
  H   H222      1.0  0.19757  0.50539  0.39664  1.0000
  S   S74       1.0  0.02050  0.53245  0.35722  1.0000
  H   H223      1.0  0.11123  0.51296  0.45742  1.0000
  H   H224      1.0  0.31594  0.66943  0.48437  1.0000
  H   H225      1.0  0.39933  0.58085  0.51707  1.0000
  H   H226      1.0  0.23226  0.80296  0.52665  1.0000
  H   H227      1.0  0.30170  0.57814  0.53944  1.0000
  C   C222      1.0  0.25075  0.80556  0.54241  1.0000
  C   C223      1.0  0.33872  0.66784  0.49568  1.0000
  C   C224      1.0  0.33838  0.96456  0.63614  1.0000
  H   H228      1.0  0.10619  0.61406  0.36228  1.0000
  S   S75       1.0  0.31974  0.85736  0.65010  1.0000
  C   C225      1.0  0.16341  0.66829  0.37272  1.0000
  C   C226      1.0  0.35107  0.57602  0.52978  1.0000
  C   C227      1.0  0.35049  0.98504  0.65696  1.0000
  H   H229      1.0  0.33892  0.68560  0.51321  1.0000
  H   H230      1.0  0.16129  0.62467  0.34900  1.0000
  N   N20       1.0  0.10205  0.65509  0.38870  1.0000
  C   C228      1.0  0.37209  0.62239  0.50703  1.0000
  C   C229      1.0  0.36880  0.99163  0.60036  1.0000
  H   H231      1.0  0.32256  0.94568  0.64218  1.0000
  C   C230      1.0  0.06981  0.64817  0.39757  1.0000
  C   C231      1.0  0.37653  0.59218  0.51827  1.0000
  H   H232      1.0  0.39178  0.63433  0.49720  1.0000
  S   S76       1.0  0.22972  0.85352  0.65822  1.0000
  C   C232      1.0  0.14856  0.64122  0.36246  1.0000
  H   H233      1.0  0.18756  0.67315  0.36695  1.0000
  C   C233      1.0  0.34784  0.96777  0.60770  1.0000
  H   H234      1.0  0.33927  0.95156  0.59147  1.0000
  C   C234      1.0  0.11752  0.63519  0.37035  1.0000
  H   H235      1.0  0.05344  0.66582  0.38843  1.0000
  C   C235      1.0  0.24053  0.74648  0.34387  1.0000
  H   H236      1.0  0.16276  0.51201  0.43841  1.0000
  S   S77       1.0  0.40564  0.51322  0.47622  1.0000
  C   C236      1.0  0.39986  0.92659  0.67097  1.0000
  S   S78       1.0  0.26878  0.78830  0.67177  1.0000
  Fe  Fe37      1.0  0.45626  0.50295  0.48903  1.0000
  Fe  Fe38      1.0  0.21669  0.63918  0.93011  1.0000
  S   S79       1.0  0.26489  0.64757  0.91147  1.0000
  S   S80       1.0  0.18989  0.59903  0.90850  1.0000
  Fe  Fe39      1.0  0.22463  0.69202  0.97517  1.0000
  S   S81       1.0  0.27263  0.70388  0.95932  1.0000
  Fe  Fe40      1.0  0.25248  0.69930  0.91468  1.0000
  S   S82       1.0  0.25873  0.74139  0.88449  1.0000
  Fe  Fe41      1.0  0.28064  0.65131  0.95742  1.0000
  S   S83       1.0  0.32094  0.62889  0.98224  1.0000
  S   S84       1.0  0.20364  0.69055  0.93078  1.0000
  S   S85       1.0  0.23325  0.63967  0.97582  1.0000
  C   C237      1.0  0.08700  0.86580  0.76046  1.0000
  S   S86       1.0  0.43090  0.53616  0.94430  1.0000
  H   H237      1.0  0.34404  0.98158  0.67919  1.0000
  S   S87       1.0  0.02205  0.97649  0.76813  1.0000
  S   S88       1.0  0.05219  0.94818  0.69094  1.0000
  Fe  Fe42      1.0  0.24886  0.79108  0.71664  1.0000
  S   S89       1.0  0.19982  0.79989  0.70080  1.0000
  S   S90       1.0  0.26127  0.75117  0.74764  1.0000
  H   H238      1.0  0.26658  0.77851  0.93412  1.0000
  C   C238      1.0  0.43628  0.62755  0.96787  1.0000
  Fe  Fe43      1.0  0.21285  0.85130  0.70379  1.0000
  S   S91       1.0  0.18269  0.88731  0.72788  1.0000
  S   S92       1.0  0.26150  0.84239  0.72163  1.0000
  N   N21       1.0  0.27407  0.55468  0.96836  1.0000
  C   C239      1.0  0.37704  0.83614  0.72085  1.0000
  S   S93       1.0  0.02764  0.51941  0.85527  1.0000
  S   S94       1.0  0.04944  0.55436  0.93119  1.0000
  C   C240      1.0  0.33540  0.78599  0.72216  1.0000
  C   C241      1.0  0.36177  0.82772  0.74621  1.0000
  Fe  Fe44      1.0  0.02211  0.52024  0.90287  1.0000
  H   H239      1.0  0.33389  0.89512  0.70163  1.0000
  H   H240      1.0  0.37802  0.93181  0.71237  1.0000
  C   C242      1.0  0.08863  0.93190  0.70151  1.0000
  C   C243      1.0  0.26154  0.78402  0.95636  1.0000
  H   H241      1.0  0.01230  0.84944  0.70260  1.0000
  C   C244      1.0  0.14672  0.90437  0.71689  1.0000
  C   C245      1.0  0.13031  0.92391  0.73621  1.0000
  C   C246      1.0  0.10124  0.93733  0.72871  1.0000
  C   C247      1.0  0.03849  0.59819  0.83988  1.0000
  C   C248      1.0  0.07159  0.87798  0.78445  1.0000
  H   H242      1.0  0.13997  0.92833  0.75726  1.0000
  H   H243      1.0  0.08869  0.95189  0.74396  1.0000
  C   C249      1.0  0.25651  0.74290  0.84635  1.0000
  C   C250      1.0  0.25113  0.77215  0.83300  1.0000
  C   C251      1.0  0.25100  0.77488  0.80286  1.0000
  C   C252      1.0  0.25717  0.74848  0.78561  1.0000
  C   C253      1.0  0.26243  0.71922  0.79896  1.0000
  C   C254      1.0  0.26175  0.71633  0.82908  1.0000
  H   H244      1.0  0.24705  0.79289  0.84608  1.0000
  H   H245      1.0  0.24670  0.79752  0.79303  1.0000
  H   H246      1.0  0.26728  0.69862  0.78590  1.0000
  H   H247      1.0  0.26612  0.69370  0.83893  1.0000
  C   C255      1.0  0.35006  0.60191  0.97081  1.0000
  C   C256      1.0  0.35769  0.59762  0.94194  1.0000
  C   C257      1.0  0.38216  0.57693  0.93413  1.0000
  C   C258      1.0  0.39916  0.56039  0.95505  1.0000
  C   C259      1.0  0.39111  0.56429  0.98387  1.0000
  H   H248      1.0  0.07135  0.59115  0.80525  1.0000
  H   H249      1.0  0.34507  0.61055  0.92569  1.0000
  H   H250      1.0  0.38826  0.57405  0.91176  1.0000
  C   C260      1.0  0.46094  0.60724  0.97444  1.0000
  H   H251      1.0  0.05606  0.62620  0.90538  1.0000
  C   C261      1.0  0.15109  0.58645  0.91578  1.0000
  C   C262      1.0  0.13778  0.56269  0.89853  1.0000
  C   C263      1.0  0.10684  0.55230  0.90317  1.0000
  C   C264      1.0  0.08898  0.56544  0.92534  1.0000
  C   C265      1.0  0.10236  0.58906  0.94271  1.0000
  C   C266      1.0  0.13322  0.59963  0.93792  1.0000
  H   H252      1.0  0.15140  0.55235  0.88133  1.0000
  H   H253      1.0  0.09681  0.53419  0.88958  1.0000
  H   H254      1.0  0.08872  0.59938  0.95991  1.0000
  H   H255      1.0  0.14316  0.61791  0.95138  1.0000
  C   C267      1.0  0.08905  0.62092  0.87098  1.0000
  H   H256      1.0  0.34449  0.78118  0.67684  1.0000
  H   H257      1.0  0.18900  0.75999  0.95692  1.0000
  C   C268      1.0  0.07113  0.86405  0.73430  1.0000
  C   C269      1.0  0.02532  0.88557  0.75567  1.0000
  S   S95       1.0  0.43025  0.95386  0.67896  1.0000
  N   N22       1.0  0.23134  0.78426  0.96616  1.0000
  H   H258      1.0  0.00515  0.59973  0.90400  1.0000
  C   C270      1.0  0.04048  0.88775  0.78214  1.0000
  C   C271      1.0  0.26460  0.56201  0.99784  1.0000
  H   H259      1.0  0.19249  0.79892  0.94126  1.0000
  H   H260      1.0  0.14643  0.88397  0.67462  1.0000
  C   C272      1.0  0.29357  0.54350  0.91239  1.0000
  C   C273      1.0  0.30258  0.54097  0.96334  1.0000
  C   C274      1.0  0.22505  0.79174  0.99410  1.0000
  Fe  Fe45      1.0  0.01577  0.96987  0.72080  1.0000
  H   H261      1.0  0.01878  0.58929  0.82753  1.0000
  C   C275      1.0  0.05918  0.61911  0.88319  1.0000
  C   C276      1.0  0.37106  0.81910  0.69582  1.0000
  H   H262      1.0  0.10874  0.62938  0.88355  1.0000
  C   C277      1.0  0.10527  0.91281  0.68202  1.0000
  N   N23       1.0  0.04089  0.87447  0.73206  1.0000
  H   H263      1.0  0.31882  0.76659  0.72236  1.0000
  C   C278      1.0  0.32503  0.79468  0.77317  1.0000
  N   N24       1.0  0.03452  0.60741  0.86778  1.0000
  H   H264      1.0  0.11682  0.61117  0.83349  1.0000
  H   H265      1.0  0.42988  0.63160  0.94570  1.0000
  C   C279      1.0  0.46800  0.60113  0.00312  1.0000
  H   H266      1.0  0.40392  0.55165  0.00016  1.0000
  H   H267      1.0  0.38207  0.82593  0.67582  1.0000
  C   C280      1.0  0.37672  0.92030  0.69167  1.0000
  H   H268      1.0  0.39287  0.85618  0.72039  1.0000
  H   H269      1.0  0.33549  0.52443  0.93148  1.0000
  H   H270      1.0  0.02810  0.89710  0.80066  1.0000
  H   H271      1.0  0.20111  0.79162  0.00193  1.0000
  H   H272      1.0  0.31040  0.78873  0.96733  1.0000
  H   H273      1.0  0.08349  0.85513  0.71564  1.0000
  H   H274      1.0  0.11135  0.85850  0.76184  1.0000
  H   H275      1.0  0.30146  0.80579  0.77305  1.0000
  Fe  Fe46      1.0  0.46544  0.51300  0.97496  1.0000
  C   C281      1.0  0.25517  0.56305  0.94600  1.0000
  H   H276      1.0  0.39911  0.65645  0.98503  1.0000
  C   C282      1.0  0.09357  0.61060  0.84288  1.0000
  H   H277      1.0  0.30133  0.53950  0.89055  1.0000
  C   C283      1.0  0.26460  0.55761  0.91772  1.0000
  N   N25       1.0  0.34162  0.80262  0.74670  1.0000
  H   H278      1.0  0.31801  0.53519  0.98100  1.0000
  C   C284      1.0  0.35000  0.79398  0.69638  1.0000
  H   H279      1.0  0.24955  0.56465  0.90011  1.0000
  H   H280      1.0  0.33793  0.80270  0.79251  1.0000
  H   H281      1.0  0.36599  0.84153  0.76544  1.0000
  C   C285      1.0  0.20536  0.77701  0.94670  1.0000
  C   C286      1.0  0.13401  0.89884  0.68973  1.0000
  H   H282      1.0  0.21368  0.76578  0.92649  1.0000
  C   C287      1.0  0.36675  0.58501  0.99168  1.0000
  C   C288      1.0  0.35167  0.89957  0.68563  1.0000
  H   H283      1.0  0.23266  0.57414  0.94987  1.0000
  C   C289      1.0  0.06813  0.59930  0.82711  1.0000
  H   H284      1.0  0.08375  0.87992  0.80477  1.0000
  C   C290      1.0  0.00340  0.60598  0.88093  1.0000
  C   C291      1.0  0.31265  0.53492  0.93532  1.0000
  H   H285      1.0  0.32188  0.76869  0.77505  1.0000
  H   H286      1.0  0.47381  0.59545  0.95740  1.0000
  H   H287      1.0  0.00106  0.89301  0.75416  1.0000
  C   C292      1.0  0.28648  0.78989  0.97506  1.0000
  C   C293      1.0  0.02461  0.87240  0.70448  1.0000
  H   H288      1.0  0.04131  0.87510  0.68636  1.0000
  H   H289      1.0  0.00737  0.89190  0.70223  1.0000
  Fe  Fe47      1.0  0.27716  0.84059  0.67550  1.0000
  H   H290      1.0  0.23874  0.56436  0.99974  1.0000
  C   C294      1.0  0.41902  0.64146  0.98995  1.0000
  H   H291      1.0  0.27547  0.58465  0.00472  1.0000
  C   C295      1.0  0.28030  0.79653  0.00382  1.0000
  H   H292      1.0  0.73297  0.19774  0.28812  1.0000
  H   H293      1.0  0.63806  0.21847  0.22415  1.0000
  Fe  Fe48      1.0  0.73363  0.20605  0.21726  1.0000
  S   S96       1.0  0.77503  0.20787  0.18752  1.0000
  S   S97       1.0  0.72329  0.24812  0.24642  1.0000
  Fe  Fe49      1.0  0.71380  0.14029  0.19550  1.0000
  S   S98       1.0  0.75478  0.13662  0.16528  1.0000
  S   S99       1.0  0.67858  0.10123  0.20505  1.0000
  Fe  Fe50      1.0  0.78348  0.15753  0.20138  1.0000
  S   S100      1.0  0.82994  0.14565  0.22311  1.0000
  Fe  Fe51      1.0  0.74308  0.18725  0.15381  1.0000
  S   S101      1.0  0.73151  0.20220  0.10780  1.0000
  S   S102      1.0  0.74328  0.15719  0.23253  1.0000
  S   S103      1.0  0.70071  0.18951  0.18274  1.0000
  C   C296      1.0  0.66075  0.18176  0.28503  1.0000
  H   H294      1.0  0.63651  0.16175  0.18797  1.0000
  S   S104      1.0  0.92734  0.03698  0.19445  1.0000
  Fe  Fe52      1.0  0.52138  0.02905  0.12769  1.0000
  S   S105      1.0  0.56028  0.06593  0.12813  1.0000
  H   H295      1.0  0.59637  0.02902  0.08723  1.0000
  C   C297      1.0  0.64703  0.08999  0.18251  1.0000
  C   C298      1.0  0.62602  0.06659  0.19180  1.0000
  C   C299      1.0  0.59956  0.05839  0.17527  1.0000
  C   C300      1.0  0.59377  0.07382  0.14941  1.0000
  C   C301      1.0  0.61499  0.09694  0.14002  1.0000
  C   C302      1.0  0.64159  0.10485  0.15634  1.0000
  H   H296      1.0  0.63008  0.05491  0.21201  1.0000
  H   H297      1.0  0.58341  0.04060  0.18278  1.0000
  H   H298      1.0  0.61076  0.10894  0.11998  1.0000
  H   H299      1.0  0.65767  0.12273  0.14881  1.0000
  C   C303      1.0  0.85256  0.11127  0.21651  1.0000
  C   C304      1.0  0.85272  0.09634  0.18974  1.0000
  C   C305      1.0  0.87476  0.07240  0.18380  1.0000
  C   C306      1.0  0.89673  0.06308  0.20454  1.0000
  C   C307      1.0  0.89552  0.07690  0.23177  1.0000
  C   C308      1.0  0.87359  0.10095  0.23766  1.0000
  H   H300      1.0  0.83670  0.10405  0.17325  1.0000
  H   H301      1.0  0.87541  0.06171  0.16271  1.0000
  H   H302      1.0  0.91216  0.06984  0.24798  1.0000
  H   H303      1.0  0.87352  0.11220  0.25850  1.0000
  C   C309      1.0  0.77671  0.26213  0.03657  1.0000
  C   C310      1.0  0.74921  0.24507  0.03164  1.0000
  C   C311      1.0  0.73653  0.22595  0.05338  1.0000
  C   C312      1.0  0.75080  0.22398  0.08049  1.0000
  C   C313      1.0  0.77852  0.24077  0.08535  1.0000
  C   C314      1.0  0.79146  0.25959  0.06343  1.0000
  H   H304      1.0  0.69277  0.26625  0.09794  1.0000
  H   H305      1.0  0.71516  0.21296  0.04933  1.0000
  H   H306      1.0  0.78982  0.23944  0.10604  1.0000
  H   H307      1.0  0.81287  0.27250  0.06743  1.0000
  H   H308      1.0  0.81300  0.19334  0.32350  1.0000
  C   C315      1.0  0.72271  0.27634  0.29957  1.0000
  C   C316      1.0  0.72570  0.24779  0.28434  1.0000
  C   C317      1.0  0.73074  0.21990  0.29952  1.0000
  C   C318      1.0  0.73304  0.22066  0.32961  1.0000
  H   H309      1.0  0.60091  0.18157  0.19895  1.0000
  H   H310      1.0  0.71860  0.29804  0.28804  1.0000
  H   H311      1.0  0.63194  0.12107  0.24546  1.0000
  C   C319      1.0  0.65524  0.20619  0.26578  1.0000
  C   C320      1.0  0.64135  0.19946  0.23933  1.0000
  C   C321      1.0  0.63799  0.14516  0.25122  1.0000
  H   H312      1.0  0.76157  0.34656  0.03202  1.0000
  H   H313      1.0  0.60532  0.13998  0.20446  1.0000
  C   C322      1.0  0.92587  0.14912  0.21695  1.0000
  C   C323      1.0  0.60593  0.00834  0.09895  1.0000
  C   C324      1.0  0.80161  0.26223  0.28973  1.0000
  S   S106      1.0  0.95817  0.01352  0.27281  1.0000
  H   H314      1.0  0.90913  0.12902  0.16622  1.0000
  C   C325      1.0  0.97451  0.11501  0.24103  1.0000
  S   S107      1.0  0.52913  0.47758  0.02432  1.0000
  H   H315      1.0  0.66224  0.23015  0.27106  1.0000
  H   H316      1.0  0.82815  0.20909  0.25783  1.0000
  H   H317      1.0  0.78690  0.21694  0.25297  1.0000
  C   C326      1.0  0.99456  0.38602  0.33233  1.0000
  H   H318      1.0  0.70986  0.33593  0.01478  1.0000
  H   H319      1.0  0.93757  0.09838  0.16363  1.0000
  H   H320      1.0  0.65724  0.13162  0.29209  1.0000
  Fe  Fe53      1.0  0.96403  0.01783  0.22517  1.0000
  C   C327      1.0  0.61802  0.16290  0.20466  1.0000
  C   C328      1.0  0.65234  0.15097  0.27765  1.0000
  N   N26       1.0  0.63236  0.16934  0.23260  1.0000
  H   H321      1.0  0.90625  0.16198  0.20793  1.0000
  H   H322      1.0  0.98846  0.41044  0.32816  1.0000
  N   N27       1.0  0.72722  0.32044  0.05523  1.0000
  C   C329      1.0  0.70614  0.32085  0.03318  1.0000
  C   C330      1.0  0.72216  0.30175  0.07860  1.0000
  C   C331      1.0  0.67963  0.30149  0.03378  1.0000
  C   C332      1.0  0.67463  0.28187  0.05726  1.0000
  C   C333      1.0  0.72554  0.27719  0.32966  1.0000
  H   H323      1.0  0.79721  0.27159  0.26851  1.0000
  S   S108      1.0  0.50676  0.02112  0.08170  1.0000
  C   C334      1.0  0.96630  0.11095  0.21223  1.0000
  C   C335      1.0  0.69587  0.28213  0.07994  1.0000
  N   N28       1.0  0.94205  0.12768  0.20065  1.0000
  H   H324      1.0  0.65458  0.26618  0.05775  1.0000
  C   C336      1.0  0.95777  0.13628  0.25796  1.0000
  H   H325      1.0  0.96368  0.13902  0.28046  1.0000
  H   H326      1.0  0.91971  0.16973  0.25896  1.0000
  C   C337      1.0  0.93331  0.15354  0.24590  1.0000
  H   H327      1.0  0.73768  0.24658  0.01109  1.0000
  C   C338      1.0  0.80165  0.28287  0.31323  1.0000
  H   H328      1.0  0.73904  0.30107  0.09594  1.0000
  H   H329      1.0  0.79899  0.18466  0.27462  1.0000
  C   C339      1.0  0.80497  0.20930  0.26860  1.0000
  C   C340      1.0  0.93418  0.12343  0.17031  1.0000
  H   H330      1.0  0.77538  0.32909  0.06408  1.0000
  H   H331      1.0  0.74989  0.36336  0.06615  1.0000
  C   C341      1.0  0.75476  0.34105  0.05444  1.0000
  C   C342      1.0  0.81020  0.21853  0.32040  1.0000
  N   N29       1.0  0.80547  0.23046  0.29355  1.0000
  H   H332      1.0  0.67190  0.18668  0.30546  1.0000
  H   H333      1.0  0.99347  0.10149  0.25039  1.0000
  H   H334      1.0  0.94917  0.13879  0.15690  1.0000
  H   H335      1.0  0.97890  0.09379  0.19931  1.0000
  H   H336      1.0  0.79728  0.30787  0.31030  1.0000
  H   H337      1.0  0.59251  0.49572  0.05691  1.0000
  S   S109      1.0  0.79272  0.28787  0.01035  1.0000
  H   H338      1.0  0.62834  0.01614  0.10880  1.0000
  H   H339      1.0  0.66329  0.30162  0.01598  1.0000
  H   H340      1.0  0.82444  0.49620  0.33684  1.0000
  Fe  Fe54      1.0  0.77581  0.35359  0.42319  1.0000
  S   S110      1.0  0.72847  0.34249  0.40364  1.0000
  S   S111      1.0  0.80661  0.38777  0.39785  1.0000
  Fe  Fe55      1.0  0.76574  0.30679  0.47287  1.0000
  S   S112      1.0  0.71894  0.29199  0.45606  1.0000
  Fe  Fe56      1.0  0.74129  0.29190  0.41221  1.0000
  S   S113      1.0  0.73671  0.24911  0.38244  1.0000
  Fe  Fe57      1.0  0.71002  0.34386  0.44900  1.0000
  S   S114      1.0  0.66624  0.36212  0.47200  1.0000
  S   S115      1.0  0.78929  0.30282  0.42966  1.0000
  S   S116      1.0  0.75628  0.35881  0.46775  1.0000
  Fe  Fe58      1.0  0.52193  0.47515  0.47643  1.0000
  S   S117      1.0  0.55901  0.46212  0.44327  1.0000
  Fe  Fe59      1.0  0.96877  0.47715  0.40375  1.0000
  C   C343      1.0  0.63852  0.46822  0.50454  1.0000
  S   S118      1.0  0.94040  0.44352  0.43126  1.0000
  H   H341      1.0  0.73714  0.19900  0.34120  1.0000
  H   H342      1.0  0.81210  0.22888  0.36582  1.0000
  C   C344      1.0  0.63611  0.38897  0.46242  1.0000
  C   C345      1.0  0.63619  0.40563  0.43662  1.0000
  C   C346      1.0  0.61197  0.42735  0.43064  1.0000
  C   C347      1.0  0.58763  0.43274  0.45042  1.0000
  C   C348      1.0  0.58751  0.41586  0.47607  1.0000
  C   C349      1.0  0.61159  0.39416  0.48200  1.0000
  H   H343      1.0  0.65485  0.40180  0.42132  1.0000
  H   H344      1.0  0.61223  0.44019  0.41068  1.0000
  H   H345      1.0  0.56890  0.41952  0.49141  1.0000
  H   H346      1.0  0.61119  0.38131  0.50195  1.0000
  C   C350      1.0  0.84470  0.40094  0.40714  1.0000
  C   C351      1.0  0.86240  0.41734  0.38661  1.0000
  C   C352      1.0  0.89168  0.43057  0.39366  1.0000
  C   C353      1.0  0.90384  0.42700  0.42125  1.0000
  C   C354      1.0  0.88654  0.40992  0.44157  1.0000
  C   C355      1.0  0.85705  0.39703  0.43461  1.0000
  H   H347      1.0  0.85312  0.42029  0.36524  1.0000
  H   H348      1.0  0.90465  0.44371  0.37780  1.0000
  H   H349      1.0  0.89582  0.40689  0.46294  1.0000
  H   H350      1.0  0.84371  0.38442  0.45061  1.0000
  S   S119      1.0  0.78608  0.29157  0.51604  1.0000
  S   S120      1.0  0.53169  0.46804  0.52294  1.0000
  N   N30       1.0  0.98626  0.37209  0.35760  1.0000
  Fe  Fe60      1.0  0.73655  0.17683  0.64927  1.0000
  S   S121      1.0  0.72980  0.18904  0.60192  1.0000
  C   C356      1.0  0.84471  0.49049  0.40703  1.0000
  H   H351      1.0  0.80076  0.27624  0.57435  1.0000
  H   H352      1.0  0.68157  0.04218  0.64376  1.0000
  S   S122      1.0  0.96827  0.47575  0.35583  1.0000
  H   H353      1.0  0.63041  0.46140  0.54967  1.0000
  H   H354      1.0  0.66403  0.30110  0.50406  1.0000
  C   C357      1.0  0.80175  0.13734  0.60620  1.0000
  H   H355      1.0  0.67371  0.01203  0.66938  1.0000
  C   C358      1.0  0.77090  0.26221  0.53931  1.0000
  C   C359      1.0  0.74728  0.24139  0.53073  1.0000
  C   C360      1.0  0.73544  0.21890  0.55010  1.0000
  C   C361      1.0  0.74656  0.21732  0.57843  1.0000
  C   C362      1.0  0.77009  0.23825  0.58710  1.0000
  C   C363      1.0  0.78241  0.26030  0.56752  1.0000
  H   H356      1.0  0.73824  0.24248  0.50912  1.0000
  H   H357      1.0  0.71729  0.20280  0.54312  1.0000
  H   H358      1.0  0.77873  0.23756  0.60884  1.0000
  H   H359      1.0  0.72357  0.29363  0.59450  1.0000
  N   N31       1.0  0.85731  0.12894  0.63632  1.0000
  C   C364      1.0  0.67706  0.01644  0.64613  1.0000
  H   H360      1.0  0.70761  0.33764  0.51409  1.0000
  C   C365      1.0  0.84360  0.15812  0.63541  1.0000
  H   H361      1.0  0.80481  0.08759  0.59689  1.0000
  Fe  Fe61      1.0  0.51520  0.02227  0.63151  1.0000
  C   C366      1.0  0.74373  0.33990  0.56061  1.0000
  C   C367      1.0  0.88763  0.12512  0.65063  1.0000
  C   C368      1.0  0.66914  0.27617  0.54405  1.0000
  H   H362      1.0  0.80969  0.46715  0.38115  1.0000
  H   H363      1.0  0.68053  0.25604  0.58513  1.0000
  H   H364      1.0  0.65041  0.25959  0.53958  1.0000
  C   C369      1.0  0.59788  0.09972  0.65001  1.0000
  H   H365      1.0  0.90554  0.49979  0.43569  1.0000
  C   C370      1.0  0.81564  0.16275  0.62037  1.0000
  H   H366      1.0  0.80459  0.18580  0.61982  1.0000
  C   C371      1.0  0.84374  0.10381  0.62263  1.0000
  C   C372      1.0  0.81571  0.10759  0.60748  1.0000
  H   H367      1.0  0.65441  0.44833  0.50241  1.0000
  C   C373      1.0  0.50013  0.10210  0.57278  1.0000
  H   H368      1.0  0.77991  0.14071  0.59465  1.0000
  C   C374      1.0  0.62497  0.47545  0.53098  1.0000
  H   H369      1.0  0.85445  0.08060  0.62358  1.0000
  H   H370      1.0  0.99036  0.33135  0.38406  1.0000
  C   C375      1.0  0.96905  0.39041  0.37918  1.0000
  S   S123      1.0  0.74831  0.12607  0.65908  1.0000
  C   C376      1.0  0.63072  0.02786  0.61663  1.0000
  C   C377      1.0  0.68585  0.27434  0.56966  1.0000
  H   H371      1.0  0.73490  0.36026  0.57326  1.0000
  C   C378      1.0  0.67687  0.29926  0.52407  1.0000
  H   H372      1.0  0.76303  0.32807  0.57239  1.0000
  C   C379      1.0  0.71031  0.29559  0.57479  1.0000
  N   N32       1.0  0.71819  0.31769  0.55477  1.0000
  H   H373      1.0  0.63617  0.05284  0.61782  1.0000
  H   H374      1.0  0.75430  0.34860  0.54034  1.0000
  S   S124      1.0  0.54420  0.06698  0.63764  1.0000
  C   C380      1.0  0.70158  0.31996  0.52984  1.0000
  C   C381      1.0  0.60396  0.50058  0.53314  1.0000
  C   C382      1.0  0.82821  0.48475  0.38165  1.0000
  H   H375      1.0  0.80426  0.28635  0.35929  1.0000
  H   H376      1.0  0.98552  0.40536  0.39171  1.0000
  H   H377      1.0  0.95611  0.37499  0.39433  1.0000
  H   H378      1.0  0.85411  0.17793  0.64662  1.0000
  N   N33       1.0  0.64929  0.00619  0.63010  1.0000
  H   H379      1.0  0.53411  0.13302  0.61343  1.0000
  C   C383      1.0  0.58059  0.07211  0.65527  1.0000
  C   C384      1.0  0.63056  0.48611  0.48052  1.0000
  C   C385      1.0  0.62739  0.10451  0.66277  1.0000
  H   H380      1.0  0.58860  0.11744  0.63576  1.0000
  H   H381      1.0  0.83881  0.47694  0.42596  1.0000
  H   H382      1.0  0.58862  0.03562  0.59199  1.0000
  H   H383      1.0  0.64071  0.47993  0.45996  1.0000
  H   H384      1.0  0.50561  0.16381  0.61872  1.0000
  C   C386      1.0  0.73094  0.24934  0.34482  1.0000
  H   H385      1.0  0.95135  0.40592  0.36898  1.0000
  H   H386      1.0  0.69819  0.00361  0.63855  1.0000
  H   H387      1.0  0.90684  0.13274  0.63624  1.0000
  H   H388      1.0  0.51269  0.08425  0.58474  1.0000
  H   H389      1.0  0.89178  0.10015  0.65691  1.0000
  S   S125      1.0  0.51128  0.01186  0.58450  1.0000
  C   C387      1.0  0.81010  0.23848  0.34439  1.0000
  C   C388      1.0  0.60380  0.01828  0.60190  1.0000
  H   H390      1.0  0.64061  0.12569  0.65827  1.0000
  C   C389      1.0  0.99577  0.34197  0.36357  1.0000
  C   C390      1.0  0.50869  0.13862  0.61261  1.0000
  H   H391      1.0  0.88844  0.13930  0.67074  1.0000
  H   H392      1.0  0.72371  0.29939  0.34110  1.0000
  C   C391      1.0  0.83667  0.50079  0.35679  1.0000
  C   C392      1.0  0.80569  0.27083  0.34074  1.0000
  Fe  Fe62      1.0  0.77387  0.34890  0.91890  1.0000
  S   S126      1.0  0.72625  0.33559  0.90111  1.0000
  S   S127      1.0  0.80347  0.38213  0.89180  1.0000
  Fe  Fe63      1.0  0.76852  0.30253  0.96889  1.0000
  S   S128      1.0  0.72180  0.28541  0.95398  1.0000
  Fe  Fe64      1.0  0.74170  0.28580  0.90921  1.0000
  S   S129      1.0  0.73216  0.24341  0.87997  1.0000
  Fe  Fe65      1.0  0.71016  0.33663  0.94709  1.0000
  S   S130      1.0  0.66327  0.34863  0.96789  1.0000
  S   S131      1.0  0.78994  0.29879  0.92475  1.0000
  S   S132      1.0  0.75631  0.35402  0.96423  1.0000
  Fe  Fe66      1.0  0.70913  0.12904  0.69124  1.0000
  S   S133      1.0  0.57325  0.46733  0.94997  1.0000
  Fe  Fe67      1.0  0.73058  0.19390  0.71356  1.0000
  S   S134      1.0  0.77036  0.19580  0.68183  1.0000
  S   S135      1.0  0.72691  0.23698  0.74319  1.0000
  H   H393      1.0  0.63137  0.03702  0.70151  1.0000
  H   H394      1.0  0.65125  0.28258  0.93553  1.0000
  H   H395      1.0  0.57116  0.41402  0.98961  1.0000
  H   H396      1.0  0.60684  0.36828  0.99601  1.0000
  S   S136      1.0  0.74103  0.14441  0.72743  1.0000
  C   C393      1.0  0.91022  0.34747  0.94406  1.0000
  H   H397      1.0  0.63055  0.33154  0.91789  1.0000
  C   C394      1.0  0.59285  0.04946  0.67384  1.0000
  C   C395      1.0  0.83547  0.07209  0.69033  1.0000
  Fe  Fe68      1.0  0.96573  0.47482  0.90016  1.0000
  S   S137      1.0  0.96752  0.47124  0.85218  1.0000
  S   S138      1.0  0.93062  0.44939  0.92858  1.0000
  C   C396      1.0  0.66459  0.31152  0.84348  1.0000
  H   H398      1.0  0.81027  0.11564  0.79831  1.0000
  S   S139      1.0  0.69551  0.17874  0.67979  1.0000
  H   H399      1.0  0.79903  0.25282  0.80931  1.0000
  H   H400      1.0  0.83790  0.12858  0.77150  1.0000
  C   C397      1.0  0.84775  0.09749  0.70590  1.0000
  H   H401      1.0  0.95278  0.37407  0.93984  1.0000
  H   H402      1.0  0.79900  0.23673  0.75803  1.0000
  C   C398      1.0  0.88213  0.04063  0.70105  1.0000
  C   C399      1.0  0.89400  0.06583  0.71714  1.0000
  C   C400      1.0  0.87696  0.09417  0.71939  1.0000
  C   C401      1.0  0.90581  0.35357  0.88513  1.0000
  H   H403      1.0  0.81137  0.15606  0.83323  1.0000
  H   H404      1.0  0.91661  0.06366  0.72743  1.0000
  Fe  Fe69      1.0  0.77894  0.14526  0.69410  1.0000
  C   C402      1.0  0.73092  0.24219  0.84192  1.0000
  C   C403      1.0  0.73374  0.26943  0.82533  1.0000
  C   C404      1.0  0.73189  0.26742  0.79520  1.0000
  C   C405      1.0  0.72779  0.23816  0.78126  1.0000
  C   C406      1.0  0.72512  0.21091  0.79787  1.0000
  C   C407      1.0  0.72641  0.21300  0.82802  1.0000
  H   H405      1.0  0.73730  0.29205  0.83568  1.0000
  H   H406      1.0  0.73407  0.28863  0.78254  1.0000
  H   H407      1.0  0.72182  0.18827  0.78750  1.0000
  H   H408      1.0  0.72401  0.19179  0.84065  1.0000
  C   C408      1.0  0.63919  0.38237  0.96297  1.0000
  C   C409      1.0  0.64572  0.40515  0.94224  1.0000
  C   C410      1.0  0.62528  0.43099  0.93853  1.0000
  C   C411      1.0  0.59825  0.43442  0.95555  1.0000
  C   C412      1.0  0.59189  0.41175  0.97641  1.0000
  C   C413      1.0  0.61219  0.38581  0.97998  1.0000
  H   H409      1.0  0.66641  0.40284  0.92902  1.0000
  H   H410      1.0  0.63040  0.44841  0.92233  1.0000
  C   C414      1.0  0.88220  0.33772  0.90009  1.0000
  H   H411      1.0  0.86174  0.32876  0.88890  1.0000
  C   C415      1.0  0.83776  0.40233  0.90272  1.0000
  C   C416      1.0  0.85650  0.41696  0.88185  1.0000
  C   C417      1.0  0.88479  0.43191  0.88940  1.0000
  C   C418      1.0  0.89437  0.43272  0.91803  1.0000
  C   C419      1.0  0.87526  0.41878  0.93896  1.0000
  C   C420      1.0  0.84715  0.40351  0.93137  1.0000
  H   H412      1.0  0.84932  0.41617  0.85964  1.0000
  H   H413      1.0  0.89933  0.44237  0.87304  1.0000
  H   H414      1.0  0.88246  0.41938  0.96118  1.0000
  H   H415      1.0  0.83286  0.39251  0.94764  1.0000
  C   C421      1.0  0.65043  0.27187  0.91373  1.0000
  H   H416      1.0  0.80582  0.18062  0.74504  1.0000
  C   C422      1.0  0.93329  0.36340  0.92846  1.0000
  H   H417      1.0  0.90363  0.35622  0.86214  1.0000
  H   H418      1.0  0.80437  0.21211  0.84706  1.0000
  C   C423      1.0  0.66306  0.28868  0.86495  1.0000
  N   N34       1.0  0.93073  0.36649  0.89939  1.0000
  H   H419      1.0  0.62857  0.25794  0.91147  1.0000
  H   H420      1.0  0.67121  0.26494  0.86030  1.0000
  H   H421      1.0  0.94506  0.39673  0.86546  1.0000
  H   H422      1.0  0.67089  0.25564  0.91199  1.0000
  C   C424      1.0  0.64177  0.34931  0.87623  1.0000
  H   H423      1.0  0.86596  0.32304  0.94164  1.0000
  H   H424      1.0  0.79695  0.12497  0.76304  1.0000
  N   N35       1.0  0.65176  0.29618  0.89155  1.0000
  S   S140      1.0  0.90394  0.00550  0.69599  1.0000
  C   C425      1.0  0.88448  0.33467  0.92974  1.0000
  H   H425      1.0  0.65545  0.36013  0.83291  1.0000
  C   C426      1.0  0.65411  0.34210  0.84928  1.0000
  Fe  Fe70      1.0  0.99819  0.02346  0.76147  1.0000
  Fe  Fe71      1.0  0.52989  0.47976  0.97643  1.0000
  H   H426      1.0  0.88680  0.11376  0.73129  1.0000
  S   S141      1.0  0.67752  0.08596  0.69656  1.0000
  H   H427      1.0  0.67403  0.30550  0.82255  1.0000
  C   C427      1.0  0.64046  0.32581  0.89712  1.0000
  C   C428      1.0  0.95530  0.38279  0.88324  1.0000
  S   S142      1.0  0.82931  0.13489  0.70655  1.0000
  H   H428      1.0  0.91191  0.34576  0.96718  1.0000
  C   C429      1.0  0.81381  0.13195  0.78006  1.0000
  H   H429      1.0  0.63336  0.37295  0.88103  1.0000
  N   N36       1.0  0.80914  0.16506  0.78831  1.0000
  C   C430      1.0  0.80600  0.18739  0.76745  1.0000
  C   C431      1.0  0.80900  0.17368  0.81662  1.0000
  C   C432      1.0  0.80257  0.21926  0.77466  1.0000
  C   C433      1.0  0.80547  0.20537  0.82461  1.0000
  C   C434      1.0  0.80246  0.22826  0.80343  1.0000
  C   C435      1.0  0.85276  0.04386  0.68773  1.0000
  H   H430      1.0  0.97217  0.36537  0.87428  1.0000
  H   H431      1.0  0.96825  0.39987  0.89701  1.0000
  C   C436      1.0  0.62218  0.05448  0.68694  1.0000
  H   H432      1.0  0.59616  0.49131  0.00413  1.0000
  S   S143      1.0  0.99486  0.01800  0.71361  1.0000
  H   H433      1.0  0.57966  0.02824  0.67826  1.0000
  C   C437      1.0  0.63972  0.08188  0.68130  1.0000
  H   H434      1.0  0.86442  0.49933  0.90196  1.0000
  H   H435      1.0  0.84342  0.02441  0.67532  1.0000
  H   H436      1.0  0.81305  0.07440  0.67979  1.0000
  H   H437      1.0  0.90410  0.50106  0.88913  1.0000
  S   S144      1.0  0.94982  0.00373  0.76958  1.0000
  C   C438      1.0  0.55510  0.60799  0.01463  1.0000
  S   S145      1.0  0.53005  0.56522  0.05340  1.0000
  Fe  Fe72      1.0  0.63516  0.72129  0.04805  1.0000
  S   S146      1.0  0.65204  0.76643  0.02730  1.0000
  H   H438      1.0  0.60750  0.54588  0.08109  1.0000
  Fe  Fe73      1.0  0.67625  0.73201  0.10158  1.0000
  S   S147      1.0  0.69692  0.77620  0.08357  1.0000
  S   S148      1.0  0.68300  0.71633  0.14789  1.0000
  Fe  Fe74      1.0  0.64732  0.78863  0.07128  1.0000
  S   S149      1.0  0.63443  0.83767  0.08840  1.0000
  Fe  Fe75      1.0  0.69966  0.75042  0.04135  1.0000
  S   S150      1.0  0.62641  0.74497  0.09068  1.0000
  S   S151      1.0  0.68314  0.70466  0.06056  1.0000
  S   S152      1.0  0.79948  0.70790  0.31309  1.0000
  Fe  Fe76      1.0  0.83463  0.79335  0.31408  1.0000
  S   S153      1.0  0.85781  0.75304  0.29087  1.0000
  S   S154      1.0  0.84435  0.84629  0.31436  1.0000
  Fe  Fe77      1.0  0.80888  0.74048  0.27586  1.0000
  S   S155      1.0  0.80343  0.73384  0.22747  1.0000
  C   C439      1.0  0.77006  0.80685  0.19513  1.0000
  C   C440      1.0  0.71549  0.79615  0.20435  1.0000
  S   S156      1.0  0.78644  0.78200  0.29747  1.0000
  Fe  Fe78      1.0  0.98128  0.96583  0.26748  1.0000
  S   S157      1.0  0.97289  0.91693  0.28641  1.0000
  S   S158      1.0  0.98399  0.96892  0.21945  1.0000
  H   H439      1.0  0.66410  0.77732  0.17810  1.0000
  S   S159      1.0  0.52105  0.97717  0.13880  1.0000
  H   H440      1.0  0.95848  0.85207  0.29783  1.0000
  C   C441      1.0  0.88003  0.86501  0.30451  1.0000
  C   C442      1.0  0.87999  0.89760  0.29882  1.0000
  C   C443      1.0  0.90802  0.91371  0.29236  1.0000
  C   C444      1.0  0.93654  0.89747  0.29214  1.0000
  Fe  Fe79      1.0  0.78143  0.75107  0.33623  1.0000
  C   C445      1.0  0.90846  0.84862  0.30358  1.0000
  C   C446      1.0  0.76296  0.81096  0.16622  1.0000
  H   H441      1.0  0.90763  0.93880  0.28824  1.0000
  H   H442      1.0  0.65032  0.96405  0.10207  1.0000
  H   H443      1.0  0.57523  0.94532  0.02338  1.0000
  Fe  Fe80      1.0  0.51141  0.52750  0.02293  1.0000
  C   C447      1.0  0.61715  0.92880  0.04424  1.0000
  C   C448      1.0  0.93656  0.86485  0.29772  1.0000
  H   H444      1.0  0.89254  0.59651  0.29917  1.0000
  H   H445      1.0  0.87012  0.64964  0.30903  1.0000
  C   C449      1.0  0.71690  0.72059  0.16958  1.0000
  C   C450      1.0  0.74620  0.72775  0.15795  1.0000
  C   C451      1.0  0.77250  0.73085  0.17598  1.0000
  C   C452      1.0  0.76974  0.72762  0.20586  1.0000
  C   C453      1.0  0.74039  0.72059  0.21752  1.0000
  C   C454      1.0  0.71420  0.71679  0.19941  1.0000
  H   H446      1.0  0.74870  0.73047  0.13504  1.0000
  H   H447      1.0  0.79513  0.73614  0.16674  1.0000
  H   H448      1.0  0.73794  0.71783  0.24043  1.0000
  H   H449      1.0  0.69167  0.71098  0.20859  1.0000
  C   C455      1.0  0.59946  0.85967  0.08383  1.0000
  C   C456      1.0  0.57919  0.85442  0.06078  1.0000
  C   C457      1.0  0.55374  0.87499  0.05608  1.0000
  C   C458      1.0  0.54815  0.90078  0.07447  1.0000
  C   C459      1.0  0.56776  0.90536  0.09810  1.0000
  C   C460      1.0  0.59334  0.88499  0.10264  1.0000
  H   H450      1.0  0.58371  0.83514  0.04607  1.0000
  H   H451      1.0  0.53873  0.87127  0.03772  1.0000
  H   H452      1.0  0.56391  0.92518  0.11233  1.0000
  H   H453      1.0  0.60896  0.88930  0.12046  1.0000
  C   C461      1.0  0.55061  0.59983  0.04334  1.0000
  C   C462      1.0  0.56327  0.61936  0.06484  1.0000
  C   C463      1.0  0.58055  0.64660  0.05780  1.0000
  C   C464      1.0  0.58492  0.65486  0.02911  1.0000
  C   C465      1.0  0.91823  0.59393  0.33884  1.0000
  S   S160      1.0  0.51798  0.92795  0.06591  1.0000
  H   H454      1.0  0.55995  0.61328  0.08712  1.0000
  H   H455      1.0  0.59025  0.66137  0.07457  1.0000
  H   H456      1.0  0.58927  0.00218  0.11633  1.0000
  H   H457      1.0  0.72669  0.81029  0.13438  1.0000
  C   C466      1.0  0.74617  0.79968  0.21438  1.0000
  C   C467      1.0  0.89809  0.60848  0.31905  1.0000
  H   H458      1.0  0.78147  0.81602  0.15101  1.0000
  H   H459      1.0  0.79414  0.80814  0.20253  1.0000
  C   C468      1.0  0.63428  0.96048  0.08435  1.0000
  H   H460      1.0  0.62626  0.59105  0.05205  1.0000
  C   C469      1.0  0.57201  0.63545  0.00761  1.0000
  H   H461      1.0  0.66366  0.81869  0.16786  1.0000
  H   H462      1.0  0.85817  0.91054  0.29955  1.0000
  N   N37       1.0  0.61031  0.98130  0.07968  1.0000
  H   H463      1.0  0.75175  0.79536  0.23670  1.0000
  H   H464      1.0  0.90890  0.82361  0.30808  1.0000
  H   H465      1.0  0.61921  0.90774  0.03103  1.0000
  N   N38       1.0  0.70882  0.79960  0.17587  1.0000
  C   C470      1.0  0.63814  0.93400  0.06664  1.0000
  Fe  Fe81      1.0  0.84650  0.72346  0.32975  1.0000
  C   C471      1.0  0.62138  0.56597  0.01188  1.0000
  C   C472      1.0  0.73198  0.80744  0.15693  1.0000
  H   H466      1.0  0.98988  0.90060  0.22889  1.0000
  C   C473      1.0  0.58926  0.97602  0.05811  1.0000
  Fe  Fe82      1.0  0.50411  0.96988  0.09385  1.0000
  H   H467      1.0  0.67571  0.78822  0.14310  1.0000
  C   C474      1.0  0.67647  0.79600  0.16585  1.0000
  C   C475      1.0  0.88534  0.63863  0.32457  1.0000
  H   H468      1.0  0.69725  0.78953  0.21931  1.0000
  C   C476      1.0  0.60315  0.51314  0.01460  1.0000
  C   C477      1.0  0.60984  0.54346  0.05804  1.0000
  H   H469      1.0  0.65658  0.91697  0.07082  1.0000
  C   C478      1.0  0.59255  0.94991  0.03989  1.0000
  S   S161      1.0  0.93332  0.55574  0.33105  1.0000
  C   C479      1.0  0.62031  0.56884  0.04172  1.0000
  S   S162      1.0  0.60612  0.68905  0.01894  1.0000
  H   H470      1.0  0.77855  0.84111  0.33215  1.0000
  S   S163      1.0  0.74337  0.74672  0.01339  1.0000
  H   H471      1.0  0.56941  0.99169  0.05519  1.0000
  C   C480      1.0  0.60129  0.51537  0.04446  1.0000
  H   H472      1.0  0.86851  0.53470  0.33833  1.0000
  H   H473      1.0  0.50051  0.90998  0.12424  1.0000
  H   H474      1.0  0.50328  0.87514  0.14585  1.0000
  H   H475      1.0  0.54756  0.68920  0.53990  1.0000
  S   S164      1.0  0.73437  0.77089  0.49911  1.0000
  H   H476      1.0  0.57350  0.76252  0.61901  1.0000
  S   S165      1.0  0.73742  0.74991  0.36384  1.0000
  C   C481      1.0  0.55285  0.70546  0.55727  1.0000
  N   N39       1.0  0.60916  0.51006  0.48268  1.0000
  H   H477      1.0  0.54229  0.58612  0.50466  1.0000
  S   S166      1.0  0.96541  0.53006  0.40695  1.0000
  C   C482      1.0  0.91234  0.63975  0.37002  1.0000
  C   C483      1.0  0.74319  0.83617  0.39678  1.0000
  H   H478      1.0  0.82831  0.85261  0.42006  1.0000
  H   H479      1.0  0.91805  0.65183  0.38980  1.0000
  H   H480      1.0  0.94071  0.59886  0.37984  1.0000
  C   C484      1.0  0.73722  0.75468  0.40158  1.0000
  C   C485      1.0  0.70905  0.75057  0.41670  1.0000
  C   C486      1.0  0.70782  0.75475  0.44667  1.0000
  C   C487      1.0  0.73476  0.76352  0.46173  1.0000
  C   C488      1.0  0.76298  0.76741  0.44661  1.0000
  C   C489      1.0  0.76429  0.76281  0.41674  1.0000
  H   H481      1.0  0.68797  0.74423  0.40517  1.0000
  H   H482      1.0  0.68594  0.75172  0.45802  1.0000
  H   H483      1.0  0.78396  0.77410  0.45811  1.0000
  H   H484      1.0  0.78614  0.76607  0.40547  1.0000
  H   H485      1.0  0.68880  0.71841  0.66459  1.0000
  S   S167      1.0  0.53761  0.55098  0.55841  1.0000
  Fe  Fe83      1.0  0.64599  0.70790  0.54789  1.0000
  S   S168      1.0  0.64509  0.75809  0.53150  1.0000
  S   S169      1.0  0.61345  0.67484  0.52298  1.0000
  Fe  Fe84      1.0  0.69896  0.72260  0.59078  1.0000
  S   S170      1.0  0.70155  0.77305  0.57682  1.0000
  S   S171      1.0  0.73730  0.70620  0.62141  1.0000
  Fe  Fe85      1.0  0.64892  0.77230  0.57791  1.0000
  S   S172      1.0  0.62197  0.80854  0.60477  1.0000
  Fe  Fe86      1.0  0.69777  0.75440  0.53160  1.0000
  S   S173      1.0  0.64632  0.72230  0.59445  1.0000
  S   S174      1.0  0.69851  0.70382  0.54540  1.0000
  H   H486      1.0  0.57164  0.77071  0.51974  1.0000
  H   H487      1.0  0.61279  0.55151  0.45760  1.0000
  S   S175      1.0  0.53887  0.92737  0.56880  1.0000
  C   C490      1.0  0.80424  0.84823  0.41378  1.0000
  C   C491      1.0  0.89247  0.65448  0.35009  1.0000
  C   C492      1.0  0.59904  0.84148  0.59415  1.0000
  C   C493      1.0  0.59584  0.85020  0.56546  1.0000
  C   C494      1.0  0.57725  0.87648  0.55812  1.0000
  C   C495      1.0  0.56156  0.89422  0.57929  1.0000
  C   C496      1.0  0.56471  0.88544  0.60797  1.0000
  C   C497      1.0  0.58339  0.85924  0.61531  1.0000
  H   H488      1.0  0.60786  0.83691  0.54895  1.0000
  H   H489      1.0  0.57503  0.88316  0.53588  1.0000
  H   H490      1.0  0.55273  0.89878  0.62448  1.0000
  H   H491      1.0  0.58565  0.85264  0.63757  1.0000
  C   C498      1.0  0.55871  0.58532  0.54820  1.0000
  C   C499      1.0  0.57775  0.60074  0.56850  1.0000
  C   C500      1.0  0.59513  0.62786  0.56114  1.0000
  C   C501      1.0  0.59349  0.63992  0.53335  1.0000
  C   C502      1.0  0.57434  0.62459  0.51312  1.0000
  C   C503      1.0  0.55706  0.59747  0.52044  1.0000
  H   H492      1.0  0.57922  0.59153  0.59003  1.0000
  H   H493      1.0  0.60975  0.63940  0.57695  1.0000
  H   H494      1.0  0.57273  0.63385  0.49161  1.0000
  H   H495      1.0  0.82794  0.70697  0.47632  1.0000
  H   H496      1.0  0.73942  0.67820  0.41328  1.0000
  H   H497      1.0  0.73212  0.83449  0.44194  1.0000
  S   S176      1.0  0.87681  0.69230  0.35843  1.0000
  H   H498      1.0  0.81459  0.84917  0.36881  1.0000
  H   H499      1.0  0.73029  0.68582  0.46524  1.0000
  H   H500      1.0  0.71944  0.83046  0.39031  1.0000
  H   H501      1.0  0.74692  0.81506  0.34148  1.0000
  C   C504      1.0  0.78096  0.84441  0.43448  1.0000
  H   H502      1.0  0.56130  0.70631  0.62964  1.0000
  H   H503      1.0  0.77445  0.70097  0.49691  1.0000
  H   H504      1.0  0.60615  0.51550  0.43723  1.0000
  C   C505      1.0  0.64182  0.97478  0.62920  1.0000
  H   H505      1.0  0.71220  0.78961  0.64442  1.0000
  C   C506      1.0  0.55301  0.69424  0.58539  1.0000
  H   H506      1.0  0.89611  0.54128  0.43536  1.0000
  C   C507      1.0  0.56735  0.74629  0.60184  1.0000
  H   H507      1.0  0.57548  0.97853  0.58919  1.0000
  C   C508      1.0  0.56726  0.75663  0.57343  1.0000
  C   C509      1.0  0.76133  0.78270  0.65283  1.0000
  H   H508      1.0  0.80810  0.77479  0.66791  1.0000
  H   H509      1.0  0.80186  0.65933  0.38060  1.0000
  C   C510      1.0  0.88608  0.51709  0.43435  1.0000
  H   H510      1.0  0.77195  0.68844  0.37257  1.0000
  C   C511      1.0  0.56049  0.71481  0.60778  1.0000
  C   C512      1.0  0.87724  0.52760  0.38337  1.0000
  H   H511      1.0  0.57542  0.73047  0.50847  1.0000
  H   H512      1.0  0.81166  0.70041  0.37720  1.0000
  H   H513      1.0  0.83631  0.69873  0.42418  1.0000
  S   S177      1.0  0.50379  0.52510  0.48161  1.0000
  C   C513      1.0  0.61528  0.96434  0.61432  1.0000
  C   C514      1.0  0.75773  0.83835  0.34627  1.0000
  C   C515      1.0  0.56103  0.74686  0.52176  1.0000
  C   C516      1.0  0.73788  0.70852  0.65939  1.0000
  Fe  Fe87      1.0  0.50997  0.96064  0.59696  1.0000
  C   C517      1.0  0.60051  0.52844  0.45737  1.0000
  S   S178      1.0  0.82759  0.76541  0.35434  1.0000
  C   C518      1.0  0.59620  0.98630  0.60063  1.0000
  C   C519      1.0  0.92523  0.60969  0.36443  1.0000
  H   H514      1.0  0.54799  0.66958  0.58962  1.0000
  N   N40       1.0  0.56053  0.73612  0.55156  1.0000
  N   N41       1.0  0.78834  0.68813  0.41584  1.0000
  C   C520      1.0  0.75906  0.68382  0.42712  1.0000
  C   C521      1.0  0.81304  0.69567  0.43322  1.0000
  C   C522      1.0  0.75375  0.68798  0.45648  1.0000
  C   C523      1.0  0.80851  0.70018  0.46267  1.0000
  C   C524      1.0  0.77860  0.69649  0.47428  1.0000
  C   C525      1.0  0.79360  0.68371  0.38508  1.0000
  H   H515      1.0  0.60933  0.93942  0.61345  1.0000
  C   C526      1.0  0.59624  0.51765  0.50859  1.0000
  H   H516      1.0  0.57476  0.53245  0.45697  1.0000
  H   H517      1.0  0.76703  0.77760  0.63062  1.0000
  C   C527      1.0  0.86135  0.52234  0.35760  1.0000
  H   H518      1.0  0.53685  0.74759  0.51309  1.0000
  H   H519      1.0  0.65636  0.95762  0.64007  1.0000
  Fe  Fe88      1.0  0.96788  0.52898  0.35901  1.0000
  Fe  Fe89      1.0  0.51171  0.51686  0.52856  1.0000
  H   H520      1.0  0.74091  0.85736  0.34083  1.0000
  S   S179      1.0  0.51692  0.97073  0.64393  1.0000
  H   H521      1.0  0.57313  0.78103  0.56904  1.0000
  H   H522      1.0  0.89668  0.54411  0.38362  1.0000
  C   C528      1.0  0.73046  0.78927  0.66061  1.0000
  C   C529      1.0  0.79633  0.84615  0.38476  1.0000
  C   C530      1.0  0.75020  0.83848  0.42598  1.0000
  N   N42       1.0  0.76609  0.84021  0.37664  1.0000
  H   H523      1.0  0.78733  0.69857  0.66168  1.0000
  H   H524      1.0  0.87081  0.51406  0.45340  1.0000
  N   N43       1.0  0.86857  0.51203  0.40773  1.0000
  H   H525      1.0  0.57931  0.53655  0.51027  1.0000
  H   H526      1.0  0.78678  0.84544  0.45709  1.0000
  H   H527      1.0  0.59297  0.50640  0.55349  1.0000
  H   H528      1.0  0.57517  0.64171  0.98536  1.0000
  H   H529      1.0  0.79590  0.74463  0.91979  1.0000
  Fe  Fe90      1.0  0.78886  0.75880  0.84839  1.0000
  S   S180      1.0  0.78293  0.70889  0.83353  1.0000
  S   S181      1.0  0.75683  0.78231  0.88135  1.0000
  Fe  Fe91      1.0  0.83769  0.77272  0.80090  1.0000
  S   S182      1.0  0.83558  0.72288  0.78342  1.0000
  S   S183      1.0  0.85825  0.81256  0.77421  1.0000
  Fe  Fe92      1.0  0.78326  0.72753  0.78836  1.0000
  S   S184      1.0  0.74241  0.71926  0.75763  1.0000
  Fe  Fe93      1.0  0.83569  0.70847  0.83012  1.0000
  S   S185      1.0  0.85978  0.66949  0.85566  1.0000
  S   S186      1.0  0.78551  0.77758  0.80367  1.0000
  S   S187      1.0  0.84150  0.75834  0.84718  1.0000
  Fe  Fe94      1.0  0.97313  0.95606  0.77118  1.0000
  S   S188      1.0  0.96216  0.91634  0.80249  1.0000
  S   S189      1.0  0.96838  0.94709  0.72413  1.0000
  Fe  Fe95      1.0  0.97529  0.52393  0.85371  1.0000
  S   S190      1.0  0.95360  0.55842  0.82224  1.0000
  S   S191      1.0  0.96986  0.52774  0.90123  1.0000
  C   C531      1.0  0.88841  0.84000  0.78223  1.0000
  C   C532      1.0  0.89343  0.86513  0.76326  1.0000
  C   C533      1.0  0.91597  0.88850  0.76917  1.0000
  C   C534      1.0  0.93398  0.88692  0.79411  1.0000
  C   C535      1.0  0.92924  0.86158  0.81301  1.0000
  C   C536      1.0  0.90655  0.83820  0.80714  1.0000
  H   H530      1.0  0.87951  0.86682  0.74398  1.0000
  H   H531      1.0  0.91911  0.90794  0.75454  1.0000
  H   H532      1.0  0.94313  0.86010  0.83232  1.0000
  H   H533      1.0  0.90297  0.81895  0.82191  1.0000
  C   C537      1.0  0.88828  0.64102  0.84582  1.0000
  C   C538      1.0  0.90101  0.62182  0.86737  1.0000
  C   C539      1.0  0.92160  0.59694  0.86057  1.0000
  C   C540      1.0  0.92989  0.59112  0.83206  1.0000
  C   C541      1.0  0.91785  0.61082  0.81055  1.0000
  C   C542      1.0  0.89708  0.63566  0.81736  1.0000
  H   H534      1.0  0.89432  0.62583  0.88945  1.0000
  H   H535      1.0  0.93043  0.58191  0.87734  1.0000
  H   H536      1.0  0.92413  0.60650  0.78842  1.0000
  H   H537      1.0  0.88744  0.65024  0.80057  1.0000
  C   C543      1.0  0.88315  0.51550  0.89445  1.0000
  C   C544      1.0  0.76834  0.70714  0.70389  1.0000
  C   C545      1.0  0.74147  0.71411  0.71986  1.0000
  C   C546      1.0  0.71275  0.71768  0.70547  1.0000
  H   H538      1.0  0.84476  0.56496  0.89549  1.0000
  H   H539      1.0  0.79350  0.82801  0.85095  1.0000
  H   H540      1.0  0.79049  0.70378  0.71468  1.0000
  H   H541      1.0  0.69178  0.72278  0.71765  1.0000
  C   C547      1.0  0.75369  0.77233  0.91808  1.0000
  C   C548      1.0  0.72818  0.78396  0.93404  1.0000
  C   C549      1.0  0.72454  0.77626  0.96320  1.0000
  C   C550      1.0  0.74695  0.75759  0.97690  1.0000
  C   C551      1.0  0.77285  0.74660  0.96109  1.0000
  C   C552      1.0  0.77602  0.75355  0.93173  1.0000
  H   H542      1.0  0.71089  0.79869  0.92371  1.0000
  H   H543      1.0  0.70460  0.78501  0.97513  1.0000
  H   H544      1.0  0.79046  0.73238  0.97156  1.0000
  C   C553      1.0  0.87113  0.54278  0.81901  1.0000
  C   C554      1.0  0.82171  0.86082  0.82740  1.0000
  H   H545      1.0  0.64818  0.73965  0.91778  1.0000
  S   S192      1.0  0.51511  0.53084  0.97534  1.0000
  C   C555      1.0  0.65584  0.71806  0.95889  1.0000
  C   C556      1.0  0.86443  0.88426  0.85368  1.0000
  N   N44       1.0  0.77684  0.78562  0.70227  1.0000
  H   H546      1.0  0.99131  0.62904  0.87871  1.0000
  C   C557      1.0  0.85198  0.55834  0.87402  1.0000
  C   C558      1.0  0.76645  0.70409  0.67385  1.0000
  H   H547      1.0  0.80895  0.85750  0.80753  1.0000
  N   N45       1.0  0.70569  0.69269  0.96517  1.0000
  C   C559      1.0  0.71369  0.69973  0.93754  1.0000
  C   C560      1.0  0.67701  0.70119  0.97576  1.0000
  C   C561      1.0  0.88155  0.52558  0.84267  1.0000
  C   C562      1.0  0.61316  0.53572  0.96742  1.0000
  H   H548      1.0  0.82362  0.80309  0.89736  1.0000
  Fe  Fe96      1.0  0.94798  0.99610  0.72209  1.0000
  H   H549      1.0  0.70014  0.72331  0.89854  1.0000
  C   C563      1.0  0.72295  0.79376  0.68943  1.0000
  H   H550      1.0  0.79911  0.80228  0.74022  1.0000
  C   C564      1.0  0.78438  0.78091  0.67407  1.0000
  H   H551      1.0  0.69881  0.79760  0.69579  1.0000
  N   N46       1.0  0.87218  0.53367  0.86976  1.0000
  H   H552      1.0  0.88488  0.89950  0.85430  1.0000
  H   H553      1.0  0.62412  0.51308  0.96054  1.0000
  H   H554      1.0  0.87979  0.53720  0.79773  1.0000
  H   H555      1.0  0.82495  0.78300  0.71566  1.0000
  N   N47       1.0  0.83023  0.84707  0.87665  1.0000
  C   C565      1.0  0.85566  0.86673  0.87772  1.0000
  H   H556      1.0  0.79755  0.75994  0.73615  1.0000
  C   C566      1.0  0.84721  0.88135  0.82845  1.0000
  C   C567      1.0  0.80081  0.78252  0.72455  1.0000
  H   H557      1.0  0.75210  0.68251  0.97904  1.0000
  C   C568      1.0  0.85095  0.56829  0.82320  1.0000
  C   C569      1.0  0.84119  0.57612  0.85084  1.0000
  H   H558      1.0  0.79599  0.83335  0.90719  1.0000
  C   C570      1.0  0.81339  0.84389  0.85190  1.0000
  H   H559      1.0  0.74033  0.79349  0.73263  1.0000
  H   H560      1.0  0.63332  0.72508  0.96770  1.0000
  C   C571      1.0  0.66410  0.72601  0.93092  1.0000
  H   H561      1.0  0.84371  0.58265  0.80519  1.0000
  H   H562      1.0  0.73651  0.69322  0.92916  1.0000
  H   H563      1.0  0.85425  0.89423  0.80946  1.0000
  C   C572      1.0  0.82098  0.82875  0.90185  1.0000
  C   C573      1.0  0.69313  0.71665  0.92006  1.0000
  H   H564      1.0  0.54569  0.59317  0.99783  1.0000
  H   H565      1.0  0.82641  0.59666  0.85436  1.0000
  C   C574      1.0  0.74654  0.79155  0.71013  1.0000
  H   H566      1.0  0.83522  0.83462  0.92104  1.0000
  C   C575      1.0  0.72758  0.67491  0.98312  1.0000
  H   H567      1.0  0.86944  0.86888  0.89712  1.0000
  H   H568      1.0  0.72527  0.64927  0.97883  1.0000
  H   H569      1.0  0.62639  0.55520  0.95722  1.0000
  H   H570      1.0  0.89010  0.53147  0.91231  1.0000
  H   H571      1.0  0.58869  0.53602  0.95928  1.0000
  H   H572      1.0  0.67044  0.69531  0.99752  1.0000
  H   H573      1.0  0.98886  0.58747  0.87060  1.0000
  C   C576      1.0  0.71097  0.71522  0.67538  1.0000
  H   H574      1.0  0.62824  0.58632  0.99937  1.0000
  H   H575      1.0  0.72329  0.67961  0.00626  1.0000
  N   N48       1.0  0.61303  0.53828  0.99873  1.0000
  H   H576      1.0  0.89798  0.50640  0.83920  1.0000
