data_image0
_chemical_formula_structural       FeHSHFeSCFeS2CS2HFeS3HSC8H4C2H3CSCNHC2H3CFeH4C2H2SHFeSCHC2HC2H2CFeH2SHCSCNCH2CHC3H2C2HC5HNHSHFe2C2S2HC2SH2SCHCFeS2FeS2FeSFeS3CS2CHCFeS2CHFeC2HFeS2HC6H4C6H5NC3FeHCHSCSHC5H3CHC2NHCHCSCH2NHC2HCH2C3H3CSNH2CHCH4CHSH3C3HFeC2H2FeS2FeS2FeSFeS3FeS2FeSFeHFeNS2HC5HC2H2CH2CHC7H4C2H3C2H4CHSC3H3C2HCHNC3HC2H2CH7C2NC4HCHCH2CHCH6NC3H2SHCHFeSCHSCHCHSH2CFeSHNC3HCFeHC2H2CHC3SH3FeH2CHSH2CNSCSC3H2CHC5HN2H4NC2HSHFeS2CS2H4CHC2FeC6H4C2H4CH3C5H3C3H3C2HFeSCNHC2H2SFeHFeSHCSHSNCH3CH3CHC2S2C3FeHC2SH2C2FeHC4SH2C2SHCHCH2FeSCFeHC2H4NH2C2HSCSH2FeSC3H5C3HC2FeC2H3CHC2SFeHSNCSC3H2CHC3FeS2FeCHCHCFeS2C6H4FeHCHC2HSC2HCHCNC3NC6H10CH2SCHSH2SH2CHC2HFeHC2H3NHCH2SHCFeSFeCSHNH2C2HCS2H2CHC4H2C3NCH2CH4C2HSHSHCFeSCH2CHFe2C2HFe2S2FeCSFeCFeCS2FeS2FeS2FeSFeS3H2NHC2HCSCH4CH7C2HC6H6CHCHC4NHCH2C2HCHC2HC2HC2HC2SH2C3H3CHCNH2C2H2CH3CH3SHC2FeS2FeS2FeSFeS3HS2HSH2C3HC6H4C6H4C4H2CNC2SCHCNC2HNC2H3CHCH2CSHCHFeCH4C2NHCH3CH2C3H2FeC2HCSH3CH3C6FeCH3SC2HFeSC2NSH2S2CFeSHSHFeHC3H4CFeCSCNC2HSH2CHSHC4HCHSCHCH2C6H3CHCSH2C2H3CN2SCHC3H2SH5C2H3
_chemical_formula_sum              "Fe72 H432 S144 C432 N36"
_cell_length_a       38.7836
_cell_length_b       38.9783
_cell_length_c       58.9464
_cell_angle_alpha    89.2242
_cell_angle_beta     89.9152
_cell_angle_gamma    119.999

_space_group_name_H-M_alt    "P 1"
_space_group_IT_number       1

loop_
  _space_group_symop_operation_xyz
  'x, y, z'

loop_
  _atom_site_type_symbol
  _atom_site_label
  _atom_site_symmetry_multiplicity
  _atom_site_fract_x
  _atom_site_fract_y
  _atom_site_fract_z
  _atom_site_occupancy
  Fe  Fe1       1.0  0.06001  0.34269  0.00348  1.0000
  H   H1        1.0  0.08308  0.26281  0.09328  1.0000
  S   S1        1.0  0.06032  0.37119  0.03646  1.0000
  H   H2        1.0  0.14742  0.24460  0.24373  1.0000
  Fe  Fe2       1.0  0.33471  0.05255  0.02774  1.0000
  S   S2        1.0  0.36965  0.04191  0.05488  1.0000
  C   C1        1.0  0.29542  0.10377  0.08942  1.0000
  Fe  Fe3       1.0  0.04347  0.18697  0.22581  1.0000
  S   S3        1.0  0.09202  0.17850  0.21034  1.0000
  S   S4        1.0  0.32488  0.10569  0.02832  1.0000
  C   C2        1.0  0.47826  0.47973  0.99869  1.0000
  S   S5        1.0  0.05333  0.24862  0.22892  1.0000
  S   S6        1.0  0.01443  0.28142  0.01532  1.0000
  H   H3        1.0  0.13643  0.29445  0.09663  1.0000
  Fe  Fe4       1.0  0.17836  0.04411  0.25124  1.0000
  S   S7        1.0  0.15659  0.08323  0.26615  1.0000
  S   S8        1.0  0.01492  0.44063  0.02476  1.0000
  S   S9        1.0  0.24023  0.05221  0.25196  1.0000
  H   H4        1.0  0.07417  0.34877  0.15764  1.0000
  S   S10       1.0  0.34840  0.02024  0.00074  1.0000
  C   C3        1.0  0.08541  0.30245  0.16882  1.0000
  C   C4        1.0  0.27359  0.02449  0.16324  1.0000
  C   C5        1.0  0.13446  0.10372  0.24869  1.0000
  C   C6        1.0  0.14997  0.11944  0.22717  1.0000
  C   C7        1.0  0.13558  0.14102  0.21508  1.0000
  C   C8        1.0  0.10525  0.14642  0.22429  1.0000
  C   C9        1.0  0.08815  0.12860  0.24520  1.0000
  C   C10       1.0  0.10298  0.10764  0.25744  1.0000
  H   H5        1.0  0.17436  0.11665  0.22033  1.0000
  H   H6        1.0  0.14886  0.15461  0.19887  1.0000
  H   H7        1.0  0.06462  0.13226  0.25239  1.0000
  H   H8        1.0  0.09080  0.09544  0.27407  1.0000
  C   C11       1.0  0.30475  0.04539  0.14742  1.0000
  C   C12       1.0  0.30741  0.02735  0.12736  1.0000
  H   H9        1.0  0.32664  0.07601  0.15048  1.0000
  H   H10       1.0  0.33124  0.04400  0.11524  1.0000
  H   H11       1.0  0.10972  0.24922  0.13389  1.0000
  C   C13       1.0  0.23515  0.05138  0.11850  1.0000
  S   S11       1.0  0.25178  0.31644  0.99542  1.0000
  C   C14       1.0  0.09087  0.32435  0.12981  1.0000
  N   N1        1.0  0.10051  0.29657  0.12331  1.0000
  H   H12       1.0  0.18412  0.20804  0.24924  1.0000
  C   C15       1.0  0.18137  0.31385  0.00607  1.0000
  C   C16       1.0  0.15116  0.32373  0.00357  1.0000
  H   H13       1.0  0.17802  0.29209  0.01880  1.0000
  H   H14       1.0  0.12477  0.30945  0.01422  1.0000
  H   H15       1.0  0.08742  0.34298  0.11722  1.0000
  C   C17       1.0  0.16203  0.18913  0.28335  1.0000
  Fe  Fe5       1.0  0.22570  0.02374  0.21731  1.0000
  H   H16       1.0  0.30741  0.16888  0.02652  1.0000
  H   H17       1.0  0.21221  0.03091  0.13021  1.0000
  H   H18       1.0  0.18633  0.99822  0.08096  1.0000
  H   H19       1.0  0.44938  0.45782  0.00533  1.0000
  C   C18       1.0  0.13723  0.18966  0.30045  1.0000
  C   C19       1.0  0.12126  0.23013  0.27738  1.0000
  H   H20       1.0  0.10569  0.31491  0.08833  1.0000
  H   H21       1.0  0.13367  0.17315  0.31607  1.0000
  S   S12       1.0  0.01663  0.16837  0.26064  1.0000
  H   H22       1.0  0.10510  0.24593  0.27482  1.0000
  Fe  Fe6       1.0  0.01168  0.31036  0.04788  1.0000
  S   S13       1.0  0.01551  0.27648  0.07927  1.0000
  C   C20       1.0  0.29188  0.11619  0.11096  1.0000
  H   H23       1.0  0.32718  0.22587  0.99990  1.0000
  C   C21       1.0  0.00121  0.26968  0.10847  1.0000
  C   C22       1.0  0.08332  0.32779  0.15264  1.0000
  H   H24       1.0  0.10740  0.42966  0.99910  1.0000
  C   C23       1.0  0.00418  0.24043  0.12122  1.0000
  C   C24       1.0  0.01081  0.47377  0.00500  1.0000
  H   H25       1.0  0.33989  0.05531  0.24255  1.0000
  H   H26       1.0  0.34178  0.04512  0.20113  1.0000
  C   C25       1.0  0.26144  0.08995  0.12559  1.0000
  Fe  Fe7       1.0  0.02097  0.22800  0.26266  1.0000
  H   H27       1.0  0.31287  0.14597  0.11635  1.0000
  H   H28       1.0  0.08438  0.00948  0.24886  1.0000
  S   S14       1.0  0.16677  0.02167  0.21573  1.0000
  H   H29       1.0  0.38000  0.13414  0.98932  1.0000
  C   C26       1.0  0.32766  0.17368  0.01262  1.0000
  S   S15       1.0  0.04855  0.26401  0.29473  1.0000
  C   C27       1.0  0.15496  0.35160  0.98709  1.0000
  N   N2        1.0  0.23939  0.03921  0.09753  1.0000
  C   C28       1.0  0.10694  0.29206  0.09926  1.0000
  H   H30       1.0  0.17685  0.17189  0.28554  1.0000
  H   H31       1.0  0.31890  0.12380  0.07778  1.0000
  C   C29       1.0  0.09530  0.27423  0.16208  1.0000
  H   H32       1.0  0.09622  0.25384  0.17451  1.0000
  C   C30       1.0  0.21561  0.33147  0.99211  1.0000
  C   C31       1.0  0.06942  0.00400  0.23213  1.0000
  C   C32       1.0  0.36845  0.15401  0.99171  1.0000
  H   H33       1.0  0.27170  0.05575  0.06616  1.0000
  H   H34       1.0  0.08172  0.03321  0.22332  1.0000
  C   C33       1.0  0.33876  0.20600  0.99755  1.0000
  C   C34       1.0  0.21143  0.99880  0.09029  1.0000
  H   H35       1.0  0.25890  0.09888  0.14261  1.0000
  C   C35       1.0  0.34219  0.14736  0.00970  1.0000
  C   C36       1.0  0.26862  0.06503  0.08292  1.0000
  C   C37       1.0  0.10281  0.27171  0.13909  1.0000
  C   C38       1.0  0.16616  0.20944  0.26295  1.0000
  C   C39       1.0  0.10465  0.45114  0.98851  1.0000
  H   H36       1.0  0.07808  0.30390  0.18644  1.0000
  N   N3        1.0  0.11744  0.21023  0.29736  1.0000
  H   H37       1.0  0.06002  0.19599  0.30920  1.0000
  S   S16       1.0  0.27043  0.04947  0.18758  1.0000
  H   H38       1.0  0.24675  0.08112  0.99513  1.0000
  Fe  Fe8       1.0  0.37939  0.00537  0.02841  1.0000
  Fe  Fe9       1.0  0.01142  0.37986  0.02133  1.0000
  C   C40       1.0  0.32554  0.02556  0.23588  1.0000
  C   C41       1.0  0.14552  0.22993  0.25985  1.0000
  S   S17       1.0  0.36562  0.34234  0.98398  1.0000
  S   S18       1.0  0.01378  0.35448  0.98792  1.0000
  H   H39       1.0  0.01256  0.22118  0.11276  1.0000
  C   C42       1.0  0.47430  0.00473  0.00579  1.0000
  C   C43       1.0  0.32664  0.01982  0.21265  1.0000
  S   S19       1.0  0.27653  0.99859  0.03741  1.0000
  H   H40       1.0  0.00047  0.21422  0.15443  1.0000
  H   H41       1.0  0.11327  0.49010  0.01597  1.0000
  S   S20       1.0  0.43535  0.99849  0.02505  1.0000
  C   C44       1.0  0.09129  0.21058  0.31524  1.0000
  H   H42       1.0  0.01857  0.00418  0.20198  1.0000
  C   C45       1.0  0.10834  0.48558  0.99788  1.0000
  Fe  Fe10      1.0  0.32831  0.31622  0.56352  1.0000
  S   S21       1.0  0.28059  0.28474  0.53764  1.0000
  S   S22       1.0  0.31901  0.28415  0.59799  1.0000
  Fe  Fe11      1.0  0.38151  0.38341  0.52870  1.0000
  S   S23       1.0  0.33591  0.35611  0.50103  1.0000
  S   S24       1.0  0.44355  0.44039  0.52658  1.0000
  Fe  Fe12      1.0  0.28991  0.34485  0.52811  1.0000
  S   S25       1.0  0.23493  0.35213  0.52982  1.0000
  Fe  Fe13      1.0  0.32988  0.29777  0.51298  1.0000
  S   S26       1.0  0.32234  0.25163  0.48697  1.0000
  S   S27       1.0  0.33580  0.37605  0.55529  1.0000
  S   S28       1.0  0.37767  0.32539  0.53921  1.0000
  C   C46       1.0  0.16728  0.44182  0.47393  1.0000
  S   S29       1.0  0.29415  0.02958  0.45707  1.0000
  S   S30       1.0  0.30486  0.03826  0.39303  1.0000
  C   C47       1.0  0.21369  0.02114  0.42516  1.0000
  H   H43       1.0  0.46924  0.38068  0.53497  1.0000
  C   C48       1.0  0.03204  0.29828  0.35726  1.0000
  Fe  Fe14      1.0  0.35423  0.06590  0.47231  1.0000
  S   S31       1.0  0.37705  0.12190  0.49338  1.0000
  S   S32       1.0  0.38571  0.06276  0.44106  1.0000
  C   C49       1.0  0.04890  0.29134  0.33779  1.0000
  H   H44       1.0  0.23055  0.24175  0.58052  1.0000
  Fe  Fe15      1.0  0.32491  0.02257  0.42649  1.0000
  C   C50       1.0  0.44037  0.36301  0.48883  1.0000
  C   C51       1.0  0.26881  0.31441  0.64977  1.0000
  H   H45       1.0  0.43906  0.45228  0.47709  1.0000
  Fe  Fe16      1.0  0.06275  0.34449  0.45071  1.0000
  S   S33       1.0  0.12547  0.35333  0.44948  1.0000
  S   S34       1.0  0.04910  0.37893  0.42475  1.0000
  H   H46       1.0  0.47929  0.31185  0.51335  1.0000
  C   C52       1.0  0.33546  0.21410  0.49003  1.0000
  C   C53       1.0  0.35767  0.21287  0.50839  1.0000
  C   C54       1.0  0.36986  0.18427  0.50925  1.0000
  C   C55       1.0  0.35937  0.15612  0.49203  1.0000
  C   C56       1.0  0.33667  0.15702  0.47386  1.0000
  C   C57       1.0  0.32510  0.18605  0.47280  1.0000
  H   H47       1.0  0.36587  0.23423  0.52177  1.0000
  H   H48       1.0  0.38733  0.18381  0.52341  1.0000
  H   H49       1.0  0.32856  0.13577  0.46042  1.0000
  H   H50       1.0  0.30806  0.18683  0.45848  1.0000
  C   C58       1.0  0.20368  0.34961  0.50714  1.0000
  C   C59       1.0  0.16688  0.34690  0.51218  1.0000
  C   C60       1.0  0.14179  0.34639  0.49472  1.0000
  C   C61       1.0  0.15365  0.34936  0.47203  1.0000
  C   C62       1.0  0.19040  0.35203  0.46700  1.0000
  C   C63       1.0  0.21516  0.35182  0.48443  1.0000
  H   H51       1.0  0.15775  0.34516  0.52970  1.0000
  H   H52       1.0  0.11365  0.34441  0.49884  1.0000
  H   H53       1.0  0.19989  0.35443  0.44949  1.0000
  H   H54       1.0  0.24340  0.35402  0.48031  1.0000
  H   H55       1.0  0.13526  0.44413  0.42196  1.0000
  N   N4        1.0  0.18308  0.25581  0.62456  1.0000
  C   C64       1.0  0.12566  0.44745  0.50237  1.0000
  C   C65       1.0  0.46218  0.10887  0.48242  1.0000
  C   C66       1.0  0.01236  0.47961  0.47378  1.0000
  Fe  Fe17      1.0  0.01267  0.38620  0.45242  1.0000
  H   H56       1.0  0.27777  0.06684  0.35600  1.0000
  C   C67       1.0  0.45749  0.09984  0.50566  1.0000
  H   H57       1.0  0.19913  0.21196  0.61755  1.0000
  S   S35       1.0  0.03003  0.35508  0.47881  1.0000
  C   C68       1.0  0.21660  0.25484  0.59046  1.0000
  S   S36       1.0  0.35312  0.01320  0.48933  1.0000
  H   H58       1.0  0.20182  0.33361  0.58998  1.0000
  C   C69       1.0  0.47699  0.47617  0.50608  1.0000
  C   C70       1.0  0.28550  0.25445  0.64011  1.0000
  C   C71       1.0  0.29587  0.28516  0.62397  1.0000
  C   C72       1.0  0.28731  0.31516  0.62894  1.0000
  C   C73       1.0  0.16386  0.23760  0.64634  1.0000
  H   H59       1.0  0.29204  0.23113  0.63649  1.0000
  H   H60       1.0  0.29525  0.33910  0.61681  1.0000
  H   H61       1.0  0.24383  0.04424  0.41918  1.0000
  C   C74       1.0  0.27477  0.03897  0.35078  1.0000
  H   H62       1.0  0.43693  0.26266  0.48485  1.0000
  C   C75       1.0  0.47435  0.00129  0.47441  1.0000
  C   C76       1.0  0.25873  0.02392  0.32926  1.0000
  N   N5        1.0  0.46356  0.35481  0.50281  1.0000
  H   H63       1.0  0.17255  0.43287  0.43038  1.0000
  C   C77       1.0  0.41610  0.33570  0.47266  1.0000
  H   H64       1.0  0.44007  0.39052  0.49037  1.0000
  C   C78       1.0  0.48800  0.38352  0.51999  1.0000
  S   S37       1.0  0.44036  0.00573  0.45552  1.0000
  C   C79       1.0  0.28684  0.01836  0.36561  1.0000
  H   H65       1.0  0.09209  0.19509  0.33100  1.0000
  H   H66       1.0  0.11617  0.44535  0.51990  1.0000
  N   N6        1.0  0.14848  0.45091  0.45727  1.0000
  H   H67       1.0  0.13154  0.21720  0.64392  1.0000
  C   C80       1.0  0.46230  0.31914  0.50165  1.0000
  C   C81       1.0  0.43860  0.29128  0.48554  1.0000
  H   H68       1.0  0.44213  0.11692  0.47429  1.0000
  C   C82       1.0  0.41565  0.29985  0.47087  1.0000
  H   H69       1.0  0.17009  0.43101  0.50970  1.0000
  H   H70       1.0  0.47808  0.08508  0.43677  1.0000
  C   C83       1.0  0.18354  0.28940  0.61698  1.0000
  C   C84       1.0  0.20091  0.30671  0.59600  1.0000
  C   C85       1.0  0.21758  0.28929  0.58275  1.0000
  H   H71       1.0  0.39601  0.27792  0.45884  1.0000
  H   H72       1.0  0.17086  0.30325  0.62729  1.0000
  H   H73       1.0  0.23154  0.30277  0.56662  1.0000
  C   C86       1.0  0.15592  0.43956  0.49668  1.0000
  S   S38       1.0  0.01056  0.28617  0.44084  1.0000
  N   N7        1.0  0.49116  0.10705  0.47013  1.0000
  H   H74       1.0  0.19108  0.02661  0.41697  1.0000
  H   H75       1.0  0.05074  0.31423  0.37138  1.0000
  C   C87       1.0  0.46777  0.47500  0.48302  1.0000
  H   H76       1.0  0.19034  0.43493  0.46961  1.0000
  C   C88       1.0  0.19894  0.23826  0.61149  1.0000
  H   H77       1.0  0.39678  0.34168  0.46207  1.0000
  H   H78       1.0  0.43383  0.10062  0.51513  1.0000
  H   H79       1.0  0.08057  0.30218  0.33719  1.0000
  H   H80       1.0  0.48047  0.13208  0.44027  1.0000
  C   C89       1.0  0.16092  0.45336  0.43352  1.0000
  H   H81       1.0  0.21208  0.02442  0.44378  1.0000
  S   S39       1.0  0.02424  0.45038  0.45551  1.0000
  H   H82       1.0  0.18433  0.48411  0.42914  1.0000
  H   H83       1.0  0.08378  0.46396  0.48952  1.0000
  H   H84       1.0  0.10475  0.46721  0.44959  1.0000
  C   C90       1.0  0.49403  0.11399  0.44552  1.0000
  C   C91       1.0  0.02528  0.27099  0.31907  1.0000
  C   C92       1.0  0.48285  0.08910  0.51634  1.0000
  H   H85       1.0  0.47901  0.08119  0.53425  1.0000
  Fe  Fe18      1.0  0.38178  0.00797  0.45734  1.0000
  C   C93       1.0  0.11936  0.45949  0.46274  1.0000
  C   C94       1.0  0.10743  0.45780  0.48534  1.0000
  H   H86       1.0  0.24965  0.04024  0.31816  1.0000
  H   H87       1.0  0.10034  0.24163  0.31963  1.0000
  Fe  Fe19      1.0  0.17154  0.14841  0.73281  1.0000
  S   S40       1.0  0.15931  0.15708  0.76878  1.0000
  S   S41       1.0  0.14651  0.08911  0.71562  1.0000
  Fe  Fe20      1.0  0.20763  0.23583  0.71976  1.0000
  S   S42       1.0  0.19690  0.25165  0.75494  1.0000
  S   S43       1.0  0.23386  0.28347  0.69153  1.0000
  Fe  Fe21      1.0  0.21963  0.21233  0.76809  1.0000
  S   S44       1.0  0.26439  0.22831  0.79714  1.0000
  Fe  Fe22      1.0  0.13724  0.19562  0.75363  1.0000
  S   S45       1.0  0.08026  0.18548  0.77032  1.0000
  S   S46       1.0  0.23447  0.20002  0.73286  1.0000
  S   S47       1.0  0.14559  0.18365  0.71762  1.0000
  Fe  Fe23      1.0  0.32365  0.33075  0.92195  1.0000
  S   S48       1.0  0.29644  0.28253  0.94859  1.0000
  S   S49       1.0  0.28612  0.32176  0.88990  1.0000
  Fe  Fe24      1.0  0.39079  0.38783  0.95543  1.0000
  S   S50       1.0  0.44938  0.44896  0.95546  1.0000
  Fe  Fe25      1.0  0.35860  0.29786  0.95764  1.0000
  H   H88       1.0  0.07540  0.04781  0.76598  1.0000
  Fe  Fe26      1.0  0.30503  0.33096  0.97227  1.0000
  N   N8        1.0  0.18286  0.29638  0.93257  1.0000
  S   S51       1.0  0.38600  0.34347  0.92927  1.0000
  S   S52       1.0  0.33031  0.37905  0.94554  1.0000
  H   H89       1.0  0.25246  0.14003  0.97507  1.0000
  C   C95       1.0  0.35096  0.27980  0.74950  1.0000
  C   C96       1.0  0.15086  0.28278  0.94702  1.0000
  C   C97       1.0  0.02837  0.10307  0.71372  1.0000
  C   C98       1.0  0.32047  0.30020  0.72076  1.0000
  C   C99       1.0  0.09913  0.00951  0.72341  1.0000
  H   H90       1.0  0.25852  0.22937  0.67285  1.0000
  C   C100      1.0  0.37975  0.18648  0.97673  1.0000
  C   C101      1.0  0.29923  0.32747  0.77765  1.0000
  H   H91       1.0  0.24586  0.37370  0.96502  1.0000
  H   H92       1.0  0.08451  0.09841  0.73721  1.0000
  C   C102      1.0  0.01127  0.01699  0.76410  1.0000
  H   H93       1.0  0.21738  0.27061  0.92256  1.0000
  H   H94       1.0  0.21186  0.33027  0.90276  1.0000
  C   C103      1.0  0.21454  0.28723  0.93694  1.0000
  H   H95       1.0  0.35314  0.27024  0.71367  1.0000
  C   C104      1.0  0.25811  0.28347  0.66578  1.0000
  C   C105      1.0  0.27999  0.29458  0.86455  1.0000
  C   C106      1.0  0.25048  0.29003  0.84898  1.0000
  C   C107      1.0  0.24474  0.26929  0.82855  1.0000
  C   C108      1.0  0.26881  0.25311  0.82323  1.0000
  C   C109      1.0  0.29837  0.25774  0.83876  1.0000
  C   C110      1.0  0.30381  0.27810  0.85932  1.0000
  H   H96       1.0  0.23182  0.30259  0.85276  1.0000
  H   H97       1.0  0.22172  0.26592  0.81693  1.0000
  H   H98       1.0  0.31725  0.24545  0.83490  1.0000
  H   H99       1.0  0.32674  0.28141  0.87100  1.0000
  C   C111      1.0  0.03017  0.18862  0.73829  1.0000
  C   C112      1.0  0.03496  0.16660  0.75568  1.0000
  H   H100      1.0  0.15656  0.00760  0.77662  1.0000
  H   H101      1.0  0.05548  0.21617  0.73243  1.0000
  H   H102      1.0  0.28783  0.32739  0.73298  1.0000
  C   C113      1.0  0.15021  0.04447  0.75126  1.0000
  C   C114      1.0  0.13039  0.04513  0.73163  1.0000
  H   H103      1.0  0.09691  0.28346  0.95535  1.0000
  H   H104      1.0  0.17438  0.07181  0.75771  1.0000
  H   H105      1.0  0.40008  0.19142  0.96284  1.0000
  H   H106      1.0  0.29991  0.35508  0.77196  1.0000
  C   C115      1.0  0.15739  0.33033  0.90997  1.0000
  H   H107      1.0  0.19271  0.39120  0.96048  1.0000
  S   S53       1.0  0.37793  0.25117  0.95914  1.0000
  C   C116      1.0  0.14015  0.00808  0.76190  1.0000
  C   C117      1.0  0.12141  0.29289  0.94334  1.0000
  C   C118      1.0  0.18945  0.36965  0.97331  1.0000
  H   H108      1.0  0.26806  0.30455  0.78179  1.0000
  H   H109      1.0  0.31358  0.30202  0.70310  1.0000
  H   H110      1.0  0.34269  0.29239  0.78377  1.0000
  C   C119      1.0  0.26650  0.25339  0.66078  1.0000
  C   C120      1.0  0.05461  0.07549  0.74188  1.0000
  H   H111      1.0  0.08357  0.00987  0.70827  1.0000
  C   C121      1.0  0.12492  0.31708  0.92480  1.0000
  H   H112      1.0  0.31662  0.33400  0.79358  1.0000
  N   N9        1.0  0.29062  0.13997  0.94901  1.0000
  C   C122      1.0  0.31008  0.12173  0.94048  1.0000
  C   C123      1.0  0.04962  0.04694  0.75820  1.0000
  C   C124      1.0  0.30717  0.08823  0.95141  1.0000
  H   H113      1.0  0.20938  0.26969  0.95288  1.0000
  C   C125      1.0  0.18627  0.31957  0.91413  1.0000
  C   C126      1.0  0.29331  0.17452  0.93710  1.0000
  H   H114      1.0  0.32866  0.13356  0.92540  1.0000
  H   H115      1.0  0.10279  0.32599  0.92222  1.0000
  C   C127      1.0  0.21960  0.35965  0.97577  1.0000
  H   H116      1.0  0.09361  0.41735  0.95814  1.0000
  H   H117      1.0  0.16051  0.34924  0.89553  1.0000
  H   H118      1.0  0.32227  0.19172  0.92792  1.0000
  H   H119      1.0  0.26867  0.16506  0.92481  1.0000
  H   H120      1.0  0.00506  0.11491  0.77743  1.0000
  H   H121      1.0  0.14874  0.26531  0.96200  1.0000
  H   H122      1.0  0.36746  0.26523  0.75443  1.0000
  C   C128      1.0  0.00493  0.49471  0.96662  1.0000
  C   C129      1.0  0.34276  0.28242  0.72670  1.0000
  N   N10       1.0  0.31515  0.31283  0.76004  1.0000
  C   C130      1.0  0.33698  0.29539  0.76603  1.0000
  C   C131      1.0  0.30630  0.31483  0.73776  1.0000
  C   C132      1.0  0.48654  0.48017  0.97550  1.0000
  C   C133      1.0  0.00169  0.13166  0.76368  1.0000
  H   H123      1.0  0.32339  0.07437  0.94497  1.0000
  C   C134      1.0  0.36484  0.21252  0.97948  1.0000
  H   H124      1.0  0.29215  0.19548  0.94930  1.0000
  C   C135      1.0  0.09698  0.44430  0.96543  1.0000
  H   H125      1.0  0.24329  0.31526  0.93879  1.0000
  H   H126      1.0  0.00177  0.10659  0.71176  1.0000
  C   C136      1.0  0.26739  0.12522  0.96811  1.0000
  H   H127      1.0  0.16813  0.26060  0.65879  1.0000
  C   C137      1.0  0.28393  0.07330  0.97106  1.0000
  H   H128      1.0  0.00212  0.43904  0.97529  1.0000
  H   H129      1.0  0.17144  0.02032  0.69515  1.0000
  H   H130      1.0  0.08692  0.46675  0.93402  1.0000
  H   H131      1.0  0.00095  0.48857  0.94867  1.0000
  H   H132      1.0  0.05381  0.13277  0.71772  1.0000
  H   H133      1.0  0.03445  0.09310  0.69741  1.0000
  N   N11       1.0  0.02231  0.07434  0.73179  1.0000
  C   C138      1.0  0.09334  0.47201  0.95194  1.0000
  C   C139      1.0  0.26377  0.09177  0.97945  1.0000
  C   C140      1.0  0.00547  0.46641  0.98171  1.0000
  H   H134      1.0  0.26265  0.33795  0.65345  1.0000
  H   H135      1.0  0.45732  0.02853  0.97762  1.0000
  S   S54       1.0  0.11638  0.36279  0.98196  1.0000
  H   H136      1.0  0.17724  0.22085  0.65413  1.0000
  C   C141      1.0  0.47815  0.01975  0.98361  1.0000
  H   H137      1.0  0.28223  0.04800  0.98010  1.0000
  Fe  Fe27      1.0  0.29255  0.96540  0.01298  1.0000
  S   S55       1.0  0.32354  0.94922  0.03949  1.0000
  C   C142      1.0  0.29782  0.87294  0.98879  1.0000
  H   H138      1.0  0.09540  0.56223  0.98460  1.0000
  S   S56       1.0  0.23474  0.96753  0.29510  1.0000
  C   C143      1.0  0.27563  0.84151  0.00397  1.0000
  H   H139      1.0  0.02513  0.95964  0.26718  1.0000
  C   C144      1.0  0.00404  0.98732  0.21729  1.0000
  H   H140      1.0  0.27664  0.81365  0.03556  1.0000
  S   S57       1.0  0.19995  0.96212  0.23187  1.0000
  H   H141      1.0  0.09875  0.54419  0.01204  1.0000
  H   H142      1.0  0.14327  0.57173  0.99480  1.0000
  C   C145      1.0  0.24579  0.98482  0.15909  1.0000
  Fe  Fe28      1.0  0.14164  0.96167  0.23238  1.0000
  S   S58       1.0  0.08440  0.91539  0.21647  1.0000
  H   H143      1.0  0.21356  0.87609  0.02651  1.0000
  N   N12       1.0  0.28584  0.95514  0.24194  1.0000
  C   C146      1.0  0.24900  0.96652  0.13931  1.0000
  C   C147      1.0  0.03870  0.89450  0.23142  1.0000
  C   C148      1.0  0.47196  0.56310  0.98715  1.0000
  H   H144      1.0  0.26412  0.89457  0.25137  1.0000
  C   C149      1.0  0.27946  0.98773  0.12315  1.0000
  Fe  Fe29      1.0  0.21030  0.99017  0.26657  1.0000
  H   H145      1.0  0.38346  0.95931  0.98628  1.0000
  C   C150      1.0  0.29378  0.83743  0.02342  1.0000
  C   C151      1.0  0.11102  0.54960  0.99446  1.0000
  H   H146      1.0  0.22734  0.93578  0.13633  1.0000
  H   H147      1.0  0.22172  0.96822  0.17109  1.0000
  C   C152      1.0  0.26315  0.92103  0.25723  1.0000
  H   H148      1.0  0.30621  0.97701  0.18597  1.0000
  C   C153      1.0  0.14055  0.80059  0.99578  1.0000
  C   C154      1.0  0.16308  0.82190  0.01459  1.0000
  C   C155      1.0  0.19675  0.86007  0.01186  1.0000
  S   S59       1.0  0.28103  0.96317  0.09818  1.0000
  H   H149      1.0  0.15419  0.80888  0.03141  1.0000
  H   H150      1.0  0.06414  0.90299  0.26472  1.0000
  H   H151      1.0  0.45099  0.54800  0.00095  1.0000
  Fe  Fe30      1.0  0.31166  0.98697  0.06352  1.0000
  H   H152      1.0  0.22655  0.98746  0.07915  1.0000
  H   H153      1.0  0.34843  0.86159  0.04235  1.0000
  C   C156      1.0  0.33396  0.86428  0.02724  1.0000
  H   H154      1.0  0.27528  0.92740  0.27473  1.0000
  S   S60       1.0  0.14932  0.98374  0.26789  1.0000
  H   H155      1.0  0.01892  0.51575  0.03083  1.0000
  H   H156      1.0  0.24431  0.82103  0.00083  1.0000
  C   C157      1.0  0.99978  0.87272  0.26639  1.0000
  N   N13       1.0  0.02609  0.98487  0.23468  1.0000
  S   S61       1.0  0.09833  0.75255  0.00020  1.0000
  C   C158      1.0  0.03695  0.89169  0.25513  1.0000
  S   S62       1.0  0.25121  0.92494  0.98567  1.0000
  C   C159      1.0  0.35521  0.89545  0.01171  1.0000
  C   C160      1.0  0.30654  0.98154  0.20413  1.0000
  C   C161      1.0  0.28582  0.94935  0.21908  1.0000
  H   H157      1.0  0.23164  0.91403  0.25816  1.0000
  H   H158      1.0  0.26938  0.91977  0.21225  1.0000
  C   C162      1.0  0.01481  0.50960  0.01288  1.0000
  H   H159      1.0  0.38626  0.91659  0.01499  1.0000
  C   C163      1.0  0.20840  0.87736  0.99020  1.0000
  C   C164      1.0  0.00774  0.96275  0.25375  1.0000
  C   C165      1.0  0.00320  0.87927  0.21914  1.0000
  C   C166      1.0  0.30495  0.99268  0.25038  1.0000
  C   C167      1.0  0.01449  0.53801  0.99777  1.0000
  H   H160      1.0  0.30401  0.99748  0.26841  1.0000
  N   N14       1.0  0.10490  0.51270  0.98453  1.0000
  N   N15       1.0  0.33669  0.90010  0.99315  1.0000
  H   H161      1.0  0.07712  0.98475  0.22217  1.0000
  H   H162      1.0  0.01846  0.56564  0.00415  1.0000
  H   H163      1.0  0.00437  0.88118  0.20080  1.0000
  H   H164      1.0  0.19964  0.97789  0.10504  1.0000
  N   N16       1.0  0.13482  0.77922  0.56621  1.0000
  C   C168      1.0  0.00857  0.72539  0.61642  1.0000
  C   C169      1.0  0.26676  0.96735  0.33697  1.0000
  H   H165      1.0  0.09256  0.72340  0.58152  1.0000
  S   S63       1.0  0.01493  0.73216  0.52805  1.0000
  H   H166      1.0  0.23011  0.84656  0.53114  1.0000
  Fe  Fe31      1.0  0.05574  0.71265  0.51292  1.0000
  S   S64       1.0  0.11787  0.74878  0.49712  1.0000
  S   S65       1.0  0.04723  0.66990  0.54151  1.0000
  C   C170      1.0  0.20462  0.97198  0.39697  1.0000
  S   S66       1.0  0.23585  0.93555  0.49048  1.0000
  S   S67       1.0  0.32249  0.96693  0.44023  1.0000
  H   H167      1.0  0.13653  0.73071  0.55092  1.0000
  H   H168      1.0  0.19783  0.89848  0.44360  1.0000
  H   H169      1.0  0.05216  0.53415  0.45600  1.0000
  H   H170      1.0  0.48807  0.50200  0.44978  1.0000
  C   C171      1.0  0.20390  0.82767  0.54140  1.0000
  H   H171      1.0  0.19397  0.88030  0.40302  1.0000
  C   C172      1.0  0.02682  0.76628  0.61221  1.0000
  C   C173      1.0  0.15174  0.81952  0.56711  1.0000
  Fe  Fe32      1.0  0.29449  0.97603  0.47159  1.0000
  C   C174      1.0  0.14862  0.80088  0.49380  1.0000
  C   C175      1.0  0.18561  0.81597  0.48260  1.0000
  C   C176      1.0  0.21246  0.85710  0.48104  1.0000
  C   C177      1.0  0.20262  0.88360  0.49082  1.0000
  C   C178      1.0  0.16541  0.86856  0.50174  1.0000
  C   C179      1.0  0.13846  0.82744  0.50319  1.0000
  H   H172      1.0  0.19377  0.79563  0.47534  1.0000
  H   H173      1.0  0.24098  0.86821  0.47262  1.0000
  H   H174      1.0  0.15748  0.88885  0.50930  1.0000
  H   H175      1.0  0.11018  0.81627  0.51188  1.0000
  C   C180      1.0  0.28272  0.98236  0.35854  1.0000
  C   C181      1.0  0.15108  0.76261  0.55269  1.0000
  H   H176      1.0  0.20775  0.99307  0.38377  1.0000
  H   H177      1.0  0.20637  0.96342  0.45372  1.0000
  H   H178      1.0  0.03665  0.57683  0.48003  1.0000
  H   H179      1.0  0.05007  0.82417  0.62687  1.0000
  C   C182      1.0  0.25461  0.98796  0.32217  1.0000
  H   H180      1.0  0.19798  0.77324  0.52897  1.0000
  H   H181      1.0  0.13797  0.83262  0.57716  1.0000
  H   H182      1.0  0.07206  0.75184  0.56936  1.0000
  C   C183      1.0  0.19720  0.90863  0.40758  1.0000
  C   C184      1.0  0.09778  0.75393  0.57881  1.0000
  C   C185      1.0  0.02218  0.54529  0.48346  1.0000
  C   C186      1.0  0.03557  0.79267  0.63039  1.0000
  C   C187      1.0  0.03087  0.52088  0.46980  1.0000
  H   H183      1.0  0.09842  0.76589  0.59591  1.0000
  H   H184      1.0  0.43815  0.98662  0.50458  1.0000
  H   H185      1.0  0.19951  0.87631  0.55503  1.0000
  C   C188      1.0  0.19939  0.91880  0.43034  1.0000
  C   C189      1.0  0.18605  0.78655  0.54030  1.0000
  C   C190      1.0  0.18659  0.84436  0.55479  1.0000
  H   H186      1.0  0.19862  0.92806  0.37294  1.0000
  H   H187      1.0  0.29178  0.96608  0.36968  1.0000
  H   H188      1.0  0.03429  0.77758  0.59499  1.0000
  C   C191      1.0  0.20426  0.95570  0.43596  1.0000
  C   C192      1.0  0.19963  0.93527  0.39074  1.0000
  H   H189      1.0  0.26382  0.93953  0.33172  1.0000
  Fe  Fe33      1.0  0.00344  0.68653  0.55563  1.0000
  S   S68       1.0  0.00801  0.66492  0.49176  1.0000
  C   C193      1.0  0.49487  0.99039  0.51180  1.0000
  N   N17       1.0  0.20700  0.98183  0.41932  1.0000
  H   H190      1.0  0.48801  0.98308  0.52962  1.0000
  C   C194      1.0  0.46635  0.99228  0.49760  1.0000
  C   C195      1.0  0.49570  0.50348  0.46753  1.0000
  H   H191      1.0  0.49796  0.58007  0.45055  1.0000
  H   H192      1.0  0.49864  0.58198  0.49099  1.0000
  S   S69       1.0  0.06442  0.81923  0.74252  1.0000
  Fe  Fe34      1.0  0.02272  0.80915  0.71326  1.0000
  H   H193      1.0  0.09019  0.90100  0.67457  1.0000
  Fe  Fe35      1.0  0.05289  0.86834  0.75237  1.0000
  S   S70       1.0  0.10199  0.92712  0.76511  1.0000
  H   H194      1.0  0.19491  0.99383  0.72604  1.0000
  C   C196      1.0  0.12953  0.96247  0.68259  1.0000
  S   S71       1.0  0.07474  0.68556  0.94575  1.0000
  H   H195      1.0  0.48448  0.55405  0.93099  1.0000
  S   S72       1.0  0.06297  0.73774  0.88912  1.0000
  N   N18       1.0  0.15633  0.93333  0.71752  1.0000
  C   C197      1.0  0.01041  0.69994  0.85351  1.0000
  H   H196      1.0  0.13547  0.80185  0.95948  1.0000
  H   H197      1.0  0.04124  0.83680  0.86693  1.0000
  H   H198      1.0  0.19609  0.91455  0.72917  1.0000
  C   C198      1.0  0.01588  0.73189  0.81640  1.0000
  H   H199      1.0  0.19486  0.86892  0.95453  1.0000
  H   H200      1.0  0.33901  0.94427  0.97051  1.0000
  H   H201      1.0  0.28330  0.87613  0.97383  1.0000
  C   C199      1.0  0.00982  0.53090  0.97444  1.0000
  H   H202      1.0  0.01822  0.78799  0.89871  1.0000
  C   C200      1.0  0.08864  0.97321  0.73427  1.0000
  C   C201      1.0  0.04433  0.73390  0.86109  1.0000
  S   S73       1.0  0.02312  0.73183  0.94872  1.0000
  S   S74       1.0  0.03867  0.81374  0.67525  1.0000
  C   C202      1.0  0.10985  0.97229  0.75321  1.0000
  C   C203      1.0  0.06410  0.76659  0.84610  1.0000
  C   C204      1.0  0.18613  0.85594  0.97138  1.0000
  Fe  Fe36      1.0  0.03845  0.70089  0.92196  1.0000
  H   H203      1.0  0.06516  0.94594  0.72748  1.0000
  C   C205      1.0  0.12760  0.90757  0.70315  1.0000
  C   C206      1.0  0.11354  0.92170  0.68561  1.0000
  S   S75       1.0  0.00138  0.82980  0.77546  1.0000
  H   H204      1.0  0.06524  0.79129  0.81276  1.0000
  H   H205      1.0  0.14707  0.88908  0.74230  1.0000
  C   C207      1.0  0.35883  0.93373  0.97748  1.0000
  C   C208      1.0  0.02570  0.77868  0.65299  1.0000
  Fe  Fe37      1.0  0.05577  0.71308  0.97279  1.0000
  H   H206      1.0  0.09052  0.79291  0.85170  1.0000
  C   C209      1.0  0.49090  0.56649  0.94785  1.0000
  C   C210      1.0  0.00065  0.78099  0.88337  1.0000
  C   C211      1.0  0.04980  0.76581  0.82399  1.0000
  C   C212      1.0  0.00671  0.73780  0.65715  1.0000
  S   S76       1.0  0.01522  0.86115  0.72215  1.0000
  H   H207      1.0  0.11503  0.87581  0.70527  1.0000
  H   H208      1.0  0.43454  0.52180  0.96187  1.0000
  C   C213      1.0  0.09781  0.50647  0.96179  1.0000
  C   C214      1.0  0.17116  0.91806  0.73561  1.0000
  S   S77       1.0  0.01034  0.56600  0.95425  1.0000
  H   H209      1.0  0.18128  0.93820  0.75037  1.0000
  C   C215      1.0  0.15946  0.98855  0.69698  1.0000
  H   H210      1.0  0.09475  0.52782  0.95124  1.0000
  C   C216      1.0  0.17255  0.97338  0.71448  1.0000
  H   H211      1.0  0.11848  0.97388  0.66930  1.0000
  H   H212      1.0  0.37157  0.92495  0.96335  1.0000
  Fe  Fe38      1.0  0.00948  0.77987  0.76367  1.0000
  S   S78       1.0  0.00007  0.65532  0.98279  1.0000
  C   C217      1.0  0.01393  0.80862  0.86540  1.0000
  Fe  Fe39      1.0  0.01761  0.62877  0.95441  1.0000
  H   H213      1.0  0.00366  0.81928  0.83071  1.0000
  C   C218      1.0  0.15238  0.81785  0.97412  1.0000
  C   C219      1.0  0.46271  0.54843  0.96520  1.0000
  H   H214      1.0  0.00696  0.99422  0.77643  1.0000
  H   H215      1.0  0.99905  0.72640  0.67437  1.0000
  H   H216      1.0  0.75672  0.14546  0.02912  1.0000
  H   H217      1.0  0.98764  0.31677  0.11014  1.0000
  N   N19       1.0  0.86905  0.14112  0.21443  1.0000
  H   H218      1.0  0.86035  0.06105  0.18752  1.0000
  H   H219      1.0  0.89426  0.19842  0.01646  1.0000
  C   C220      1.0  0.87361  0.18469  0.00271  1.0000
  C   C221      1.0  0.84054  0.14620  0.00553  1.0000
  H   H220      1.0  0.89872  0.20050  0.20121  1.0000
  S   S79       1.0  0.96237  0.32093  0.03560  1.0000
  C   C222      1.0  0.85794  0.10243  0.21053  1.0000
  S   S80       1.0  0.96129  0.20779  0.24688  1.0000
  H   H221      1.0  0.82479  0.13989  0.23614  1.0000
  H   H222      1.0  0.71343  0.11504  0.99911  1.0000
  Fe  Fe40      1.0  0.95886  0.14919  0.24288  1.0000
  S   S81       1.0  0.90494  0.09260  0.25518  1.0000
  C   C223      1.0  0.78334  0.20889  0.98474  1.0000
  C   C224      1.0  0.89389  0.04737  0.24273  1.0000
  C   C225      1.0  0.90924  0.04655  0.22140  1.0000
  H   H223      1.0  0.85514  0.01201  0.27023  1.0000
  H   H224      1.0  0.92990  0.07396  0.21282  1.0000
  H   H225      1.0  0.86518  0.13818  0.25044  1.0000
  H   H226      1.0  0.96574  0.24181  0.30595  1.0000
  H   H227      1.0  0.87306  0.18392  0.23838  1.0000
  C   C226      1.0  0.85737  0.15136  0.23585  1.0000
  C   C227      1.0  0.98283  0.28984  0.14331  1.0000
  C   C228      1.0  0.90055  0.15997  0.17768  1.0000
  H   H228      1.0  0.91740  0.18289  0.16503  1.0000
  C   C229      1.0  0.88983  0.16974  0.19824  1.0000
  C   C230      1.0  0.99003  0.29411  0.11964  1.0000
  Fe  Fe41      1.0  0.96790  0.29509  0.00267  1.0000
  C   C231      1.0  0.86843  0.09166  0.19022  1.0000
  C   C232      1.0  0.80768  0.20410  0.02828  1.0000
  H   H229      1.0  0.84168  0.07976  0.22343  1.0000
  H   H230      1.0  0.89872  0.11290  0.15800  1.0000
  H   H231      1.0  0.81768  0.20136  0.04503  1.0000
  C   C233      1.0  0.77321  0.17260  0.01918  1.0000
  H   H232      1.0  0.83607  0.13055  0.02153  1.0000
  C   C234      1.0  0.88999  0.12071  0.17374  1.0000
  C   C235      1.0  0.86719  0.01154  0.25374  1.0000
  S   S82       1.0  0.76861  0.08234  0.99383  1.0000
  Fe  Fe42      1.0  0.99311  0.22376  0.21281  1.0000
  H   H233      1.0  0.85822  0.26217  0.02149  1.0000
  S   S83       1.0  0.98003  0.25896  0.18613  1.0000
  N   N20       1.0  0.76157  0.17525  0.99762  1.0000
  C   C236      1.0  0.98704  0.26141  0.15613  1.0000
  S   S84       1.0  0.98515  0.16324  0.20767  1.0000
  C   C237      1.0  0.99730  0.23636  0.14488  1.0000
  C   C238      1.0  0.83033  0.23829  0.01514  1.0000
  C   C239      1.0  0.81809  0.24081  0.99325  1.0000
  H   H234      1.0  0.90763  0.00979  0.19394  1.0000
  H   H235      1.0  0.97469  0.30926  0.15179  1.0000
  C   C240      1.0  0.81265  0.12830  0.98809  1.0000
  H   H236      1.0  0.70246  0.15004  0.98531  1.0000
  C   C241      1.0  0.72585  0.14195  0.98797  1.0000
  C   C242      1.0  0.89664  0.01017  0.21077  1.0000
  C   C243      1.0  0.53353  0.99815  0.99869  1.0000
  Fe  Fe43      1.0  0.97611  0.29884  0.46681  1.0000
  S   S85       1.0  0.93738  0.24787  0.49122  1.0000
  S   S86       1.0  0.95667  0.33027  0.44211  1.0000
  Fe  Fe44      1.0  0.70333  0.02990  0.55075  1.0000
  C   C244      1.0  0.98491  0.46315  0.49174  1.0000
  H   H237      1.0  0.85709  0.12896  0.45153  1.0000
  C   C245      1.0  0.83989  0.18336  0.41261  1.0000
  H   H238      1.0  0.50127  0.41435  0.51316  1.0000
  C   C246      1.0  0.99125  0.28528  0.35819  1.0000
  Fe  Fe45      1.0  0.71748  0.06830  0.50303  1.0000
  S   S87       1.0  0.75209  0.12662  0.48317  1.0000
  S   S88       1.0  0.67963  0.06512  0.53273  1.0000
  C   C247      1.0  0.88694  0.21266  0.48626  1.0000
  C   C248      1.0  0.86241  0.22226  0.47359  1.0000
  C   C249      1.0  0.82119  0.19536  0.47264  1.0000
  C   C250      1.0  0.80429  0.15840  0.48393  1.0000
  C   C251      1.0  0.82912  0.14812  0.49576  1.0000
  C   C252      1.0  0.87023  0.17528  0.49703  1.0000
  H   H239      1.0  0.87491  0.25100  0.46526  1.0000
  H   H240      1.0  0.80220  0.20344  0.46331  1.0000
  H   H241      1.0  0.81652  0.11964  0.50437  1.0000
  H   H242      1.0  0.88904  0.16760  0.50684  1.0000
  Fe  Fe46      1.0  0.99488  0.32091  0.41655  1.0000
  H   H243      1.0  0.93604  0.25456  0.33997  1.0000
  C   C253      1.0  0.51264  0.08775  0.50375  1.0000
  H   H244      1.0  0.88607  0.23463  0.39470  1.0000
  C   C254      1.0  0.86358  0.15159  0.43866  1.0000
  C   C255      1.0  0.97594  0.48751  0.50527  1.0000
  H   H245      1.0  0.80138  0.13237  0.43354  1.0000
  S   S89       1.0  0.74409  0.03702  0.52173  1.0000
  C   C256      1.0  0.87927  0.21092  0.40694  1.0000
  C   C257      1.0  0.51137  0.00838  0.46582  1.0000
  H   H246      1.0  0.53186  0.07835  0.51170  1.0000
  C   C258      1.0  0.76292  0.05664  0.62741  1.0000
  H   H247      1.0  0.96109  0.18748  0.43249  1.0000
  C   C259      1.0  0.51613  0.09649  0.48047  1.0000
  N   N21       1.0  0.90212  0.17854  0.43282  1.0000
  C   C260      1.0  0.96758  0.26469  0.33953  1.0000
  C   C261      1.0  0.93507  0.17721  0.44415  1.0000
  C   C262      1.0  0.91017  0.20809  0.41731  1.0000
  N   N22       1.0  0.83881  0.20897  0.53835  1.0000
  C   C263      1.0  0.86862  0.20498  0.54816  1.0000
  C   C264      1.0  0.80021  0.17858  0.53954  1.0000
  C   C265      1.0  0.86014  0.16955  0.55923  1.0000
  C   C266      1.0  0.79074  0.14284  0.55050  1.0000
  C   C267      1.0  0.82089  0.13833  0.56039  1.0000
  C   C268      1.0  0.84806  0.24665  0.52738  1.0000
  H   H248      1.0  0.89930  0.22893  0.54698  1.0000
  H   H249      1.0  0.77657  0.18138  0.53147  1.0000
  H   H250      1.0  0.88386  0.16621  0.56672  1.0000
  H   H251      1.0  0.76026  0.11858  0.55115  1.0000
  H   H252      1.0  0.81371  0.11055  0.56886  1.0000
  H   H253      1.0  0.84547  0.26628  0.53990  1.0000
  H   H254      1.0  0.87876  0.26203  0.52008  1.0000
  H   H255      1.0  0.82755  0.24174  0.51306  1.0000
  H   H256      1.0  0.81564  0.18551  0.40491  1.0000
  H   H257      1.0  0.94457  0.19683  0.45910  1.0000
  C   C269      1.0  0.73761  0.03198  0.61036  1.0000
  H   H258      1.0  0.94068  0.22977  0.41287  1.0000
  H   H259      1.0  0.53804  0.09345  0.47059  1.0000
  S   S90       1.0  0.96842  0.29443  0.38196  1.0000
  C   C270      1.0  0.83189  0.15337  0.42852  1.0000
  H   H260      1.0  0.56819  0.01249  0.47303  1.0000
  S   S91       1.0  0.73110  0.05441  0.58539  1.0000
  H   H261      1.0  0.95440  0.47421  0.51895  1.0000
  H   H262      1.0  0.78013  0.08830  0.62439  1.0000
  S   S92       1.0  0.66831  0.01286  0.48738  1.0000
  H   H263      1.0  0.51294  0.37925  0.52558  1.0000
  H   H264      1.0  0.92629  0.14667  0.44995  1.0000
  C   C271      1.0  0.61071  0.01465  0.58031  1.0000
  H   H265      1.0  0.65003  0.06733  0.59836  1.0000
  C   C272      1.0  0.76544  0.04091  0.64867  1.0000
  C   C273      1.0  0.63499  0.03523  0.59856  1.0000
  H   H266      1.0  0.60669  0.03046  0.56619  1.0000
  Fe  Fe47      1.0  0.63179  0.00758  0.51851  1.0000
  H   H267      1.0  0.97026  0.43159  0.49511  1.0000
  C   C274      1.0  0.54003  0.00692  0.48006  1.0000
  C   C275      1.0  0.98437  0.25740  0.32016  1.0000
  H   H268      1.0  0.52559  0.12983  0.43973  1.0000
  H   H269      1.0  0.51804  0.01518  0.44794  1.0000
  H   H270      1.0  0.67460  0.02002  0.64574  1.0000
  N   N23       1.0  0.64027  0.01525  0.61624  1.0000
  H   H271      1.0  0.69123  0.06497  0.62996  1.0000
  C   C276      1.0  0.66408  0.03740  0.63574  1.0000
  H   H272      1.0  0.64620  0.04515  0.64707  1.0000
  H   H273      1.0  0.73341  0.13354  0.97154  1.0000
  S   S93       1.0  0.79525  0.04354  0.73799  1.0000
  H   H274      1.0  0.82352  0.06240  0.79495  1.0000
  C   C277      1.0  0.96387  0.11885  0.75444  1.0000
  Fe  Fe48      1.0  0.86088  0.06612  0.73199  1.0000
  S   S94       1.0  0.91063  0.12985  0.72857  1.0000
  Fe  Fe49      1.0  0.71990  0.04146  0.96936  1.0000
  C   C278      1.0  0.97851  0.01626  0.75387  1.0000
  S   S95       1.0  0.68966  0.05752  0.94217  1.0000
  H   H275      1.0  0.85104  0.12171  0.76970  1.0000
  N   N24       1.0  0.87817  0.08120  0.81228  1.0000
  H   H276      1.0  0.98827  0.19451  0.71682  1.0000
  H   H277      1.0  0.85355  0.01905  0.81589  1.0000
  C   C279      1.0  0.74201  0.00028  0.65335  1.0000
  C   C280      1.0  0.81890  0.14881  0.96745  1.0000
  H   H278      1.0  0.92192  0.17383  0.77289  1.0000
  C   C281      1.0  0.61366  0.00558  0.87849  1.0000
  S   S96       1.0  0.91633  0.25651  0.97912  1.0000
  S   S97       1.0  0.57683  0.02014  0.95742  1.0000
  H   H279      1.0  0.72711  0.05830  0.83826  1.0000
  H   H280      1.0  0.63861  0.03218  0.87122  1.0000
  C   C282      1.0  0.99205  0.17644  0.72957  1.0000
  H   H281      1.0  0.96505  0.16575  0.80105  1.0000
  C   C283      1.0  0.86960  0.11897  0.78254  1.0000
  C   C284      1.0  0.87894  0.20586  0.98241  1.0000
  C   C285      1.0  0.86142  0.04526  0.82656  1.0000
  C   C286      1.0  0.95867  0.14173  0.73778  1.0000
  H   H282      1.0  0.88240  0.04682  0.83984  1.0000
  H   H283      1.0  0.93670  0.10595  0.82590  1.0000
  C   C287      1.0  0.85434  0.08543  0.79674  1.0000
  C   C288      1.0  0.90945  0.14831  0.78436  1.0000
  C   C289      1.0  0.91747  0.10962  0.81399  1.0000
  N   N25       1.0  0.58919  0.00822  0.89423  1.0000
  C   C290      1.0  0.98461  0.04518  0.73753  1.0000
  H   H284      1.0  0.77468  0.21059  0.96747  1.0000
  H   H285      1.0  0.62198  0.05915  0.91406  1.0000
  C   C291      1.0  0.50949  0.02409  0.96921  1.0000
  H   H286      1.0  0.83389  0.04054  0.83528  1.0000
  H   H287      1.0  0.75168  0.03952  0.80430  1.0000
  H   H288      1.0  0.93848  0.09250  0.76119  1.0000
  H   H289      1.0  0.78444  0.06039  0.66174  1.0000
  C   C292      1.0  0.93366  0.14367  0.80013  1.0000
  C   C293      1.0  0.59745  0.04740  0.90153  1.0000
  H   H290      1.0  0.79791  0.13536  0.95381  1.0000
  S   S98       1.0  0.86408  0.02428  0.75701  1.0000
  H   H291      1.0  0.95895  0.04400  0.72940  1.0000
  S   S99       1.0  0.85090  0.02796  0.70195  1.0000
  H   H292      1.0  0.85577  0.20347  0.94889  1.0000
  C   C294      1.0  0.85179  0.18742  0.96470  1.0000
  Fe  Fe50      1.0  0.63091  0.00978  0.95698  1.0000
  S   S100      1.0  0.70741  0.02767  0.88394  1.0000
  C   C295      1.0  0.73275  0.03382  0.83946  1.0000
  H   H293      1.0  0.51215  0.03615  0.95225  1.0000
  H   H294      1.0  0.57101  0.04599  0.90986  1.0000
  C   C296      1.0  0.53760  0.01348  0.97658  1.0000
  H   H295      1.0  0.60619  0.06839  0.88687  1.0000
  Fe  Fe51      1.0  0.69140  0.00966  0.92166  1.0000
  Fe  Fe52      1.0  0.78580  0.00130  0.70940  1.0000
  C   C297      1.0  0.74690  0.02333  0.82012  1.0000
  C   C298      1.0  0.72579  0.01301  0.86027  1.0000
  H   H296      1.0  0.83654  0.26662  0.98261  1.0000
  Fe  Fe53      1.0  0.79779  0.99827  0.76129  1.0000
  Fe  Fe54      1.0  0.69206  0.70268  0.05721  1.0000
  S   S101      1.0  0.74001  0.73234  0.03070  1.0000
  S   S102      1.0  0.70459  0.74077  0.08897  1.0000
  Fe  Fe55      1.0  0.63952  0.63375  0.02443  1.0000
  C   C299      1.0  0.65180  0.79477  0.99367  1.0000
  S   S103      1.0  0.57691  0.57740  0.02365  1.0000
  Fe  Fe56      1.0  0.73124  0.67207  0.02361  1.0000
  C   C300      1.0  0.88529  0.67328  0.99671  1.0000
  Fe  Fe57      1.0  0.69110  0.71826  0.00587  1.0000
  C   C301      1.0  0.66267  0.75235  0.22493  1.0000
  S   S104      1.0  0.68488  0.64250  0.05146  1.0000
  S   S105      1.0  0.64315  0.69224  0.03256  1.0000
  Fe  Fe58      1.0  0.79557  0.78397  0.21532  1.0000
  S   S106      1.0  0.80388  0.76833  0.25140  1.0000
  S   S107      1.0  0.77097  0.73629  0.18794  1.0000
  Fe  Fe59      1.0  0.82991  0.87118  0.22632  1.0000
  S   S108      1.0  0.83986  0.86289  0.26291  1.0000
  S   S109      1.0  0.85338  0.92955  0.20729  1.0000
  Fe  Fe60      1.0  0.86333  0.82467  0.24990  1.0000
  S   S110      1.0  0.91809  0.83408  0.26869  1.0000
  Fe  Fe61      1.0  0.77997  0.80731  0.26246  1.0000
  S   S111      1.0  0.73679  0.79354  0.29238  1.0000
  S   S112      1.0  0.85752  0.83650  0.21321  1.0000
  S   S113      1.0  0.76726  0.81923  0.22648  1.0000
  H   H297      1.0  0.66163  0.73590  0.18999  1.0000
  H   H298      1.0  0.80704  0.73037  0.06193  1.0000
  N   N26       1.0  0.80992  0.73538  0.09790  1.0000
  H   H299      1.0  0.65169  0.77255  0.22132  1.0000
  C   C302      1.0  0.96426  0.85737  0.25407  1.0000
  C   C303      1.0  0.73997  0.91586  0.00765  1.0000
  H   H300      1.0  0.94486  0.96960  0.20515  1.0000
  C   C304      1.0  0.66822  0.73185  0.20739  1.0000
  S   S114      1.0  0.68568  0.65965  0.99627  1.0000
  C   C305      1.0  0.86980  0.97434  0.22173  1.0000
  H   H301      1.0  0.68647  0.79951  0.05529  1.0000
  H   H302      1.0  0.73098  0.67963  0.22536  1.0000
  H   H303      1.0  0.83477  0.94760  0.25195  1.0000
  H   H304      1.0  0.72513  0.68296  0.25516  1.0000
  C   C306      1.0  0.54428  0.53852  0.00495  1.0000
  H   H305      1.0  0.69463  0.71851  0.26874  1.0000
  H   H306      1.0  0.67784  0.85416  0.04872  1.0000
  H   H307      1.0  0.79529  0.68548  0.07670  1.0000
  H   H308      1.0  0.63823  0.76978  0.00536  1.0000
  H   H309      1.0  0.93904  0.84932  0.22074  1.0000
  H   H310      1.0  0.68451  0.64479  0.23926  1.0000
  H   H311      1.0  0.51739  0.60532  0.00883  1.0000
  C   C307      1.0  0.92223  0.55071  0.98550  1.0000
  C   C308      1.0  0.88324  0.58407  0.00761  1.0000
  H   H312      1.0  0.78175  0.90583  0.98887  1.0000
  C   C309      1.0  0.72068  0.73762  0.11691  1.0000
  C   C310      1.0  0.73218  0.76970  0.13162  1.0000
  C   C311      1.0  0.74707  0.76962  0.15348  1.0000
  C   C312      1.0  0.75041  0.73723  0.16102  1.0000
  C   C313      1.0  0.73795  0.70470  0.14656  1.0000
  C   C314      1.0  0.72335  0.70490  0.12463  1.0000
  H   H313      1.0  0.73013  0.79512  0.12592  1.0000
  H   H314      1.0  0.75642  0.79487  0.16435  1.0000
  H   H315      1.0  0.74013  0.67933  0.15222  1.0000
  H   H316      1.0  0.71421  0.67977  0.11371  1.0000
  H   H317      1.0  0.81745  0.69040  0.11424  1.0000
  H   H318      1.0  0.84401  0.72817  0.14960  1.0000
  C   C315      1.0  0.82854  0.79398  0.11939  1.0000
  H   H319      1.0  0.85040  0.79443  0.15310  1.0000
  C   C316      1.0  0.85832  0.67369  0.01267  1.0000
  H   H320      1.0  0.86625  0.67800  0.03041  1.0000
  C   C317      1.0  0.96248  0.96788  0.21894  1.0000
  C   C318      1.0  0.96625  0.94304  0.25598  1.0000
  C   C319      1.0  0.70909  0.67606  0.23875  1.0000
  C   C320      1.0  0.81331  0.77189  0.09969  1.0000
  N   N27       1.0  0.69315  0.70250  0.23407  1.0000
  H   H321      1.0  0.61589  0.81948  0.00493  1.0000
  C   C321      1.0  0.85565  0.97505  0.24343  1.0000
  H   H322      1.0  0.68746  0.69076  0.19861  1.0000
  H   H323      1.0  0.66820  0.76330  0.26093  1.0000
  C   C322      1.0  0.68710  0.72191  0.25144  1.0000
  C   C323      1.0  0.96613  0.86118  0.23042  1.0000
  H   H324      1.0  0.91108  0.57887  0.03808  1.0000
  C   C324      1.0  0.68309  0.70650  0.21236  1.0000
  H   H325      1.0  0.76003  0.70269  0.07687  1.0000
  C   C325      1.0  0.82104  0.71975  0.11544  1.0000
  C   C326      1.0  0.83626  0.74099  0.13542  1.0000
  H   H326      1.0  0.80289  0.78344  0.08613  1.0000
  C   C327      1.0  0.71060  0.80836  0.04244  1.0000
  C   C328      1.0  0.79223  0.71234  0.07744  1.0000
  H   H327      1.0  0.83008  0.82239  0.12104  1.0000
  C   C329      1.0  0.67188  0.74717  0.24713  1.0000
  C   C330      1.0  0.83998  0.77831  0.13737  1.0000
  H   H328      1.0  0.70009  0.78431  0.02984  1.0000
  C   C331      1.0  0.94359  0.94573  0.23844  1.0000
  C   C332      1.0  0.50956  0.59563  0.99147  1.0000
  S   S115      1.0  0.78782  0.66765  0.02698  1.0000
  H   H329      1.0  0.91139  0.93031  0.23981  1.0000
  H   H330      1.0  0.74609  0.94226  0.99797  1.0000
  C   C333      1.0  0.90743  0.57370  0.01997  1.0000
  C   C334      1.0  0.82127  0.66867  0.00589  1.0000
  C   C335      1.0  0.74992  0.86018  0.01434  1.0000
  H   H331      1.0  0.91368  0.67732  0.00219  1.0000
  H   H332      1.0  0.76416  0.84338  0.00954  1.0000
  H   H333      1.0  0.73688  0.81054  0.05128  1.0000
  C   C336      1.0  0.50681  0.50871  0.01320  1.0000
  H   H334      1.0  0.55463  0.98976  0.00478  1.0000
  C   C337      1.0  0.71060  0.90111  0.02453  1.0000
  N   N28       1.0  0.72110  0.84595  0.03090  1.0000
  H   H335      1.0  0.69376  0.91595  0.02785  1.0000
  H   H336      1.0  0.94557  0.54815  0.01831  1.0000
  C   C338      1.0  0.75992  0.89541  0.00255  1.0000
  C   C339      1.0  0.70153  0.86595  0.03611  1.0000
  H   H337      1.0  0.76368  0.73795  0.30615  1.0000
  H   H338      1.0  0.99856  0.86982  0.28469  1.0000
  C   C340      1.0  0.92684  0.55660  0.00891  1.0000
  H   H339      1.0  0.86776  0.59720  0.01599  1.0000
  H   H340      1.0  0.82980  0.85311  0.31426  1.0000
  H   H341      1.0  0.86651  0.81646  0.30932  1.0000
  C   C341      1.0  0.63913  0.82296  0.99334  1.0000
  H   H342      1.0  0.49984  0.98224  0.03015  1.0000
  H   H343      1.0  0.95169  0.92483  0.27091  1.0000
  H   H344      1.0  0.57687  0.66276  0.99423  1.0000
  S   S116      1.0  0.66126  0.99713  0.98563  1.0000
  H   H345      1.0  0.49941  0.50846  0.03093  1.0000
  C   C342      1.0  0.50224  0.99387  0.01310  1.0000
  C   C343      1.0  0.87941  0.57782  0.98422  1.0000
  Fe  Fe62      1.0  0.69254  0.69107  0.42120  1.0000
  S   S117      1.0  0.72317  0.73472  0.44942  1.0000
  S   S118      1.0  0.72144  0.70012  0.38570  1.0000
  Fe  Fe63      1.0  0.62672  0.62885  0.45400  1.0000
  S   S119      1.0  0.65382  0.66860  0.48373  1.0000
  S   S120      1.0  0.56657  0.56973  0.45426  1.0000
  Fe  Fe64      1.0  0.66133  0.71862  0.46088  1.0000
  S   S121      1.0  0.63604  0.75536  0.47589  1.0000
  Fe  Fe65      1.0  0.71368  0.68146  0.47000  1.0000
  S   S122      1.0  0.75873  0.68559  0.49646  1.0000
  S   S123      1.0  0.63106  0.67836  0.43140  1.0000
  S   S124      1.0  0.68619  0.63834  0.44155  1.0000
  H   H346      1.0  0.51690  0.62811  0.50528  1.0000
  S   S125      1.0  0.92060  0.68095  0.48400  1.0000
  S   S126      1.0  0.95208  0.63646  0.53726  1.0000
  H   H347      1.0  0.62641  0.95892  0.63019  1.0000
  S   S127      1.0  0.71454  0.94106  0.49282  1.0000
  H   H348      1.0  0.97752  0.56054  0.42645  1.0000
  H   H349      1.0  0.90079  0.56051  0.51091  1.0000
  C   C344      1.0  0.51164  0.61211  0.44996  1.0000
  C   C345      1.0  0.53323  0.53381  0.47472  1.0000
  C   C346      1.0  0.54239  0.53507  0.49778  1.0000
  H   H350      1.0  0.57104  0.55793  0.50371  1.0000
  C   C347      1.0  0.65772  0.80736  0.47915  1.0000
  C   C348      1.0  0.63578  0.82187  0.49052  1.0000
  C   C349      1.0  0.65238  0.86269  0.49460  1.0000
  C   C350      1.0  0.69119  0.88952  0.48732  1.0000
  C   C351      1.0  0.71300  0.87500  0.47579  1.0000
  C   C352      1.0  0.69640  0.83418  0.47168  1.0000
  H   H351      1.0  0.60584  0.80140  0.49639  1.0000
  H   H352      1.0  0.63527  0.87340  0.50348  1.0000
  H   H353      1.0  0.74302  0.89555  0.47004  1.0000
  H   H354      1.0  0.71363  0.82349  0.46293  1.0000
  C   C353      1.0  0.80338  0.68372  0.49261  1.0000
  C   C354      1.0  0.81725  0.68117  0.47113  1.0000
  C   C355      1.0  0.85312  0.68038  0.46890  1.0000
  C   C356      1.0  0.87558  0.68205  0.48805  1.0000
  C   C357      1.0  0.86166  0.68453  0.50954  1.0000
  C   C358      1.0  0.82585  0.68546  0.51176  1.0000
  H   H355      1.0  0.80036  0.67976  0.45624  1.0000
  H   H356      1.0  0.86353  0.67844  0.45220  1.0000
  H   H357      1.0  0.87849  0.68580  0.52444  1.0000
  H   H358      1.0  0.81543  0.68736  0.52847  1.0000
  C   C359      1.0  0.70934  0.76849  0.33619  1.0000
  C   C360      1.0  0.70517  0.74800  0.35691  1.0000
  C   C361      1.0  0.72201  0.72370  0.35938  1.0000
  C   C362      1.0  0.74251  0.71984  0.34071  1.0000
  H   H359      1.0  0.68931  0.75135  0.37104  1.0000
  H   H360      1.0  0.75537  0.70089  0.34228  1.0000
  C   C363      1.0  0.91982  0.53401  0.47406  1.0000
  N   N29       1.0  0.52549  0.63356  0.46935  1.0000
  C   C364      1.0  0.73088  0.76554  0.31777  1.0000
  C   C365      1.0  0.93045  0.59569  0.45952  1.0000
  S   S128      1.0  0.65313  0.97146  0.53872  1.0000
  C   C366      1.0  0.95329  0.59418  0.44158  1.0000
  H   H361      1.0  0.86433  0.77127  0.33994  1.0000
  C   C367      1.0  0.51452  0.50650  0.51326  1.0000
  N   N30       1.0  0.91472  0.56617  0.47571  1.0000
  C   C368      1.0  0.62192  0.97476  0.61627  1.0000
  C   C369      1.0  0.59776  0.95326  0.59816  1.0000
  H   H362      1.0  0.53968  0.68772  0.41170  1.0000
  N   N31       1.0  0.76533  0.79113  0.51203  1.0000
  C   C370      1.0  0.77069  0.82848  0.51391  1.0000
  C   C371      1.0  0.73903  0.83391  0.52040  1.0000
  H   H363      1.0  0.79941  0.85436  0.51023  1.0000
  H   H364      1.0  0.74303  0.86350  0.52149  1.0000
  H   H365      1.0  0.69633  0.78733  0.33456  1.0000
  C   C372      1.0  0.83014  0.83422  0.32784  1.0000
  H   H366      1.0  0.89579  0.59850  0.49652  1.0000
  C   C373      1.0  0.52294  0.61347  0.49102  1.0000
  H   H367      1.0  0.85921  0.54735  0.49206  1.0000
  H   H368      1.0  0.85622  0.76090  0.38396  1.0000
  C   C374      1.0  0.70168  0.80086  0.52467  1.0000
  S   S129      1.0  0.97984  0.55739  0.51826  1.0000
  H   H369      1.0  0.55151  0.61405  0.49408  1.0000
  C   C375      1.0  0.72871  0.75859  0.51603  1.0000
  H   H370      1.0  0.67660  0.80467  0.52901  1.0000
  Fe  Fe66      1.0  0.69263  0.98059  0.50823  1.0000
  C   C376      1.0  0.95928  0.56183  0.44001  1.0000
  H   H371      1.0  0.79058  0.79921  0.38014  1.0000
  H   H372      1.0  0.94716  0.50634  0.45543  1.0000
  H   H373      1.0  0.96666  0.61826  0.42919  1.0000
  H   H374      1.0  0.82743  0.81358  0.50486  1.0000
  C   C377      1.0  0.79844  0.78549  0.50502  1.0000
  C   C378      1.0  0.71716  0.97553  0.63614  1.0000
  N   N32       1.0  0.82832  0.78350  0.36208  1.0000
  H   H375      1.0  0.55625  0.69114  0.48369  1.0000
  C   C379      1.0  0.69634  0.76295  0.52234  1.0000
  H   H376      1.0  0.72429  0.72900  0.51418  1.0000
  H   H377      1.0  0.92613  0.62105  0.46067  1.0000
  H   H378      1.0  0.80107  0.76440  0.51684  1.0000
  C   C380      1.0  0.80913  0.82962  0.34795  1.0000
  H   H379      1.0  0.69892  0.94406  0.63956  1.0000
  H   H380      1.0  0.66707  0.73710  0.52484  1.0000
  C   C381      1.0  0.94211  0.53131  0.45620  1.0000
  C   C382      1.0  0.89138  0.56819  0.49469  1.0000
  C   C383      1.0  0.80844  0.80392  0.36498  1.0000
  H   H381      1.0  0.79292  0.77274  0.48775  1.0000
  H   H382      1.0  0.79213  0.84463  0.34993  1.0000
  Fe  Fe67      1.0  0.96592  0.68085  0.50897  1.0000
  C   C384      1.0  0.84912  0.78794  0.34242  1.0000
  C   C385      1.0  0.54904  0.69406  0.44777  1.0000
  H   H383      1.0  0.56468  0.72624  0.44714  1.0000
  C   C386      1.0  0.82601  0.75523  0.37955  1.0000
  S   S130      1.0  0.56711  0.99552  0.52224  1.0000
  H   H384      1.0  0.80783  0.72446  0.37334  1.0000
  H   H385      1.0  0.52221  0.50786  0.53099  1.0000
  H   H386      1.0  0.58381  0.92123  0.59801  1.0000
  C   C387      1.0  0.54419  0.67402  0.46844  1.0000
  H   H387      1.0  0.81132  0.75699  0.39538  1.0000
  H   H388      1.0  0.69587  0.97173  0.60174  1.0000
  H   H389      1.0  0.90794  0.51094  0.48711  1.0000
  C   C388      1.0  0.99442  0.52876  0.50129  1.0000
  C   C389      1.0  0.71540  0.99114  0.61466  1.0000
  C   C390      1.0  0.74723  0.74081  0.32012  1.0000
  C   C391      1.0  0.85044  0.81341  0.32504  1.0000
  C   C392      1.0  0.53512  0.67244  0.42791  1.0000
  C   C393      1.0  0.51632  0.63118  0.42897  1.0000
  Fe  Fe68      1.0  0.99701  0.62326  0.52102  1.0000
  C   C394      1.0  0.59196  0.97342  0.58016  1.0000
  H   H390      1.0  0.98437  0.67997  0.64255  1.0000
  H   H391      1.0  0.50630  0.61402  0.41360  1.0000
  H   H392      1.0  0.57346  0.95728  0.56589  1.0000
  S   S131      1.0  0.99860  0.69042  0.59444  1.0000
  C   C395      1.0  0.99848  0.71147  0.63901  1.0000
  C   C396      1.0  0.53202  0.99777  0.50322  1.0000
  H   H393      1.0  0.52858  0.91077  0.90633  1.0000
  Fe  Fe69      1.0  0.96439  0.81881  0.74440  1.0000
  S   S132      1.0  0.90451  0.81500  0.74727  1.0000
  C   C397      1.0  0.99654  0.69888  0.83123  1.0000
  C   C398      1.0  0.95901  0.76159  0.84296  1.0000
  N   N33       1.0  0.89955  0.56222  0.97340  1.0000
  S   S133      1.0  0.96850  0.76595  0.73354  1.0000
  H   H394      1.0  0.82991  0.65718  0.94930  1.0000
  H   H395      1.0  0.97374  0.70202  0.89998  1.0000
  S   S134      1.0  0.77335  0.97745  0.79771  1.0000
  S   S135      1.0  0.78448  0.95433  0.73312  1.0000
  C   C399      1.0  0.73311  0.98132  0.86142  1.0000
  Fe  Fe70      1.0  0.96933  0.67240  0.95618  1.0000
  S   S136      1.0  0.98319  0.64222  0.92816  1.0000
  H   H396      1.0  0.94361  0.75303  0.82685  1.0000
  S   S137      1.0  0.89647  0.96732  0.71748  1.0000
  H   H397      1.0  0.85637  0.79413  0.70286  1.0000
  Fe  Fe71      1.0  0.85067  0.98445  0.72730  1.0000
  H   H398      1.0  0.55051  0.61192  0.93937  1.0000
  C   C400      1.0  0.89523  0.55611  0.94886  1.0000
  C   C401      1.0  0.68651  0.86002  0.96344  1.0000
  C   C402      1.0  0.55883  0.97467  0.90412  1.0000
  H   H399      1.0  0.92307  0.69222  0.89874  1.0000
  H   H400      1.0  0.84118  0.83306  0.75052  1.0000
  H   H401      1.0  0.89477  0.72362  0.69788  1.0000
  H   H402      1.0  0.87963  0.74354  0.72067  1.0000
  C   C403      1.0  0.93946  0.85677  0.67278  1.0000
  Fe  Fe72      1.0  0.66420  0.95259  0.96282  1.0000
  C   C404      1.0  0.81149  0.66322  0.98289  1.0000
  S   S138      1.0  0.63070  0.96294  0.93469  1.0000
  C   C405      1.0  0.93579  0.79394  0.68014  1.0000
  N   N34       1.0  0.53698  0.61333  0.97432  1.0000
  C   C406      1.0  0.94641  0.73478  0.86132  1.0000
  C   C407      1.0  0.55210  0.93721  0.89807  1.0000
  H   H403      1.0  0.86776  0.52777  0.94523  1.0000
  S   S139      1.0  0.99644  0.72926  0.78870  1.0000
  H   H404      1.0  0.95508  0.88682  0.66598  1.0000
  H   H405      1.0  0.70021  0.88516  0.95184  1.0000
  C   C408      1.0  0.57719  0.64548  0.97948  1.0000
  H   H406      1.0  0.94923  0.77540  0.67874  1.0000
  S   S140      1.0  0.64194  0.89230  0.98046  1.0000
  H   H407      1.0  0.75267  0.94617  0.84325  1.0000
  C   C409      1.0  0.88378  0.80425  0.69326  1.0000
  C   C410      1.0  0.60801  0.96867  0.87217  1.0000
  C   C411      1.0  0.75423  0.99162  0.82127  1.0000
  C   C412      1.0  0.69889  0.83157  0.96359  1.0000
  H   H408      1.0  0.97054  0.67234  0.82546  1.0000
  C   C413      1.0  0.95475  0.71589  0.90000  1.0000
  H   H409      1.0  0.57298  0.90556  0.87768  1.0000
  S   S141      1.0  0.72493  0.99610  0.94842  1.0000
  C   C414      1.0  0.55315  0.53802  0.98194  1.0000
  H   H410      1.0  0.78308  0.65912  0.97740  1.0000
  C   C415      1.0  0.87515  0.66707  0.97377  1.0000
  H   H411      1.0  0.53147  0.51004  0.94956  1.0000
  H   H412      1.0  0.86063  0.58607  0.97471  1.0000
  C   C416      1.0  0.90303  0.85857  0.74104  1.0000
  C   C417      1.0  0.93653  0.89210  0.73217  1.0000
  C   C418      1.0  0.93393  0.92524  0.72521  1.0000
  C   C419      1.0  0.89815  0.92560  0.72766  1.0000
  C   C420      1.0  0.86486  0.89260  0.73718  1.0000
  C   C421      1.0  0.86722  0.85894  0.74364  1.0000
  H   H413      1.0  0.96425  0.89227  0.73023  1.0000
  H   H414      1.0  0.95977  0.95070  0.71783  1.0000
  H   H415      1.0  0.83712  0.89267  0.73904  1.0000
  C   C422      1.0  0.83816  0.66211  0.96698  1.0000
  H   H416      1.0  0.84863  0.72390  0.69595  1.0000
  C   C423      1.0  0.87984  0.74087  0.70189  1.0000
  S   S142      1.0  0.70125  0.76619  0.97965  1.0000
  H   H417      1.0  0.92082  0.70547  0.85926  1.0000
  H   H418      1.0  0.89360  0.58086  0.94023  1.0000
  C   C424      1.0  0.57701  0.93429  0.88204  1.0000
  C   C425      1.0  0.90312  0.84272  0.68407  1.0000
  H   H419      1.0  0.72215  0.83509  0.95200  1.0000
  H   H420      1.0  0.72790  0.96487  0.87719  1.0000
  H   H421      1.0  0.94849  0.99298  0.75816  1.0000
  C   C426      1.0  0.68211  0.79918  0.97894  1.0000
  N   N35       1.0  0.90022  0.78048  0.69130  1.0000
  N   N36       1.0  0.96695  0.74486  0.88128  1.0000
  S   S143      1.0  0.90630  0.66273  0.95315  1.0000
  C   C427      1.0  0.74717  0.97076  0.84207  1.0000
  H   H422      1.0  0.89057  0.86190  0.68643  1.0000
  C   C428      1.0  0.95584  0.83220  0.67065  1.0000
  C   C429      1.0  0.52446  0.50929  0.96739  1.0000
  C   C430      1.0  0.65679  0.85605  0.97850  1.0000
  H   H423      1.0  0.54025  0.97675  0.91719  1.0000
  H   H424      1.0  0.98425  0.84279  0.66207  1.0000
  S   S144      1.0  0.73923  0.97976  0.68097  1.0000
  H   H425      1.0  0.92130  0.55545  0.94140  1.0000
  H   H426      1.0  0.95794  0.73034  0.91661  1.0000
  H   H427      1.0  0.58178  0.56026  0.97521  1.0000
  H   H428      1.0  0.62857  0.96700  0.86029  1.0000
  H   H429      1.0  0.59059  0.66655  0.96490  1.0000
  C   C431      1.0  0.99290  0.79878  0.84509  1.0000
  C   C432      1.0  0.52820  0.59903  0.95275  1.0000
  H   H430      1.0  0.99515  0.67435  0.86468  1.0000
  H   H431      1.0  0.93720  0.53719  0.97705  1.0000
  H   H432      1.0  0.59651  0.63278  0.98367  1.0000
