data_image0
_chemical_formula_structural       HCFeS2FeCFeSH2FeHSFeSH2SCSHCSHS2HC2HNC2H4CSC7H4C6H5SC3H2FeSHSCFeHCH2SHC2HNC2HCHC2H2CFeH4NC2SNHC4HSC2H3CHC4H5C3HCHCFeSHFeS2FeSFeS3FeS2FeS2FeSFeCS2CHC2H3CHC3HNSH6CHC2HC3H3CH2NHCHC2NHC6H2NHC6H4C3HC4H2C3SHCHC2H3C2NHCH3CFeH4CHCHSHNSCSC3SFeH3CHC2HCSCSCHCHC3HS2FeC2HC3HCSC2H2C2H5CNC4H3C6HCHCSH3SCH6C3SH2CSC2SH2CFeHCNH5C2H2CH2C2FeSH3CH4CHS2HCSHNH2CHC2H3C2HCH2C4SFeS2FeS2Fe2S2CSFe2S2FeSFeHCH2SCH2NH2C2NSH2C2HSH2CHNCHC2H5SH2CSHSH3C4HCH2NH2C2SC2H2C3HSHCSNC2H2CFeHCHFeHCHSC2SHNSHCHCH4C3SCH3C9H3C3SH3CFeH3CHC4HC4HC3SHCFeHC2H4C2H2CH3C3SCNHCHS2H3FeCHCH3NSH3CHFeHC2SCSHSCHFeHFeSC2HFeSFeSCSHCFeHFeS2HCH3CHS2CHCFeCNH2CHC2HCHC2NHCH2CHSHCNH2C6HC2H2CFeHCHC5H3C3H2SH2CHCSHSC2H3C2H4SHSC3FeS2FeSCHS3H2SFeCFeC2SHFeSH3C2H2NC2HSC2HSC3H2FeCNC9HCNC2SHSH3CHCHCHCFeHCSCH2Fe2SCHCSHSHC2H6CH2CSNC6H2CHFeHFeCNH3CSCSH4C3H2CSHCHC2H2C2NCHCHCSCH2SCNC2HSCH5CH3CH2CNHCH2CHCSC3H5CH2CHCHSCHFeSHFeSHFeSFeS3FeSCSFeCNSCHCNCH2FeC5H3C2HCNHSC4SHFeHC2H5SC2H2C2SHSH2C3H3CSCFeCHC3HCH3C2SCHCH3CH2SCHCHFeCHC2NH2SNCHC2H2CSH2CH2CHNHC8NHCHC5H4SHCHCH4CHCHC2H6SC3H2C2NC2HC2HCFeCSFeS2HFe2SCSC2FeH4C2FeSHSC2H2C2H3CH2SC2H2CFeCNHCH4CHCNHSCHS3C3SHFeC3HFeHCHCSHCH2NCHC2HC5HCH3C2H3C2H2C3SH4CHC3NC3H2CSHC3H2CFeCH6C2HC2HSCH2C3H2SCS3C3HSH3NC4FeS2FeS2FeSFeS4H2FeS2FeS2FeSFeS3HSH2FeCH3CHSHCSFeSHCH2NH3CH3NC5NH3C2HC7HCH2CH2CH3NHCH2C3HC7H4C6H4C6H5NCFeHCHC2HC2HCH5NHCH5C2HCH3C2H2C2HC2NHC6HCH4CHCH3C2HCHCHCHC2H4SH4CHSHC5NSCNHSC3FeC2HSCHCH2CH3C3H6CSH2C2HC5FeHS2H2SHC2HCFeS2FeHFeS3FeCSFeS4HSCHC2H2C6FeH3NH2CS2CNSCHSHCHC8H5FeCH2SH8CH2CHCHC3FeH4C2H2SC5H2C2H2CSH3CH3C4HC2H2C2SC2H2C3HNC2HCNHCHCH3FeHCHCH2CSHCH2CSHCN2C2NC4HSC2HCHNHFeS2FeS2FeSFeS3FeSCFeS2FeSFeS3CH2C3H3C6H5C5H4SCH3C7H4CHCH5CH2C2FeCH2C2FeH2NHC2H2NC6H12FeHSCHCSN2CHCH2CNHCSC4H2CH2SH3CHCNC5HCH2CHSFeCSCHC2HSC4HC2HC2H3C2H2NCHFeCH2CH2CH2C2HCSHCSC2HCHCHCH7CH2CSCH5CHC3SCHSHFeSCFeS2FeSFeS3FeS2FeSFeS2C2HC2HC2HC2SH2CH3C3SHC3S2C3HSH3C4NH2NHC3HFeH3CH5CHFeC2NCSHCFeCFeHC3H2CSC6SHC8H6NH3SC2HNC4H2NCH2SHCH3C3HFeHSH4CHCHCSHC2H3SH2S2CH2CHC2H2NCHSCH2SHCH2C2HC3HCH3C2FeHCHC3HC5HC2SH2SHCFeH2C3SCH2SC2NC2H2C2HNCFeCH3SFeSHC3H3S2H2SHC2FeC3HSCHFeHCSHS2HC2HC3SHC2SCHS2C2FeCSHS2H3NSCHCHCH2Fe2SHCSFeHCH2CFe2HCHC2H3C2HC3H4NH3CH2SCHSCHCNCSH2SHNC2SCH2FeC2HSHSC2HCHC3SNH2C2HCH2C2FeHFeCSC2HFeSFeHSCH2CS2C4FeNC2HCS3N2HCH2S2HC2HCHC3H3CHS2CSH4CH2CHFeHC3HC2SFe2H2C2H4CHC4SFeSHFeS2FeSFeS3H3CFeS2FeSCSH4C3H3CH2CHNHSCHC2H4C2H2CSCHC3H2C4FeCSC2HC2HC2H3SHC2HCHSH4CHCSCHSCFeCH5C2H6NCH4C2SCHC3H2CNCHC2HC3SH2C4H2C8HCHSC3H2CHCHC7H4CH3CSHC2HSCS2C3HSHCHNH2SH4FeHFeCH3C2H2CNFeHCHNCHC2NCFeSHC3SH2CSCH2S4H3C3HCHCHCNCFeCSFeC2HCHSHFeNSHC4HS2H3C4Fe2NSCSH2CHC2FeC2H3C3SHSC3H2CSHCHFeCHC4H4CFeH2SCHFeCHSC2S2FeSFeSH2CHCHCNHC2H2C4HSNCFeSC2HCS2HSH2C6H3FeC2H5CHSCH2FeHC3H2C2H2FeHCHCHNH2CHCHCHSFeS2FeS2FeSFeS3H2CSHC3NSCFeS2FeS2FeHFeS3HCFeHNHCHCH2CH3SH3FeHSFeCSCHCS2FeC2FeCSC2HSHC4HC4HC2H2CHS2CNHC2FeCH2SH2SC3HSC2NCH2SC6HNH5Fe2C2HNHCNC2H2CHCH6C9H2CHCH2CHCHS2H2CH5CHCHCHC8H4C2HCHCH4C6H4C6H3C2HNC2HCH3CH4C2HNC2HCHFeC2H5CH2CH6NHCH2C2H5CHC2HFeH2C2HCS3CHFeHSH2FeS2FeS2FeSFeS3FeS2CHFeS2FeS2FeHFeS3HNFeSNFeS2Fe2S2FeSCFeS2FeSFeS3FeSFeSHCFeS2HFeSCS2HS3H2CNCFeSFeS2FeS2Fe2CS4FeCSHS2HCHC2HCSHFeSCFeSFeHS2C2H2SFeCHSCH2FeHCH3CSHS2C3SH6CSH2SC7H3CH2C3H4CH2C7H2SHC6H4C6H4C3H2C6H5C5N2HCH3C6H4C6H4C6H4CH2C7H2NC6H8CFeCH3NCHCHNHC2NC5H5CHCH3C4SCHCHNC6H8FeC2H2CH2CSC3HSCN2HC2NC6H8NC6H8SCHCH2NC6H10SNH2NHCHS2H3NC3HCH6CNHCH2C3H2C2FeCHSH2C3H2SHFeHFeC4FeH2CSH3C3H4CH3S2H3CHC5HCHCH3CHCH3C2HC2FeH3CHCH2C5H2SNSFeCHCHCHFe2HSFeC2H3C2SCS3CHCSFeC2NHCSCFeC3HC4HCNSCHC2HC3SHSHCHSFeH3C2H3SCHCSH3C4H3SCHCNCH5CHC2HCH3CHCHCHCHC5H4SHCS2H3NH3CS2H2C2H2C2FeC2HCHNC2H3SH4CHFe2C3HCSHCHC2H3C3Fe2CHC3S2HC2SFe2HC4FeS2FeS2FeSFeS3FeSFeS2FeS2NFeCFeSCFeS3FeSFeS4HCFeS2FeSHFeSFeS3H2NHCSHC3HSH3C6H4C3H2CH3C6H4C3H2C6H4C6H4C6H4CHC4HCHC7H2CNCNCHCHCH2C3HCSNC6H8NC6H9CHCHSCH2C2HSHC2HC2H2CSHSCSHFeCHC2HC2HCHCHC4SCH4CHCH3CH6SNC6H3SH5CNH2CHCSCHCHCHC2H2C3HCHSC2HNC6H6C2HFeCHCHC3H3FeCNFeCHC2HCH2CH2FeHN2FeCHC2S3FeCHCH8S2CH4CSCH5CFeHFeHCH3S2CNC2HCFeS2FeS2FeSFeS3FeS2FeS2FeSFeS4CHCH2SCFeSCFeSHSHCHCFeH2SFe2C2HC5SH3C7H5SHNCH2SC5HFeC6H4C6H4C3H2C6SCHFe2NC6H8SHC2HNC2NH4SCH4CFeH4C2H2C2HCHSHC2HS2C2HFeH3C3HFeSHC2HCH3NSH2C2H2C3HCSH2CH3C2H2SCHCHC4H2SH3C2HNHC2NH8CSC2NCH3CH2CH2CHCHCSCH3SH2C4H2CSCFeCH2FeH2CH2N2HC2H2SNH2CFeSHSCH2C2HSHCFeS2FeS2FeSFeS3HFeCH3FeS2H2CFeSFeNSNH2CS2FeS2FeS2FeSFeS3FeS2FeS2FeSFeS3HCFeS3HFeS2FeS2FeSFeS3H3CSFeS2FeS2FeSFeS4FeS2FeSFeS2H2C4SH7C7H4C6H4C6H4C6H4C7H4C6H4C2SHC2HCH2SHC8H4SH4CHFeH3C6H5C5H2NSC6H5CHNHCHCHC6H6CH3CHC2HC3NHC7H4C6H4C4H4C8H4SH2CHFeC4SH2C2HCHC2SHC2HCHC6H3SH2CNHCH2SHNCH2CH3C2FeSC2H2C2HCFeSCH2C2H2CHCH2FeHFeHC2H3C2NHSHC2NC2HC4HCHSH2CFeH2CH3CHSCHCH2NC3SH4NH2CH2C2H3NC7H5SHNC6H5C2HNC5NC3SHCHCHSHCH2CFeH2C3HCHNCHCHCHCH2CNHC3H4C2H3Fe2HFeC4FeH2C2H5CHCH2CFeCH2CH3C2SHCH3FeS2C3HCHCHCHCFeCH2FeH2CHSHCHCNHC2NH8C2H2CHSCHC3SNC2HC4HNCH2CH2NH2C2HCH3CH2CH2C2FeSHCNCFeS2FeSFeS2C3H2FeSCHNC2FeS2FeSC2S2H2FeCNHC2FeSCFeS2FeSFeS3FeS2FeSHFeSFeS3FeS2FeS2FeSFeCS2FeS2FeS2FeCFeS3FeSFeSHCSHFe2SCSH2CHFeHCFeH2CHSH3C6H5C2HCHCHC5SH6CH5C6H4C6H4CH2CFeC2FeSHCHC5H3C6HCH2C3H3C6H5S2H2C6H4CH3CSHCHNFeNFeHS2NCHCHCHC7H4C6H5C4H3CH4SC4H2C2HSH3FeC3H2NC6H8NC4SH3C2HCHSHCH2C4H4CHSCH3CSHC2FeH2C3H3CH4SHCSFeHNHSC2H2NC3H2SNC5H2CNH2FeCNH4SHFeSHCHC3H2SC2H2S3C2HCHCH2C2HSFeH2SC2HSCHCHFeH2CHC2SH2CH2CHCH2NFeHNH3CSC3H3C4SH2CSHC2HCHC2SCHC2H6FeCH2SCHCHSC5H8CHCH2C2FeH4C5FeC3N2HSHS2CFeSFeSCH2CHC2NHCNSCHFeNSFeHFeC3HS2C2HFeSCHC3HC3SC3HC3H3CSHS2H2CSHFe2CHC2HC2H2NHC3H2SC3SCHCH3C2FeCSHC2HFeH3CH3C2H5CH2C2S2C2SCFeS2CSH2C2HS2HS3CFeS2HCHFeHCSHCHFeCH2C3SHC7H2C9H3FeHC3SNH2SH4SCH3CN2CFeCHC2HFe2SCH2C2FeNC2H5CSC2H3C2NHCH2CH2C2HCH3CHC2H2CH2C3FeHCFeCHCH2C2H2CH2SHC3NFe2HSFeSHS4CSHSH2FeSCSFeSCFeS2FeSFeS4Fe2SFeS2H2FeS3CSHSHFeS2FeSFeSHSFeS2FeS2FeSFeS3NHFeS2FeS2FeSFeHS2C3HSC5H2CHC2HC6H4C6H4C6H4CHC4HCH2C6H5CHC6H6SHSC6H4C6H4C6H3C2NCH2C6H4C2HC3H5CHCH2NSH2CSH5CHC3SNHFeC2H2CNHCH4C5HCH3C2SHCH2C2HFeHC5HNC5HCHC3SFe2CSC3H4C2HSH2NC6H8NHC4HSHFeHC2HC2H3C2H2NC6H6NCH2C2HFeCHCHSHNSHCHCH4NCFeC3H2CHC3H3CSCHSC2SC2HCFeHCFe2SC2HC3H3SCSH3C3H4SC2FeSCH2CSCFeSH3CH2NHCH3C3H4CH2SC2HC2HSCSC2HCHCFeCS2NSC2H3CHCH2CH2C2H3CH2C3HFeH2C3H3C3FeCSC3HC2HCH2CNHCNCSNH3SHC2HCH3FeCH2C2HFeH3CH3CNH3CH2CHCHSHNHCHC4H5CSH2CSCHC5HC2H2CH3CHFeHSH2SH2SCS2H2SCFeSFeSCFeCSC2HC2HC2HFeHC4HCHNH3C6H3CNCH2CSHCH5C2H3CFeS2FeS2FeCFeCS2HFeS2FeS2FeHFeS3H4C5HSC3H3NSHNCH7CHCH3CHC6H4C3H2C2H2C4HNC3HCH2CHC2HCNH2SH2CHC3HC6H2CNC2H3CSH2C3SHC2HC4SHSNH3CHCHSHSC2HFeHSHFeNFeSHFeSHFeS2FeSFeNS2HC3H2CH3C7H5CHSFeHCHSCH5CH3C2SCHC3HC2HSCH2SHC3HCHC2HCHCHC4HSCSNC2NHCHCH2CHC2HCH3CHCH2C2HCHSHCNH2S2C3SHCHSFeHSFeHSHC2HSHC5HCH2SCHC2HC3H2CH2SHCHC2H2CNCSC2H3CNCNCHC4HCHCSHC5HFeSFeS2FeSC2S2FeSHFeS2FeHFeSCSHCSHC2H2SCHCHSHCNC9H5CH3CH4C3HCH3NHFeH5CHCFeC5H2SHC2S3CH2CH2FeSC4H2C2HNCHC5HNC2HSH2CNCHC2FeH3CH4SCHC3H4C2FeC5HCSHSC4H2CHS2H2CHCSFeCS3NCFe3CHCFeC4HCFeC5HC3S2H5CH2C2NHCHCH2CH2SNHCH3CHCHCHFeH5SH2CH2C2HCHNSH2FeCFeHCSFeHCHSH3CHCH2C2HC2SHCS3CSCH2CHC3HCHCHSHCHCNCFeSNFeH2SHC3HC3H2FeHCSHC2HC2FeCNHSC2FeC4H6CSH5NH2CH2CHC3HCFeS2FeS2FeSFeS3FeS2FeS2FeHFeS3CHC4HCHC8H5CNH2C2S2C2H3C6H3C4H3CHCHC6HCHFeHCH4C2H3NHCFeC3H2C2H4C2H2SCH2CHNC2FeCHCHSC3H2CHC2HCSH4CSCHCSH3CSFeC3NC2NC4HC2HC3SCH3NH2SCNC2H4CH4FeHFeH2CH3C2H3C2SHCH9CHCHC3H2FeSCSCFeCSCFeHCS4HFeSFeSFeSH2CFeHSFeH2C3FeCSFeCSFeH3S2HSCHCSCHSH2SC6H4CH3C2H5CSCS2CHC5H2S2C6H3NHCHCHCFeHSFeHCFeH2C2HCNFe2HCHCH2CH2FeHNCHC5HC2HCHFeHS2C4H2S2CH4NHC2H4CH2CSCNS2HS2C3HC2FeCFeHCHNCH2SCH3CHSCHFeSHFeS2HFeCFeHSCH2FeS2HCFeSCSFeS2FeSCFeSFeS3CHFeCS2C2H3CSFeSCSFeCSFeHSFeSHS2FeHSFeCSHFeSHSFeS2FeSHFeHFeS3CHC2H2CH2CHCHCHCNHFeCHC3H5C6HNC7H4C6FeH3NC2HC2H3NSH3SC6H4C6H10C7H4C6NCH2C6H5C2H2C5S2HCH3SCHCFeH3C6H4FeSNC2H2C2HCH2CH2C3SHSHSHC3H4NC6HCHCHCH2FeHC2H2SFeCHSNCFeCH3CNH2FeHFeCHNH2C2HC2H4CH2CSHCHCSCSC2HC2H2CSHC4HC2H4CHCH4CHCH2SC3NHCHC5H2C3FeH5C3HSC4H4NS2H4C2S2FeH4SHC3H2C3H2CN2C2H2C2H2FeHSC2HSC2SCH4CNCHCSCHFeS2FeCFeCHSC2HCH4NFe2SCHNHC2HC2HSCHC2HCHSHS3FeCHCS2HCHFeNH3SCH2C3H2C2HFeCH5SC4H5SHSHCHC2H4C2H2CSHCFeH2CH4C4H2SC2NHSC2FeS2H2FeHCFeS2FeS2FeHFeS3CH2FeHFeS2HCHSCHFeS2FeS2FeHFeS3CSCHCHSCFeSHSFeSCHSHFeSFeSCHFeS2FeS2FeCFeS3FeS2FeS2FeSFeNS2HSFeS2FeS2FeHFeS3CSH2SCS2CFe2SCHC2H2NC2NC5SH3C2SCHCH2CS2C6H4C6H7CH4CHSCHCHFeS3CHSC6H4C6H4C6H4CHCH2CHC3H2C2H2SCHS3H2C7H4C3H3CNC7H4C5H3C7H5CH3CHC9H4CH4C2FeNHC6H5C6H4CH4CHNCHSC3HCHFeH2CHC2H2CHCH4NSHSCNC6H9CSHC2HS2HCHFeNFeC2FeCHCHCHCNCH2C2NCNC2SH3CH3C3H2CH6CH2NC4HNC6H8NC6H8CHC2HNHC2H3C2HSCH2C2HC2SC3HCHCHCH3FeSCH3C2HN2CH2CHCNHCFeHFeH3FeH3CH4S2HCHSH2C2SH2NC2FeHSFeCH2C5H2CHCHFeCH2C2H2CHSH2FeC2S2H2FeS3HCFeSCH3FeS2CSHFeCSFeHSHNFeCHSC5H4SC5HCS2HNCFeCHCS2CHC6H4C6H4CHCH2SNH2SFeCHC2HC2HSCH2CHFeSC2HFeH2CH3CFeC2SHC3H2C2FeH3SHCHSFeCSHFeCHFeS2FeS2FeSFeS4FeHSFeHC3S4HC2HFeS2FeS2FeSFeS3HC2HFeCSCH3CHS2H2C2H2C2HNCSC2HCHCHCH2CHCSC5HCH3C6H4C6H4SCHNH8FeNH2CH2CFeHC5H3C6H4C6H4CFeH3CNC6H5CHCSH3C2SH2C3H2SHCHCHC3HNCH4C2H3C2SC2HNHCHSNSNHCHC4NHC3H2C5HCHFeH2C3H2C2H2SH5CNC2H2C2H3C2H3NCSC4HCHFeHCH2CHSHCHCSH2CH3C2HC2H4C2HSFeCHCFeC2H7FeNCH2C3HSH2SFeS2FeS2FeSFeS3HFeHSCH2SC2HFeS2FeS2FeSFeS4CSHSFeS2FeS2FeS2FeSFeS4FeSHFeS2FeSFeS3FeS2FeS2FeSFeS3FeS2FeS2FeHFeS7HCHCHC2FeCHCH2CFeC3SC4SC2HCSHC3HSC6H4FeC4H5C6H4C3H2CHC2HC6H6CH2C3HC6H4C6H4C4H2CH2CH2CHC7H4CH4NC7H2SC3H2C2H2C6H4C6H4C6H4SHC2HC5H3CFeNC6H8CH2C2HC4HCH2CHCHCSHCNSH3CH4C4HCHCHFeHCHCHNC6H2SCH5CSHCH2SFeH10C2HSH2SC2NCSC5H4CH2Fe3HSHC2HSC2HSCHCHCHCH2SCH2C3HCHNC2H2FeC2HC3FeCH2FeH2C2HSH2SCH5NHC2NHFeH3SHCSH2C2H5NCNHCFeC2NHCHCFeHFeHC3HNSC2HS3FeNC3NCNHC2HC3HC3H2CH2C2HCNC4NHCHCH2C4SHC2H2C2FeHSH4CHFeHSH2SCHSH2CHC2H4C3HCNFeHSNHSC2NFeSH2CHNCH2C2H2SFeH9S2C2HCSCSH3CH5SFeC4H2CH2FeCFeCH2Fe2S2FeS2FeSFeS3FeS2FeS2FeS2FeSFeS3FeS2FeSNFeSFeS3CHFeS2FeS2FeSFeCS2HSCFeS2CH2C2FeSNSFeS2CH2FeSFeS3CFeS2HFeHSHSHFeC6H4NC5H2FeC2HC6H2C6H4C6H4C6H6C2HSC2HSHC6H4C2HCH3C3HCNHCNH2C6H4C6H4C6H4C3HCH3C6H4C4HC2HCH6CHSHC2HCSHCH2C2H3C2HCNC6H9CSCNC6H12CSHSNSCFeC2SCH2CNHC2H3C5HCHNCNSNC2HCH2C2H2C3H4CNCSHC2HCH2C2SCH2C2H2FeCSHCSHSCHSCSCSCHC4SFeCHSC3FeCSHC2HC2HCHCHC7HCNH2C2HFeHCHSHCHFeCFeSH3S2HCHC3HCSHSCSCHCHCHFeHFeC2HFeH3FeCH2Fe2CHSH2C2HCHFeC3S2HC2H2CSFeH2SFeCHN2CS2H5SH2CHC2H2NC2HFeH2NC2HCH4C2FeCSC2NC2HNH5N2CH3CH3C2HSH4CFeCHCH2CH5FeHCHC2SH2CH3CSHSH2CSC2SH3CH3C2H3FeSHC2H2CHC3HS2NCHC2HFeHC3H4C3NC2H2C3H2C3NHC2HCH3C2HC3HSC4HC2HCFeC3HC2H3SH6CFeHCS2H3SHSFeHCHC2NSH6CH3FeHCH2NCSC4SC2HC2H2C2H2C2HCH2CH2CHCSH2C3H2CHCHC3H2C2FeSFeS2FeCFeS3CFeS2FeS2FeSFeS3FeSCFeS2FeS2FeSFeS3C6HC2HC6H4C6H5C4SCHFeHCSC6H3C7H5C6H2SHC2H4CHC3H4NC2NCH3SH3CHCH2SC2HCH2CH3FeHNC6H12FeHCH3CSHC2NC6H8NHCHC2H3CH2NCFeH5CH2CSC4HC2SH2FeCH3C2SHCHNH2CHSCNC2HC2HFeHNHSCHC2H4C3HCHCHNCNCHC2FeH3CHSCFeSCSCH2CSCSH2C2H2CH2CH3S2H2SCSC4H5CHCH2C3HNH2SHCHC2NC4HFeSCSH2NC2HC3HSH
_chemical_formula_sum              "H4608 C4608 Fe768 S1536 N384"
_cell_length_a       131.207
_cell_length_b       129.667
_cell_length_c       129.534
_cell_angle_alpha    73.6896
_cell_angle_beta     73.6028
_cell_angle_gamma    73.7377

_space_group_name_H-M_alt    "P 1"
_space_group_IT_number       1

loop_
  _space_group_symop_operation_xyz
  'x, y, z'

loop_
  _atom_site_type_symbol
  _atom_site_label
  _atom_site_symmetry_multiplicity
  _atom_site_fract_x
  _atom_site_fract_y
  _atom_site_fract_z
  _atom_site_occupancy
  H   H1        1.0  0.02473  0.44327  0.01866  1.0000
  C   C1        1.0  0.03617  0.45993  0.98698  1.0000
  Fe  Fe1       1.0  0.06745  0.46493  0.01510  1.0000
  S   S1        1.0  0.05228  0.45809  0.02197  1.0000
  S   S2        1.0  0.08342  0.45539  0.01976  1.0000
  Fe  Fe2       1.0  0.04966  0.46414  0.00462  1.0000
  C   C2        1.0  0.18790  0.45599  0.02624  1.0000
  Fe  Fe3       1.0  0.04371  0.47528  0.02390  1.0000
  S   S3        1.0  0.03162  0.48122  0.03843  1.0000
  H   H2        1.0  0.18212  0.43814  0.01121  1.0000
  H   H3        1.0  0.12004  0.45517  0.00184  1.0000
  Fe  Fe4       1.0  0.15846  0.45990  0.02198  1.0000
  H   H4        1.0  0.14728  0.42521  0.98969  1.0000
  S   S4        1.0  0.16700  0.45250  0.03609  1.0000
  Fe  Fe5       1.0  0.13618  0.47105  0.01626  1.0000
  S   S5        1.0  0.16708  0.46033  0.00436  1.0000
  H   H5        1.0  0.00831  0.47854  0.22133  1.0000
  H   H6        1.0  0.00071  0.47310  0.03671  1.0000
  S   S6        1.0  0.14921  0.47744  0.01901  1.0000
  C   C3        1.0  0.00960  0.48605  0.22239  1.0000
  S   S7        1.0  0.14459  0.45336  0.02106  1.0000
  H   H7        1.0  0.10797  0.43778  0.99419  1.0000
  C   C4        1.0  0.00583  0.46656  0.03265  1.0000
  S   S8        1.0  0.06557  0.46943  0.99758  1.0000
  H   H8        1.0  0.08263  0.47853  0.01807  1.0000
  S   S9        1.0  0.99808  0.45251  0.06944  1.0000
  S   S10       1.0  0.03973  0.48073  0.00716  1.0000
  H   H9        1.0  0.11677  0.43813  0.00233  1.0000
  C   C5        1.0  0.99555  0.46767  0.21319  1.0000
  C   C6        1.0  0.17488  0.48702  0.00646  1.0000
  H   H10       1.0  0.02720  0.47299  0.99542  1.0000
  N   N1        1.0  0.00339  0.45638  0.03559  1.0000
  C   C7        1.0  0.05837  0.48714  0.04152  1.0000
  C   C8        1.0  0.00368  0.45876  0.21657  1.0000
  H   H11       1.0  0.06779  0.47170  0.04900  1.0000
  H   H12       1.0  0.18390  0.45920  0.04938  1.0000
  H   H13       1.0  0.01222  0.48625  0.05469  1.0000
  H   H14       1.0  0.17221  0.47362  0.03802  1.0000
  C   C9        1.0  0.10247  0.47642  0.98957  1.0000
  S   S11       1.0  0.15509  0.44136  0.99481  1.0000
  C   C10       1.0  0.00414  0.45520  0.22771  1.0000
  C   C11       1.0  0.02270  0.47292  0.04732  1.0000
  C   C12       1.0  0.02441  0.46181  0.04719  1.0000
  C   C13       1.0  0.01692  0.45552  0.05416  1.0000
  C   C14       1.0  0.00773  0.46031  0.06130  1.0000
  C   C15       1.0  0.00609  0.47138  0.06151  1.0000
  C   C16       1.0  0.01358  0.47766  0.05457  1.0000
  H   H15       1.0  0.03148  0.45807  0.04170  1.0000
  H   H16       1.0  0.01825  0.44694  0.05400  1.0000
  H   H17       1.0  0.17460  0.47858  0.00728  1.0000
  H   H18       1.0  0.17131  0.48779  0.03736  1.0000
  C   C17       1.0  0.09272  0.46223  0.02108  1.0000
  C   C18       1.0  0.10284  0.45606  0.02326  1.0000
  C   C19       1.0  0.11086  0.46133  0.02331  1.0000
  C   C20       1.0  0.10863  0.47279  0.02160  1.0000
  C   C21       1.0  0.09829  0.47890  0.02013  1.0000
  C   C22       1.0  0.09043  0.47368  0.01963  1.0000
  H   H19       1.0  0.10463  0.44718  0.02456  1.0000
  H   H20       1.0  0.11875  0.45651  0.02465  1.0000
  H   H21       1.0  0.18082  0.43553  0.04803  1.0000
  H   H22       1.0  0.16601  0.47907  0.05028  1.0000
  H   H23       1.0  0.00962  0.45455  0.21056  1.0000
  S   S12       1.0  0.11862  0.47979  0.02096  1.0000
  C   C23       1.0  0.01942  0.44983  0.02260  1.0000
  C   C24       1.0  0.11317  0.45942  0.99804  1.0000
  C   C25       1.0  0.07721  0.48423  0.04212  1.0000
  H   H24       1.0  0.00520  0.46807  0.17087  1.0000
  H   H25       1.0  0.00328  0.46936  0.15203  1.0000
  Fe  Fe6       1.0  0.05580  0.48555  0.00144  1.0000
  S   S13       1.0  0.04542  0.45383  0.99570  1.0000
  H   H26       1.0  0.99551  0.44650  0.05005  1.0000
  S   S14       1.0  0.05905  0.48164  0.01828  1.0000
  C   C26       1.0  0.00422  0.48542  0.16823  1.0000
  Fe  Fe7       1.0  0.15257  0.45523  0.00307  1.0000
  H   H27       1.0  0.10097  0.48529  0.98660  1.0000
  C   C27       1.0  0.00148  0.48748  0.13577  1.0000
  H   H28       1.0  0.10234  0.43945  0.00829  1.0000
  H   H29       1.0  0.02943  0.46145  0.01366  1.0000
  S   S15       1.0  0.99592  0.47246  0.19901  1.0000
  H   H30       1.0  0.00111  0.47949  0.13448  1.0000
  C   C28       1.0  0.02205  0.46011  0.01971  1.0000
  C   C29       1.0  0.18591  0.44058  0.04177  1.0000
  H   H31       1.0  0.08463  0.47888  0.04435  1.0000
  N   N2        1.0  0.18323  0.47640  0.04578  1.0000
  C   C30       1.0  0.18127  0.44938  0.03420  1.0000
  C   C31       1.0  0.98875  0.46993  0.23216  1.0000
  H   H32       1.0  0.00481  0.48492  0.17656  1.0000
  C   C32       1.0  0.09774  0.45902  0.99219  1.0000
  H   H33       1.0  0.99434  0.43214  0.22179  1.0000
  C   C33       1.0  0.99355  0.45431  0.04392  1.0000
  C   C34       1.0  0.00441  0.47595  0.16504  1.0000
  H   H34       1.0  0.09236  0.45442  0.99139  1.0000
  H   H35       1.0  0.01281  0.48565  0.08264  1.0000
  C   C35       1.0  0.00340  0.47673  0.15435  1.0000
  Fe  Fe8       1.0  0.15679  0.47738  0.00126  1.0000
  H   H36       1.0  0.01732  0.47654  0.02268  1.0000
  H   H37       1.0  0.18436  0.46286  0.02040  1.0000
  H   H38       1.0  0.11664  0.47537  0.99546  1.0000
  H   H39       1.0  0.01035  0.44816  0.23027  1.0000
  N   N3        1.0  0.00241  0.48668  0.14700  1.0000
  C   C36       1.0  0.10850  0.44164  0.00063  1.0000
  C   C37       1.0  0.01522  0.46857  0.02471  1.0000
  S   S16       1.0  0.14312  0.47247  0.99814  1.0000
  N   N4        1.0  0.10652  0.45364  0.99675  1.0000
  H   H40       1.0  0.99896  0.47516  0.06690  1.0000
  C   C38       1.0  0.17265  0.47939  0.04275  1.0000
  C   C39       1.0  0.00999  0.44809  0.03061  1.0000
  C   C40       1.0  0.11129  0.47088  0.99443  1.0000
  C   C41       1.0  0.01439  0.48547  0.23097  1.0000
  H   H41       1.0  0.00803  0.44005  0.03289  1.0000
  S   S17       1.0  0.99201  0.46896  0.09207  1.0000
  C   C42       1.0  0.06777  0.48020  0.04473  1.0000
  C   C43       1.0  0.99676  0.46079  0.23554  1.0000
  H   H42       1.0  0.99004  0.46088  0.04870  1.0000
  H   H43       1.0  0.98967  0.48614  0.10051  1.0000
  H   H44       1.0  0.18421  0.48300  0.01889  1.0000
  C   C44       1.0  0.14496  0.44270  0.98781  1.0000
  H   H45       1.0  0.05113  0.48387  0.04342  1.0000
  C   C45       1.0  0.02787  0.46918  0.98878  1.0000
  C   C46       1.0  0.18796  0.46554  0.04903  1.0000
  C   C47       1.0  0.09556  0.47048  0.98855  1.0000
  C   C48       1.0  0.98913  0.43657  0.22802  1.0000
  H   H46       1.0  0.09647  0.48773  0.01916  1.0000
  H   H47       1.0  0.11345  0.00495  0.41652  1.0000
  H   H48       1.0  0.02022  0.10655  0.43048  1.0000
  H   H49       1.0  0.00359  0.08402  0.45976  1.0000
  H   H50       1.0  0.13767  0.99614  0.47133  1.0000
  C   C49       1.0  0.17615  0.05139  0.44798  1.0000
  C   C50       1.0  0.99485  0.22050  0.46272  1.0000
  C   C51       1.0  0.99906  0.21708  0.48354  1.0000
  H   H51       1.0  0.07003  0.01878  0.42777  1.0000
  C   C52       1.0  0.01909  0.04588  0.42968  1.0000
  H   H52       1.0  0.00910  0.02322  0.43375  1.0000
  C   C53       1.0  0.01375  0.03781  0.44904  1.0000
  Fe  Fe9       1.0  0.05439  0.05840  0.45021  1.0000
  S   S18       1.0  0.03768  0.05540  0.45315  1.0000
  H   H53       1.0  0.00608  0.01415  0.45258  1.0000
  Fe  Fe10      1.0  0.06383  0.04701  0.43135  1.0000
  S   S19       1.0  0.04786  0.04342  0.43191  1.0000
  S   S20       1.0  0.07934  0.04092  0.41978  1.0000
  Fe  Fe11      1.0  0.04021  0.06054  0.43474  1.0000
  S   S21       1.0  0.02705  0.07219  0.42628  1.0000
  Fe  Fe12      1.0  0.04641  0.03852  0.45020  1.0000
  S   S22       1.0  0.04103  0.02311  0.46104  1.0000
  S   S23       1.0  0.05641  0.06467  0.43199  1.0000
  S   S24       1.0  0.06289  0.04100  0.44942  1.0000
  Fe  Fe13      1.0  0.13217  0.05069  0.43054  1.0000
  S   S25       1.0  0.12397  0.04635  0.44832  1.0000
  S   S26       1.0  0.12400  0.05279  0.41674  1.0000
  Fe  Fe14      1.0  0.15391  0.05033  0.43547  1.0000
  S   S27       1.0  0.14742  0.04582  0.45362  1.0000
  S   S28       1.0  0.17159  0.05143  0.42833  1.0000
  Fe  Fe15      1.0  0.13973  0.03435  0.44999  1.0000
  S   S29       1.0  0.14169  0.01716  0.46008  1.0000
  Fe  Fe16      1.0  0.13234  0.05829  0.45029  1.0000
  C   C54       1.0  0.08607  0.06194  0.48033  1.0000
  S   S30       1.0  0.14744  0.03763  0.43197  1.0000
  S   S31       1.0  0.13931  0.06386  0.43227  1.0000
  C   C55       1.0  0.00769  0.25470  0.45347  1.0000
  H   H54       1.0  0.01942  0.10521  0.46393  1.0000
  C   C56       1.0  0.08382  0.01699  0.44007  1.0000
  C   C57       1.0  0.08871  0.01830  0.44778  1.0000
  H   H55       1.0  0.00166  0.27417  0.46799  1.0000
  H   H56       1.0  0.07929  0.05542  0.46597  1.0000
  H   H57       1.0  0.00542  0.41977  0.47906  1.0000
  C   C58       1.0  0.11963  0.02080  0.46935  1.0000
  H   H58       1.0  0.01009  0.01881  0.46225  1.0000
  C   C59       1.0  0.12961  0.01320  0.46796  1.0000
  C   C60       1.0  0.01801  0.04599  0.44067  1.0000
  C   C61       1.0  0.03227  0.00598  0.46187  1.0000
  H   H59       1.0  0.99029  0.45690  0.39556  1.0000
  N   N5        1.0  0.08990  0.06397  0.46830  1.0000
  S   S32       1.0  0.06040  0.06815  0.45805  1.0000
  H   H60       1.0  0.17413  0.08097  0.43496  1.0000
  H   H61       1.0  0.03296  0.01335  0.43060  1.0000
  H   H62       1.0  0.08764  0.01663  0.46508  1.0000
  H   H63       1.0  0.01329  0.35464  0.43117  1.0000
  H   H64       1.0  0.06071  0.01173  0.43848  1.0000
  H   H65       1.0  0.01677  0.03743  0.41865  1.0000
  C   C62       1.0  0.99915  0.32886  0.47062  1.0000
  H   H66       1.0  0.99698  0.02521  0.45872  1.0000
  C   C63       1.0  0.99585  0.35989  0.43532  1.0000
  C   C64       1.0  0.00939  0.11601  0.44753  1.0000
  H   H67       1.0  0.04406  0.08257  0.44656  1.0000
  C   C65       1.0  0.09731  0.06804  0.44549  1.0000
  C   C66       1.0  0.06946  0.01189  0.43518  1.0000
  C   C67       1.0  0.06958  0.01076  0.45440  1.0000
  H   H68       1.0  0.07037  0.01009  0.47100  1.0000
  H   H69       1.0  0.02050  0.05238  0.44266  1.0000
  H   H70       1.0  0.00582  0.32541  0.46420  1.0000
  C   C68       1.0  0.99861  0.22750  0.47644  1.0000
  H   H71       1.0  0.10218  0.02288  0.47514  1.0000
  H   H72       1.0  0.09622  0.02121  0.44506  1.0000
  N   N6        1.0  0.01055  0.02980  0.44652  1.0000
  H   H73       1.0  0.16746  0.05313  0.45123  1.0000
  C   C69       1.0  0.10995  0.01709  0.47463  1.0000
  H   H74       1.0  0.08547  0.05928  0.44569  1.0000
  C   C70       1.0  0.03283  0.01122  0.43933  1.0000
  C   C71       1.0  0.99416  0.44308  0.40884  1.0000
  N   N7        1.0  0.00386  0.26488  0.45592  1.0000
  H   H75       1.0  0.11929  0.02947  0.46615  1.0000
  C   C72       1.0  0.01603  0.08065  0.43366  1.0000
  C   C73       1.0  0.00936  0.08957  0.42791  1.0000
  C   C74       1.0  0.00069  0.09658  0.43361  1.0000
  C   C75       1.0  0.01147  0.02969  0.43576  1.0000
  C   C76       1.0  0.00518  0.08561  0.45085  1.0000
  C   C77       1.0  0.01389  0.07872  0.44516  1.0000
  H   H76       1.0  0.01095  0.09112  0.41901  1.0000
  H   H77       1.0  0.99562  0.10346  0.42912  1.0000
  N   N8        1.0  0.18150  0.02067  0.42625  1.0000
  H   H78       1.0  0.01891  0.07192  0.44971  1.0000
  C   C78       1.0  0.09121  0.04493  0.41954  1.0000
  C   C79       1.0  0.09828  0.04754  0.40936  1.0000
  C   C80       1.0  0.10805  0.05028  0.40874  1.0000
  C   C81       1.0  0.11114  0.05000  0.41832  1.0000
  C   C82       1.0  0.10419  0.04719  0.42862  1.0000
  C   C83       1.0  0.09412  0.04482  0.42922  1.0000
  H   H79       1.0  0.09613  0.04760  0.40186  1.0000
  H   H80       1.0  0.11335  0.05246  0.40075  1.0000
  H   H81       1.0  0.10657  0.04684  0.43607  1.0000
  H   H82       1.0  0.08873  0.04268  0.43713  1.0000
  C   C84       1.0  0.03665  0.01493  0.45507  1.0000
  C   C85       1.0  0.03708  0.01740  0.44375  1.0000
  C   C86       1.0  0.99857  0.09457  0.44512  1.0000
  H   H83       1.0  0.04048  0.02418  0.43840  1.0000
  C   C87       1.0  0.08564  0.06001  0.46209  1.0000
  C   C88       1.0  0.00763  0.35472  0.47832  1.0000
  C   C89       1.0  0.03269  0.09418  0.43739  1.0000
  C   C90       1.0  0.03223  0.09338  0.45634  1.0000
  H   H84       1.0  0.07314  0.98972  0.48451  1.0000
  H   H85       1.0  0.00340  0.11473  0.45555  1.0000
  C   C91       1.0  0.14494  0.07179  0.45761  1.0000
  C   C92       1.0  0.99063  0.47369  0.30652  1.0000
  C   C93       1.0  0.11038  0.00581  0.47873  1.0000
  S   S33       1.0  0.12421  0.06910  0.46231  1.0000
  H   H86       1.0  0.12709  0.01885  0.44506  1.0000
  C   C94       1.0  0.08387  0.01578  0.45898  1.0000
  H   H87       1.0  0.08762  0.01894  0.43136  1.0000
  C   C95       1.0  0.00565  0.02162  0.45546  1.0000
  C   C96       1.0  0.07423  0.01201  0.46233  1.0000
  H   H88       1.0  0.00497  0.11690  0.44105  1.0000
  H   H89       1.0  0.01312  0.03785  0.45757  1.0000
  H   H90       1.0  0.07943  0.05733  0.48333  1.0000
  C   C97       1.0  0.02358  0.10294  0.43777  1.0000
  C   C98       1.0  0.13000  0.00204  0.47252  1.0000
  N   N9        1.0  0.07430  0.01339  0.44342  1.0000
  H   H91       1.0  0.01204  0.12377  0.44629  1.0000
  C   C99       1.0  0.01584  0.03766  0.42718  1.0000
  H   H92       1.0  0.15453  0.99785  0.48384  1.0000
  H   H93       1.0  0.03625  0.09100  0.42994  1.0000
  H   H94       1.0  0.01171  0.24528  0.44095  1.0000
  C   C100      1.0  0.02309  0.10212  0.45645  1.0000
  Fe  Fe17      1.0  0.99128  0.46826  0.26005  1.0000
  H   H95       1.0  0.99929  0.17871  0.48039  1.0000
  H   H96       1.0  0.07378  0.00396  0.43271  1.0000
  H   H97       1.0  0.03907  0.06443  0.47040  1.0000
  H   H98       1.0  0.16623  0.01640  0.47490  1.0000
  C   C101      1.0  0.15405  0.07288  0.46042  1.0000
  H   H99       1.0  0.03562  0.08974  0.46362  1.0000
  C   C102      1.0  0.03701  0.08938  0.44675  1.0000
  H   H100      1.0  0.12918  0.03138  0.48502  1.0000
  S   S34       1.0  0.99032  0.20025  0.46667  1.0000
  H   H101      1.0  0.01521  0.48752  0.32312  1.0000
  N   N10       1.0  0.01882  0.10670  0.44728  1.0000
  S   S35       1.0  0.99766  0.42614  0.42663  1.0000
  C   C103      1.0  0.00106  0.34797  0.46639  1.0000
  S   S36       1.0  0.16489  0.07401  0.47494  1.0000
  C   C104      1.0  0.99699  0.20848  0.48038  1.0000
  C   C105      1.0  0.02811  0.00252  0.44618  1.0000
  C   C106      1.0  0.00156  0.27402  0.44784  1.0000
  S   S37       1.0  0.99450  0.47980  0.33398  1.0000
  Fe  Fe18      1.0  0.99323  0.41007  0.43678  1.0000
  H   H102      1.0  0.13222  0.02833  0.42553  1.0000
  H   H103      1.0  0.99636  0.23710  0.46042  1.0000
  H   H104      1.0  0.14458  0.05270  0.48154  1.0000
  C   C107      1.0  0.98981  0.44844  0.39945  1.0000
  H   H105      1.0  0.14577  0.07012  0.44966  1.0000
  C   C108      1.0  0.17618  0.02279  0.43641  1.0000
  C   C109      1.0  0.15315  0.07461  0.47082  1.0000
  H   H106      1.0  0.99815  0.34947  0.45894  1.0000
  C   C110      1.0  0.00339  0.40471  0.47658  1.0000
  S   S38       1.0  0.99416  0.47297  0.36503  1.0000
  C   C111      1.0  0.16807  0.01726  0.44306  1.0000
  S   S39       1.0  0.99757  0.45578  0.24945  1.0000
  C   C112      1.0  0.16541  0.00950  0.43928  1.0000
  H   H107      1.0  0.98844  0.18835  0.39794  1.0000
  C   C113      1.0  0.08917  0.06210  0.45060  1.0000
  H   H108      1.0  0.12944  0.04458  0.47550  1.0000
  C   C114      1.0  0.06483  0.98949  0.48498  1.0000
  C   C115      1.0  0.00307  0.27308  0.43698  1.0000
  C   C116      1.0  0.99428  0.17262  0.48539  1.0000
  H   H109      1.0  0.18347  0.01109  0.41459  1.0000
  S   S40       1.0  0.00009  0.38538  0.47422  1.0000
  S   S41       1.0  0.99889  0.23889  0.48104  1.0000
  Fe  Fe19      1.0  0.99749  0.48625  0.26601  1.0000
  C   C117      1.0  0.05754  0.07337  0.47763  1.0000
  C   C118      1.0  0.12024  0.01944  0.41066  1.0000
  H   H110      1.0  0.99043  0.32975  0.42338  1.0000
  C   C119      1.0  0.00380  0.35660  0.46879  1.0000
  C   C120      1.0  0.12808  0.01133  0.44205  1.0000
  C   C121      1.0  0.12812  0.02315  0.42361  1.0000
  H   H111      1.0  0.00095  0.28031  0.43067  1.0000
  C   C122      1.0  0.11750  0.01018  0.41845  1.0000
  S   S42       1.0  0.10438  0.99194  0.45567  1.0000
  C   C123      1.0  0.10167  0.07197  0.45190  1.0000
  C   C124      1.0  0.17100  0.00725  0.42898  1.0000
  H   H112      1.0  0.00743  0.26177  0.42620  1.0000
  H   H113      1.0  0.06219  0.00763  0.45707  1.0000
  C   C125      1.0  0.13490  0.07258  0.46514  1.0000
  C   C126      1.0  0.00670  0.26269  0.43447  1.0000
  H   H114      1.0  0.02248  0.05216  0.42313  1.0000
  H   H115      1.0  0.99800  0.44743  0.41214  1.0000
  H   H116      1.0  0.99158  0.33190  0.46741  1.0000
  H   H117      1.0  0.12796  0.03308  0.40719  1.0000
  H   H118      1.0  0.02422  0.99320  0.46284  1.0000
  C   C127      1.0  0.02804  0.99976  0.45745  1.0000
  N   N11       1.0  0.12524  0.01416  0.43128  1.0000
  C   C128      1.0  0.00565  0.35204  0.43472  1.0000
  C   C129      1.0  0.12017  0.00759  0.42874  1.0000
  C   C130      1.0  0.00139  0.26587  0.46742  1.0000
  C   C131      1.0  0.09779  0.06990  0.46336  1.0000
  H   H119      1.0  0.00972  0.36137  0.48032  1.0000
  H   H120      1.0  0.17819  0.02881  0.43941  1.0000
  H   H121      1.0  0.10804  0.07656  0.44806  1.0000
  C   C132      1.0  0.05298  0.06964  0.47122  1.0000
  C   C133      1.0  0.99489  0.47638  0.31398  1.0000
  C   C134      1.0  0.04266  0.06720  0.47538  1.0000
  C   C135      1.0  0.00907  0.25343  0.44275  1.0000
  C   C136      1.0  0.00189  0.39401  0.48162  1.0000
  C   C137      1.0  0.99464  0.21028  0.47005  1.0000
  H   H122      1.0  0.18004  0.05213  0.46284  1.0000
  C   C138      1.0  0.12572  0.02588  0.41319  1.0000
  H   H123      1.0  0.99420  0.35044  0.41578  1.0000
  C   C139      1.0  0.00601  0.33581  0.48258  1.0000
  S   S43       1.0  0.99899  0.46823  0.27352  1.0000
  H   H124      1.0  0.06540  0.07552  0.47432  1.0000
  H   H125      1.0  0.17565  0.03075  0.47430  1.0000
  H   H126      1.0  0.00951  0.24746  0.45986  1.0000
  S   S44       1.0  0.00488  0.39384  0.44105  1.0000
  C   C140      1.0  0.00430  0.41149  0.48294  1.0000
  H   H127      1.0  0.99517  0.47387  0.29810  1.0000
  H   H128      1.0  0.99816  0.28205  0.44985  1.0000
  H   H129      1.0  0.12087  0.98982  0.48193  1.0000
  H   H130      1.0  0.00303  0.36470  0.46330  1.0000
  H   H131      1.0  0.16185  0.07184  0.45472  1.0000
  H   H132      1.0  0.03177  0.00413  0.47064  1.0000
  C   C141      1.0  0.99330  0.43221  0.41415  1.0000
  C   C142      1.0  0.12045  0.99841  0.47817  1.0000
  C   C143      1.0  0.13383  0.07496  0.47532  1.0000
  S   S45       1.0  0.99609  0.37359  0.42843  1.0000
  H   H133      1.0  0.10020  0.06961  0.43658  1.0000
  H   H134      1.0  0.14616  0.02033  0.47885  1.0000
  C   C144      1.0  0.00562  0.34080  0.43823  1.0000
  S   S46       1.0  0.99378  0.21364  0.43476  1.0000
  C   C145      1.0  0.16683  0.03247  0.47605  1.0000
  C   C146      1.0  0.13229  0.03904  0.48289  1.0000
  S   S47       1.0  0.02098  0.99638  0.44081  1.0000
  H   H135      1.0  0.99332  0.22188  0.45463  1.0000
  H   H136      1.0  0.12287  0.00608  0.44840  1.0000
  C   C147      1.0  0.98846  0.42659  0.40974  1.0000
  Fe  Fe20      1.0  0.99250  0.38635  0.43846  1.0000
  H   H137      1.0  0.16922  0.00102  0.42607  1.0000
  C   C148      1.0  0.99678  0.22910  0.46593  1.0000
  N   N12       1.0  0.00202  0.33778  0.47335  1.0000
  H   H138      1.0  0.17465  0.08257  0.45337  1.0000
  H   H139      1.0  0.14229  0.07732  0.48625  1.0000
  H   H140      1.0  0.99312  0.26435  0.47158  1.0000
  H   H141      1.0  0.00272  0.47865  0.31126  1.0000
  H   H142      1.0  0.11823  0.00024  0.43463  1.0000
  C   C149      1.0  0.18220  0.07985  0.44778  1.0000
  C   C150      1.0  0.18027  0.05020  0.43707  1.0000
  H   H143      1.0  0.00387  0.40775  0.46781  1.0000
  H   H144      1.0  0.11816  0.02162  0.40267  1.0000
  C   C151      1.0  0.14931  0.04469  0.48019  1.0000
  H   H145      1.0  0.01327  0.33479  0.43753  1.0000
  H   H146      1.0  0.18507  0.03532  0.41514  1.0000
  C   C152      1.0  0.17905  0.01297  0.42253  1.0000
  C   C153      1.0  0.14302  0.07585  0.47822  1.0000
  Fe  Fe21      1.0  0.99458  0.39308  0.45828  1.0000
  S   S48       1.0  0.09853  0.00064  0.48287  1.0000
  H   H147      1.0  0.16463  0.04914  0.47766  1.0000
  H   H148      1.0  0.01664  0.47763  0.23655  1.0000
  H   H149      1.0  0.18531  0.08339  0.46561  1.0000
  C   C154      1.0  0.98906  0.47618  0.32491  1.0000
  H   H150      1.0  0.13666  0.00665  0.44143  1.0000
  H   H151      1.0  0.09289  0.05715  0.48439  1.0000
  H   H152      1.0  0.12605  0.07564  0.48112  1.0000
  H   H153      1.0  0.15919  0.00507  0.44445  1.0000
  C   C155      1.0  0.18328  0.05072  0.45459  1.0000
  H   H154      1.0  0.01433  0.48337  0.33763  1.0000
  S   S49       1.0  0.99119  0.48584  0.25180  1.0000
  S   S50       1.0  0.99627  0.32310  0.44538  1.0000
  H   H155      1.0  0.10117  0.07304  0.46831  1.0000
  C   C156      1.0  0.99579  0.33730  0.44204  1.0000
  S   S51       1.0  0.18592  0.99313  0.45056  1.0000
  H   H156      1.0  0.99764  0.32207  0.47797  1.0000
  N   N13       1.0  0.14421  0.03666  0.48066  1.0000
  H   H157      1.0  0.99486  0.33285  0.40851  1.0000
  H   H158      1.0  0.15500  0.99033  0.43606  1.0000
  C   C157      1.0  0.16155  0.02440  0.47635  1.0000
  H   H159      1.0  0.00732  0.25971  0.47198  1.0000
  C   C158      1.0  0.16068  0.04272  0.47794  1.0000
  C   C159      1.0  0.15018  0.02667  0.47861  1.0000
  H   H160      1.0  0.99402  0.12104  0.47699  1.0000
  H   H161      1.0  0.16392  0.01896  0.45112  1.0000
  H   H162      1.0  0.99652  0.42580  0.24122  1.0000
  C   C160      1.0  0.18187  0.07907  0.43733  1.0000
  C   C161      1.0  0.98872  0.12884  0.47828  1.0000
  H   H163      1.0  0.99740  0.16494  0.48221  1.0000
  C   C162      1.0  0.99034  0.43300  0.23890  1.0000
  H   H164      1.0  0.08284  0.06988  0.48302  1.0000
  H   H165      1.0  0.99693  0.20057  0.48605  1.0000
  C   C163      1.0  0.15543  0.98902  0.48524  1.0000
  C   C164      1.0  0.00879  0.34426  0.48524  1.0000
  C   C165      1.0  0.99028  0.13415  0.48553  1.0000
  C   C166      1.0  0.03694  0.06842  0.48604  1.0000
  S   S52       1.0  0.18790  0.00391  0.47567  1.0000
  Fe  Fe22      1.0  0.04866  0.06894  0.51499  1.0000
  S   S53       1.0  0.04382  0.06377  0.53330  1.0000
  S   S54       1.0  0.03524  0.07218  0.50625  1.0000
  Fe  Fe23      1.0  0.07271  0.06581  0.51498  1.0000
  S   S55       1.0  0.06950  0.06017  0.53338  1.0000
  S   S56       1.0  0.08949  0.06661  0.50405  1.0000
  Fe  Fe24      1.0  0.05883  0.05034  0.53128  1.0000
  Fe  Fe25      1.0  0.05483  0.07424  0.53313  1.0000
  S   S57       1.0  0.06312  0.05495  0.51285  1.0000
  S   S58       1.0  0.05862  0.08050  0.51481  1.0000
  C   C167      1.0  0.04173  0.07173  0.49259  1.0000
  S   S59       1.0  0.15525  0.07723  0.50609  1.0000
  Fe  Fe26      1.0  0.99138  0.41377  0.51899  1.0000
  Fe  Fe27      1.0  0.16495  0.04547  0.50945  1.0000
  S   S60       1.0  0.15891  0.05347  0.52388  1.0000
  S   S61       1.0  0.17143  0.02727  0.51108  1.0000
  Fe  Fe28      1.0  0.14580  0.06398  0.51494  1.0000
  S   S62       1.0  0.12825  0.06639  0.52449  1.0000
  Fe  Fe29      1.0  0.16898  0.06576  0.51352  1.0000
  H   H166      1.0  0.05002  0.99901  0.53768  1.0000
  C   C168      1.0  0.98952  0.27017  0.51948  1.0000
  H   H167      1.0  0.13828  0.98961  0.49158  1.0000
  H   H168      1.0  0.99230  0.26504  0.50431  1.0000
  S   S63       1.0  0.17609  0.05673  0.49989  1.0000
  C   C169      1.0  0.03375  0.09988  0.53482  1.0000
  H   H169      1.0  0.14578  0.00630  0.53721  1.0000
  H   H170      1.0  0.10476  0.02378  0.52818  1.0000
  N   N14       1.0  0.09226  0.01794  0.52555  1.0000
  H   H171      1.0  0.13989  0.00559  0.55164  1.0000
  H   H172      1.0  0.14832  0.03481  0.51299  1.0000
  C   C170      1.0  0.02824  0.04597  0.52548  1.0000
  C   C171      1.0  0.10225  0.02053  0.52267  1.0000
  N   N15       1.0  0.15555  0.00972  0.54579  1.0000
  S   S64       1.0  0.99567  0.45246  0.57714  1.0000
  H   H173      1.0  0.01887  0.16861  0.54292  1.0000
  H   H174      1.0  0.18444  0.06972  0.54026  1.0000
  C   C172      1.0  0.00943  0.15673  0.54485  1.0000
  C   C173      1.0  0.02945  0.03760  0.54475  1.0000
  H   H175      1.0  0.12873  0.04317  0.48995  1.0000
  S   S65       1.0  0.15130  0.05513  0.50112  1.0000
  H   H176      1.0  0.02361  0.46595  0.57667  1.0000
  H   H177      1.0  0.04428  0.10475  0.55372  1.0000
  C   C174      1.0  0.07889  0.09214  0.53373  1.0000
  H   H178      1.0  0.03483  0.04332  0.54347  1.0000
  N   N16       1.0  0.02751  0.03719  0.53428  1.0000
  C   C175      1.0  0.99048  0.19268  0.52386  1.0000
  H   H179      1.0  0.02079  0.02020  0.52289  1.0000
  C   C176      1.0  0.02640  0.04566  0.51545  1.0000
  C   C177      1.0  0.04975  0.02244  0.51758  1.0000
  H   H180      1.0  0.17138  0.05845  0.54241  1.0000
  H   H181      1.0  0.00309  0.36672  0.51284  1.0000
  H   H182      1.0  0.11205  0.01262  0.49819  1.0000
  H   H183      1.0  0.07821  0.01535  0.53840  1.0000
  H   H184      1.0  0.02161  0.04030  0.55039  1.0000
  S   S66       1.0  0.01431  0.13008  0.53839  1.0000
  H   H185      1.0  0.13509  0.02792  0.50792  1.0000
  H   H186      1.0  0.99788  0.14689  0.54716  1.0000
  C   C178      1.0  0.03911  0.10606  0.54807  1.0000
  S   S67       1.0  0.05092  0.08612  0.54412  1.0000
  H   H187      1.0  0.01919  0.09414  0.50441  1.0000
  S   S68       1.0  0.99529  0.34846  0.51180  1.0000
  H   H188      1.0  0.11411  0.08879  0.51492  1.0000
  H   H189      1.0  0.15812  0.02341  0.53243  1.0000
  H   H190      1.0  0.08961  0.01590  0.54288  1.0000
  C   C179      1.0  0.16151  0.01704  0.53878  1.0000
  C   C180      1.0  0.07552  0.09227  0.52441  1.0000
  C   C181      1.0  0.99277  0.37256  0.52720  1.0000
  C   C182      1.0  0.05628  0.99496  0.49208  1.0000
  H   H191      1.0  0.02730  0.05252  0.50842  1.0000
  C   C183      1.0  0.08985  0.09181  0.53289  1.0000
  H   H192      1.0  0.15970  0.99919  0.50153  1.0000
  H   H193      1.0  0.99405  0.41782  0.58510  1.0000
  N   N17       1.0  0.99134  0.17362  0.54886  1.0000
  H   H194      1.0  0.17317  0.00655  0.50588  1.0000
  H   H195      1.0  0.04785  0.02595  0.50955  1.0000
  C   C184      1.0  0.00157  0.17544  0.54691  1.0000
  C   C185      1.0  0.01153  0.09457  0.51048  1.0000
  S   S69       1.0  0.04271  0.00474  0.51710  1.0000
  C   C186      1.0  0.99616  0.44004  0.56271  1.0000
  C   C187      1.0  0.98999  0.28266  0.50147  1.0000
  H   H196      1.0  0.03891  0.99880  0.49818  1.0000
  H   H197      1.0  0.02240  0.03593  0.50673  1.0000
  C   C188      1.0  0.08310  0.09187  0.51443  1.0000
  C   C189      1.0  0.00982  0.48386  0.58205  1.0000
  C   C190      1.0  0.15987  0.00161  0.55374  1.0000
  H   H198      1.0  0.01630  0.48113  0.58651  1.0000
  S   S70       1.0  0.09733  0.99247  0.53806  1.0000
  H   H199      1.0  0.17402  0.99393  0.56076  1.0000
  C   C191      1.0  0.01077  0.16706  0.54478  1.0000
  S   S71       1.0  0.00040  0.12781  0.49300  1.0000
  N   N18       1.0  0.00815  0.47710  0.57653  1.0000
  C   C192      1.0  0.99897  0.15491  0.54707  1.0000
  C   C193      1.0  0.16487  0.01119  0.50634  1.0000
  H   H200      1.0  0.07300  0.09227  0.54154  1.0000
  H   H201      1.0  0.18493  0.00729  0.54809  1.0000
  C   C194      1.0  0.16176  0.02147  0.50913  1.0000
  Fe  Fe30      1.0  0.98836  0.24386  0.52033  1.0000
  H   H202      1.0  0.16390  0.99116  0.53219  1.0000
  C   C195      1.0  0.05523  0.02449  0.53317  1.0000
  H   H203      1.0  0.03374  0.02939  0.54876  1.0000
  Fe  Fe31      1.0  0.16187  0.06732  0.49307  1.0000
  H   H204      1.0  0.00494  0.43850  0.56126  1.0000
  C   C196      1.0  0.00211  0.39693  0.49930  1.0000
  H   H205      1.0  0.99801  0.47481  0.56740  1.0000
  S   S72       1.0  0.99336  0.40630  0.53656  1.0000
  C   C197      1.0  0.09398  0.09160  0.51386  1.0000
  C   C198      1.0  0.02553  0.10961  0.53361  1.0000
  S   S73       1.0  0.99982  0.14550  0.51382  1.0000
  H   H206      1.0  0.09983  0.09117  0.50609  1.0000
  N   N19       1.0  0.18549  0.05308  0.54926  1.0000
  S   S74       1.0  0.18045  0.07103  0.52006  1.0000
  H   H207      1.0  0.00081  0.21569  0.49155  1.0000
  C   C199      1.0  0.02420  0.11758  0.53961  1.0000
  H   H208      1.0  0.99527  0.17046  0.49405  1.0000
  C   C200      1.0  0.05305  0.02880  0.52266  1.0000
  H   H209      1.0  0.02420  0.02110  0.54039  1.0000
  H   H210      1.0  0.00067  0.38175  0.49682  1.0000
  H   H211      1.0  0.09364  0.00840  0.50328  1.0000
  H   H212      1.0  0.00477  0.17952  0.52291  1.0000
  C   C201      1.0  0.04849  0.01174  0.52303  1.0000
  C   C202      1.0  0.02464  0.02813  0.53348  1.0000
  C   C203      1.0  0.05201  0.07422  0.48839  1.0000
  S   S75       1.0  0.05833  0.03273  0.54014  1.0000
  C   C204      1.0  0.15726  0.00705  0.50386  1.0000
  H   H213      1.0  0.03048  0.05319  0.52606  1.0000
  H   H214      1.0  0.02033  0.11100  0.52798  1.0000
  H   H215      1.0  0.05790  0.99942  0.49717  1.0000
  C   C205      1.0  0.99188  0.09587  0.52586  1.0000
  C   C206      1.0  0.10944  0.01877  0.51275  1.0000
  C   C207      1.0  0.10046  0.06546  0.51000  1.0000
  C   C208      1.0  0.11083  0.06586  0.50316  1.0000
  C   C209      1.0  0.11956  0.06575  0.50755  1.0000
  C   C210      1.0  0.11795  0.06522  0.51882  1.0000
  C   C211      1.0  0.10763  0.06459  0.52567  1.0000
  C   C212      1.0  0.09893  0.06469  0.52130  1.0000
  C   C213      1.0  0.98965  0.44679  0.57001  1.0000
  H   H216      1.0  0.12743  0.06638  0.50216  1.0000
  H   H217      1.0  0.10630  0.06422  0.53439  1.0000
  H   H218      1.0  0.09100  0.06445  0.52664  1.0000
  C   C214      1.0  0.05438  0.01363  0.53846  1.0000
  C   C215      1.0  0.03106  0.11575  0.54677  1.0000
  C   C216      1.0  0.99961  0.48034  0.57140  1.0000
  S   S76       1.0  0.98967  0.25689  0.52808  1.0000
  H   H219      1.0  0.18543  0.03410  0.49127  1.0000
  H   H220      1.0  0.05568  0.07688  0.49341  1.0000
  H   H221      1.0  0.05353  0.03716  0.51854  1.0000
  C   C217      1.0  0.00340  0.40769  0.49438  1.0000
  Fe  Fe32      1.0  0.00079  0.13293  0.52971  1.0000
  H   H222      1.0  0.06702  0.09264  0.52498  1.0000
  H   H223      1.0  0.03011  0.12184  0.55142  1.0000
  H   H224      1.0  0.08060  0.09162  0.50721  1.0000
  C   C218      1.0  0.00174  0.10032  0.50736  1.0000
  H   H225      1.0  0.03482  0.09377  0.53016  1.0000
  C   C219      1.0  0.01508  0.46602  0.57683  1.0000
  C   C220      1.0  0.14662  0.01326  0.50409  1.0000
  C   C221      1.0  0.14480  0.01016  0.54419  1.0000
  C   C222      1.0  0.08508  0.01957  0.53617  1.0000
  H   H226      1.0  0.08111  0.01182  0.52090  1.0000
  C   C223      1.0  0.00154  0.09011  0.52929  1.0000
  C   C224      1.0  0.14340  0.02327  0.50739  1.0000
  C   C225      1.0  0.15094  0.02727  0.51008  1.0000
  C   C226      1.0  0.99068  0.27195  0.50808  1.0000
  H   H227      1.0  0.05608  0.01021  0.54659  1.0000
  C   C227      1.0  0.02361  0.03639  0.51453  1.0000
  C   C228      1.0  0.00149  0.39009  0.49293  1.0000
  C   C229      1.0  0.05100  0.00725  0.53340  1.0000
  S   S77       1.0  0.13727  0.00852  0.50035  1.0000
  H   H228      1.0  0.17414  0.04409  0.54903  1.0000
  C   C230      1.0  0.04053  0.09810  0.54212  1.0000
  Fe  Fe33      1.0  0.99441  0.13286  0.50916  1.0000
  H   H229      1.0  0.01901  0.08517  0.52404  1.0000
  C   C231      1.0  0.02264  0.02759  0.52361  1.0000
  C   C232      1.0  0.99091  0.17450  0.52161  1.0000
  H   H230      1.0  0.99539  0.16625  0.52097  1.0000
  H   H231      1.0  0.99641  0.42969  0.55203  1.0000
  H   H232      1.0  0.11741  0.02068  0.51062  1.0000
  H   H233      1.0  0.99101  0.28392  0.49265  1.0000
  C   C233      1.0  0.08903  0.01388  0.51859  1.0000
  C   C234      1.0  0.10639  0.01431  0.50576  1.0000
  H   H234      1.0  0.10924  0.10018  0.52176  1.0000
  H   H235      1.0  0.00177  0.39381  0.50804  1.0000
  C   C235      1.0  0.17048  0.00063  0.55473  1.0000
  H   H236      1.0  0.02897  0.06652  0.48929  1.0000
  H   H237      1.0  0.07516  0.99483  0.53753  1.0000
  H   H238      1.0  0.99644  0.37951  0.52566  1.0000
  C   C236      1.0  0.09608  0.01191  0.50864  1.0000
  C   C237      1.0  0.01142  0.08950  0.52153  1.0000
  C   C238      1.0  0.17663  0.00804  0.54755  1.0000
  S   S78       1.0  0.00170  0.23144  0.51224  1.0000
  C   C239      1.0  0.17213  0.01632  0.53954  1.0000
  N   N20       1.0  0.99211  0.10109  0.51505  1.0000
  H   H239      1.0  0.01174  0.34273  0.49269  1.0000
  C   C240      1.0  0.99653  0.36532  0.51996  1.0000
  H   H240      1.0  0.11208  0.06648  0.49441  1.0000
  S   S79       1.0  0.99691  0.11990  0.52431  1.0000
  S   S80       1.0  0.00320  0.41657  0.50256  1.0000
  H   H241      1.0  0.08173  0.02848  0.53590  1.0000
  H   H242      1.0  0.14014  0.01880  0.54237  1.0000
  H   H243      1.0  0.11149  0.08606  0.52957  1.0000
  Fe  Fe34      1.0  0.99065  0.21955  0.52076  1.0000
  C   C241      1.0  0.17798  0.05104  0.54394  1.0000
  H   H244      1.0  0.01525  0.46285  0.56962  1.0000
  C   C242      1.0  0.99136  0.43507  0.55744  1.0000
  H   H245      1.0  0.98987  0.37025  0.49617  1.0000
  H   H246      1.0  0.09242  0.09174  0.54017  1.0000
  H   H247      1.0  0.15528  0.99557  0.55908  1.0000
  N   N21       1.0  0.09722  0.09155  0.52304  1.0000
  S   S81       1.0  0.98819  0.45174  0.63016  1.0000
  H   H248      1.0  0.01184  0.46024  0.58442  1.0000
  H   H249      1.0  0.01647  0.15014  0.54312  1.0000
  H   H250      1.0  0.00689  0.32771  0.48806  1.0000
  C   C243      1.0  0.10854  0.09171  0.52227  1.0000
  H   H251      1.0  0.00194  0.10440  0.49878  1.0000
  Fe  Fe35      1.0  0.99200  0.23637  0.49924  1.0000
  H   H252      1.0  0.17691  0.02201  0.53377  1.0000
  C   C244      1.0  0.99158  0.35650  0.52173  1.0000
  C   C245      1.0  0.04561  0.99460  0.49265  1.0000
  S   S82       1.0  0.99682  0.20134  0.52711  1.0000
  C   C246      1.0  0.99622  0.18202  0.52274  1.0000
  S   S83       1.0  0.99000  0.46978  0.59989  1.0000
  H   H253      1.0  0.00269  0.18352  0.54659  1.0000
  S   S84       1.0  0.12630  0.99766  0.53090  1.0000
  C   C247      1.0  0.98996  0.16349  0.54903  1.0000
  H   H254      1.0  0.00136  0.08636  0.53793  1.0000
  Fe  Fe36      1.0  0.13349  0.99441  0.51405  1.0000
  H   H255      1.0  0.18252  0.04899  0.53585  1.0000
  Fe  Fe37      1.0  0.01886  0.47452  0.94724  1.0000
  S   S85       1.0  0.02651  0.46085  0.93813  1.0000
  C   C248      1.0  0.13103  0.45405  0.97799  1.0000
  C   C249      1.0  0.16048  0.45841  0.96276  1.0000
  H   H256      1.0  0.99083  0.47014  0.75904  1.0000
  Fe  Fe38      1.0  0.01991  0.47285  0.92390  1.0000
  S   S86       1.0  0.01556  0.46741  0.91074  1.0000
  Fe  Fe39      1.0  0.04079  0.46894  0.93184  1.0000
  S   S87       1.0  0.05805  0.45927  0.93121  1.0000
  C   C250      1.0  0.16416  0.46231  0.91971  1.0000
  S   S88       1.0  0.03370  0.48147  0.94211  1.0000
  H   H257      1.0  0.17215  0.48229  0.90765  1.0000
  C   C251      1.0  0.13454  0.43424  0.98101  1.0000
  Fe  Fe40      1.0  0.11647  0.48547  0.95492  1.0000
  H   H258      1.0  0.99132  0.46680  0.88838  1.0000
  Fe  Fe41      1.0  0.11694  0.46175  0.95730  1.0000
  S   S89       1.0  0.11837  0.44589  0.96999  1.0000
  S   S90       1.0  0.11600  0.46391  0.93970  1.0000
  H   H259      1.0  0.17063  0.47606  0.93939  1.0000
  C   C252      1.0  0.15580  0.46953  0.92525  1.0000
  H   H260      1.0  0.05535  0.44024  0.92744  1.0000
  H   H261      1.0  0.05188  0.45566  0.91213  1.0000
  H   H262      1.0  0.01884  0.43419  0.93105  1.0000
  C   C253      1.0  0.02688  0.43541  0.93033  1.0000
  H   H263      1.0  0.04031  0.45790  0.90649  1.0000
  S   S91       1.0  0.01119  0.47363  0.96523  1.0000
  S   S92       1.0  0.03489  0.47992  0.91702  1.0000
  C   C254      1.0  0.16692  0.47061  0.97330  1.0000
  H   H264      1.0  0.08862  0.47470  0.98490  1.0000
  C   C255      1.0  0.16881  0.47207  0.93407  1.0000
  Fe  Fe42      1.0  0.10350  0.47936  0.94244  1.0000
  C   C256      1.0  0.17472  0.45983  0.92145  1.0000
  N   N22       1.0  0.15927  0.47562  0.96708  1.0000
  H   H265      1.0  0.05500  0.48249  0.92991  1.0000
  H   H266      1.0  0.15174  0.48026  0.93651  1.0000
  C   C257      1.0  0.04669  0.45136  0.91010  1.0000
  H   H267      1.0  0.05174  0.44656  0.90386  1.0000
  C   C258      1.0  0.07991  0.47934  0.93495  1.0000
  C   C259      1.0  0.16820  0.45321  0.96915  1.0000
  H   H268      1.0  0.12624  0.46207  0.97516  1.0000
  C   C260      1.0  0.15608  0.46969  0.96181  1.0000
  H   H269      1.0  0.99564  0.48436  0.80765  1.0000
  C   C261      1.0  0.05443  0.47055  0.96001  1.0000
  C   C262      1.0  0.04732  0.43896  0.92822  1.0000
  N   N23       1.0  0.04179  0.44405  0.91999  1.0000
  H   H270      1.0  0.13279  0.42693  0.98003  1.0000
  C   C263      1.0  0.04261  0.43225  0.93787  1.0000
  H   H271      1.0  0.16964  0.47530  0.97735  1.0000
  H   H272      1.0  0.02845  0.42551  0.94647  1.0000
  C   C264      1.0  0.02093  0.46848  0.97344  1.0000
  H   H273      1.0  0.15786  0.45371  0.95862  1.0000
  S   S93       1.0  0.10325  0.47617  0.96044  1.0000
  H   H274      1.0  0.18111  0.45420  0.91711  1.0000
  C   C265      1.0  0.06293  0.47838  0.93156  1.0000
  N   N24       1.0  0.04990  0.48477  0.97011  1.0000
  H   H275      1.0  0.99327  0.45339  0.82936  1.0000
  H   H276      1.0  0.07125  0.46204  0.95702  1.0000
  C   C266      1.0  0.17715  0.46477  0.92851  1.0000
  C   C267      1.0  0.13909  0.45308  0.98357  1.0000
  C   C268      1.0  0.15810  0.47439  0.93250  1.0000
  C   C269      1.0  0.99173  0.46912  0.89562  1.0000
  C   C270      1.0  0.12873  0.44465  0.97668  1.0000
  C   C271      1.0  0.03184  0.44208  0.92080  1.0000
  H   H277      1.0  0.15014  0.47367  0.95679  1.0000
  C   C272      1.0  0.15469  0.48750  0.96563  1.0000
  C   C273      1.0  0.06528  0.46850  0.96060  1.0000
  H   H278      1.0  0.17750  0.45537  0.97940  1.0000
  H   H279      1.0  0.05194  0.46575  0.95588  1.0000
  C   C274      1.0  0.06060  0.48308  0.97039  1.0000
  Fe  Fe43      1.0  0.12827  0.47440  0.93582  1.0000
  H   H280      1.0  0.04333  0.44796  0.97686  1.0000
  C   C275      1.0  0.00254  0.46995  0.90785  1.0000
  H   H281      1.0  0.07695  0.47357  0.96583  1.0000
  C   C276      1.0  0.06846  0.47492  0.96565  1.0000
  C   C277      1.0  0.06949  0.48446  0.93306  1.0000
  C   C278      1.0  0.17147  0.45933  0.97443  1.0000
  C   C279      1.0  0.00184  0.46713  0.89841  1.0000
  C   C280      1.0  0.04681  0.47885  0.96474  1.0000
  H   H282      1.0  0.03016  0.45576  0.96468  1.0000
  H   H283      1.0  0.16247  0.45862  0.91402  1.0000
  H   H284      1.0  0.00914  0.46339  0.89318  1.0000
  C   C281      1.0  0.06665  0.46707  0.93216  1.0000
  C   C282      1.0  0.07714  0.46193  0.93392  1.0000
  C   C283      1.0  0.08379  0.46806  0.93531  1.0000
  H   H285      1.0  0.99905  0.47818  0.82652  1.0000
  H   H286      1.0  0.17152  0.44441  0.97014  1.0000
  S   S94       1.0  0.14298  0.47334  0.92181  1.0000
  H   H287      1.0  0.08009  0.45318  0.93433  1.0000
  H   H288      1.0  0.09186  0.46406  0.93670  1.0000
  C   C284      1.0  0.03228  0.43055  0.93896  1.0000
  H   H289      1.0  0.02759  0.44583  0.91414  1.0000
  C   C285      1.0  0.03693  0.45512  0.97828  1.0000
  S   S95       1.0  0.18473  0.48106  0.95000  1.0000
  H   H290      1.0  0.04691  0.42854  0.94451  1.0000
  S   S96       1.0  0.13023  0.47092  0.95306  1.0000
  C   C286      1.0  0.02949  0.45952  0.97138  1.0000
  C   C287      1.0  0.02014  0.47331  0.98215  1.0000
  H   H291      1.0  0.01356  0.48028  0.98373  1.0000
  H   H292      1.0  0.06307  0.48802  0.97437  1.0000
  H   H293      1.0  0.99367  0.46018  0.80941  1.0000
  C   C288      1.0  0.99302  0.47474  0.91456  1.0000
  C   C289      1.0  0.98894  0.47906  0.75673  1.0000
  H   H294      1.0  0.01640  0.48349  0.88349  1.0000
  H   H295      1.0  0.99344  0.47693  0.92187  1.0000
  H   H296      1.0  0.03839  0.48042  0.96421  1.0000
  H   H297      1.0  0.14083  0.46038  0.98446  1.0000
  S   S97       1.0  0.01090  0.48588  0.93362  1.0000
  H   H298      1.0  0.99087  0.47977  0.73945  1.0000
  S   S98       1.0  0.08772  0.48736  0.93690  1.0000
  C   C290      1.0  0.98897  0.48444  0.74576  1.0000
  C   C291      1.0  0.99413  0.48630  0.82398  1.0000
  C   C292      1.0  0.14274  0.43327  0.98644  1.0000
  Fe  Fe44      1.0  0.07121  0.53878  0.03907  1.0000
  S   S99       1.0  0.08839  0.53026  0.03234  1.0000
  S   S100      1.0  0.06322  0.53542  0.05731  1.0000
  Fe  Fe45      1.0  0.08154  0.52918  0.01878  1.0000
  S   S101      1.0  0.08830  0.51377  0.01234  1.0000
  C   C293      1.0  0.00187  0.51713  0.07692  1.0000
  H   H299      1.0  0.14844  0.55376  0.05329  1.0000
  S   S102      1.0  0.06418  0.53603  0.02643  1.0000
  S   S103      1.0  0.18611  0.50368  0.02133  1.0000
  S   S104      1.0  0.05746  0.50190  0.99041  1.0000
  H   H300      1.0  0.12728  0.51215  0.03034  1.0000
  H   H301      1.0  0.12236  0.49682  0.99640  1.0000
  S   S105      1.0  0.17448  0.52457  0.03969  1.0000
  Fe  Fe46      1.0  0.16090  0.53746  0.03319  1.0000
  C   C294      1.0  0.03307  0.54209  0.07698  1.0000
  Fe  Fe47      1.0  0.18429  0.53760  0.03290  1.0000
  C   C295      1.0  0.00129  0.49632  0.20673  1.0000
  C   C296      1.0  0.18034  0.50048  0.01229  1.0000
  S   S106      1.0  0.14364  0.53777  0.04311  1.0000
  H   H302      1.0  0.99252  0.49631  0.21022  1.0000
  Fe  Fe48      1.0  0.99534  0.55087  0.11531  1.0000
  S   S107      1.0  0.99906  0.51166  0.11550  1.0000
  H   H303      1.0  0.15026  0.53440  0.06377  1.0000
  H   H304      1.0  0.12765  0.55703  0.01090  1.0000
  H   H305      1.0  0.12937  0.49785  0.01999  1.0000
  C   C297      1.0  0.15674  0.53866  0.06237  1.0000
  C   C298      1.0  0.99099  0.54448  0.16213  1.0000
  H   H306      1.0  0.99744  0.52080  0.15309  1.0000
  H   H307      1.0  0.01382  0.57493  0.05714  1.0000
  N   N25       1.0  0.99314  0.56881  0.22181  1.0000
  C   C299      1.0  0.13623  0.52224  0.01649  1.0000
  C   C300      1.0  0.05090  0.56601  0.05454  1.0000
  H   H308      1.0  0.04902  0.56191  0.06343  1.0000
  S   S108      1.0  0.99064  0.53849  0.09366  1.0000
  C   C301      1.0  0.16996  0.49541  0.99875  1.0000
  C   C302      1.0  0.00235  0.49601  0.15001  1.0000
  H   H309      1.0  0.05383  0.57353  0.05359  1.0000
  S   S109      1.0  0.00897  0.53930  0.10645  1.0000
  C   C303      1.0  0.17557  0.50883  0.00449  1.0000
  C   C304      1.0  0.17053  0.50628  0.99760  1.0000
  C   C305      1.0  0.05806  0.55909  0.99048  1.0000
  H   H310      1.0  0.99874  0.53403  0.13505  1.0000
  H   H311      1.0  0.17582  0.51725  0.00375  1.0000
  Fe  Fe49      1.0  0.00262  0.54882  0.09127  1.0000
  C   C306      1.0  0.02321  0.57409  0.04065  1.0000
  N   N26       1.0  0.17457  0.53849  0.06405  1.0000
  C   C307      1.0  0.08020  0.51132  0.00505  1.0000
  C   C308      1.0  0.08303  0.50127  0.00188  1.0000
  C   C309      1.0  0.07606  0.49849  0.99723  1.0000
  C   C310      1.0  0.06647  0.50597  0.99529  1.0000
  C   C311      1.0  0.06391  0.51633  0.99784  1.0000
  C   C312      1.0  0.07074  0.51897  0.00287  1.0000
  C   C313      1.0  0.01450  0.50139  0.08387  1.0000
  C   C314      1.0  0.04385  0.57514  0.99372  1.0000
  C   C315      1.0  0.00244  0.56541  0.22708  1.0000
  H   H312      1.0  0.06859  0.52683  0.00518  1.0000
  C   C316      1.0  0.11653  0.54848  0.02384  1.0000
  N   N27       1.0  0.01064  0.51256  0.08171  1.0000
  C   C317      1.0  0.13480  0.54856  0.02494  1.0000
  C   C318      1.0  0.13326  0.54201  0.03562  1.0000
  S   S110      1.0  0.01233  0.55230  0.07358  1.0000
  H   H313      1.0  0.05079  0.50644  0.02240  1.0000
  S   S111      1.0  0.17749  0.55812  0.99625  1.0000
  H   H314      1.0  0.10739  0.53926  0.03823  1.0000
  H   H315      1.0  0.12205  0.53367  0.04867  1.0000
  H   H316      1.0  0.01613  0.57590  0.03716  1.0000
  C   C319      1.0  0.04436  0.53849  0.07318  1.0000
  H   H317      1.0  0.13970  0.50010  0.00046  1.0000
  C   C320      1.0  0.99654  0.53698  0.14258  1.0000
  H   H318      1.0  0.03000  0.57043  0.06502  1.0000
  C   C321      1.0  0.11501  0.54185  0.03449  1.0000
  H   H319      1.0  0.16712  0.52466  0.07047  1.0000
  C   C322      1.0  0.03366  0.57203  0.03403  1.0000
  Fe  Fe50      1.0  0.99609  0.52991  0.10945  1.0000
  H   H320      1.0  0.07802  0.49048  0.99529  1.0000
  C   C323      1.0  0.11242  0.53086  0.99751  1.0000
  S   S112      1.0  0.07408  0.55555  0.02976  1.0000
  C   C324      1.0  0.12332  0.53871  0.04040  1.0000
  H   H321      1.0  0.16357  0.56329  0.04962  1.0000
  H   H322      1.0  0.98980  0.51409  0.07037  1.0000
  Fe  Fe51      1.0  0.09059  0.54679  0.02184  1.0000
  Fe  Fe52      1.0  0.17627  0.54570  0.01216  1.0000
  S   S113      1.0  0.05527  0.56606  0.00976  1.0000
  C   C325      1.0  0.99423  0.56604  0.21204  1.0000
  H   H323      1.0  0.05077  0.56779  0.03352  1.0000
  C   C326      1.0  0.04203  0.54254  0.05449  1.0000
  S   S114      1.0  0.17018  0.55094  0.02825  1.0000
  H   H324      1.0  0.04542  0.54285  0.04580  1.0000
  S   S115      1.0  0.99768  0.53493  0.22212  1.0000
  H   H325      1.0  0.04648  0.51264  0.03427  1.0000
  C   C327      1.0  0.03112  0.57107  0.05625  1.0000
  C   C328      1.0  0.04269  0.56945  0.03873  1.0000
  H   H326      1.0  0.00176  0.56095  0.20843  1.0000
  H   H327      1.0  0.18424  0.49306  0.04357  1.0000
  H   H328      1.0  0.04964  0.53566  0.07897  1.0000
  H   H329      1.0  0.02468  0.51689  0.08305  1.0000
  H   H330      1.0  0.18034  0.55328  0.05628  1.0000
  H   H331      1.0  0.14747  0.51660  0.99141  1.0000
  C   C329      1.0  0.04891  0.53891  0.06190  1.0000
  H   H332      1.0  0.00551  0.51329  0.21158  1.0000
  H   H333      1.0  0.99388  0.49346  0.13412  1.0000
  C   C330      1.0  0.18454  0.53245  0.06791  1.0000
  S   S116      1.0  0.99182  0.52367  0.17548  1.0000
  N   N28       1.0  0.14169  0.52351  0.00567  1.0000
  C   C331      1.0  0.14670  0.53301  0.00027  1.0000
  C   C332      1.0  0.02625  0.54612  0.06950  1.0000
  C   C333      1.0  0.16629  0.53320  0.06609  1.0000
  C   C334      1.0  0.15570  0.54957  0.05649  1.0000
  C   C335      1.0  0.01566  0.51954  0.08502  1.0000
  C   C336      1.0  0.05214  0.56652  0.99725  1.0000
  H   H334      1.0  0.02551  0.54908  0.05247  1.0000
  H   H335      1.0  0.14239  0.55123  0.02121  1.0000
  C   C337      1.0  0.12644  0.55184  0.01911  1.0000
  H   H336      1.0  0.06779  0.51007  0.02841  1.0000
  Fe  Fe53      1.0  0.06800  0.55230  0.01666  1.0000
  H   H337      1.0  0.06453  0.55245  0.99313  1.0000
  Fe  Fe54      1.0  0.18000  0.52137  0.02266  1.0000
  C   C338      1.0  0.03075  0.54607  0.05830  1.0000
  N   N29       1.0  0.04134  0.56881  0.04975  1.0000
  H   H338      1.0  0.14411  0.53935  0.00529  1.0000
  H   H339      1.0  0.01275  0.51911  0.09403  1.0000
  H   H340      1.0  0.05759  0.56001  0.05049  1.0000
  C   C339      1.0  0.16418  0.55490  0.05444  1.0000
  S   S117      1.0  0.08467  0.54518  0.00779  1.0000
  C   C340      1.0  0.13276  0.50510  0.01595  1.0000
  S   S118      1.0  0.10639  0.55268  0.01607  1.0000
  H   H341      1.0  0.99857  0.52595  0.07551  1.0000
  H   H342      1.0  0.14445  0.53702  0.99219  1.0000
  H   H343      1.0  0.03480  0.57230  0.02533  1.0000
  H   H344      1.0  0.02972  0.54213  0.08562  1.0000
  C   C341      1.0  0.04889  0.50472  0.03157  1.0000
  C   C342      1.0  0.02190  0.57366  0.05182  1.0000
  C   C343      1.0  0.07715  0.49508  0.03636  1.0000
  H   H345      1.0  0.11087  0.51593  0.00970  1.0000
  H   H346      1.0  0.10984  0.49917  0.99196  1.0000
  C   C344      1.0  0.00324  0.49552  0.16068  1.0000
  S   S119      1.0  0.16578  0.53335  0.01660  1.0000
  H   H347      1.0  0.05645  0.52212  0.99634  1.0000
  C   C345      1.0  0.11235  0.51964  0.00094  1.0000
  H   H348      1.0  0.10934  0.49962  0.00574  1.0000
  C   C346      1.0  0.99694  0.51050  0.07388  1.0000
  C   C347      1.0  0.17363  0.54919  0.05826  1.0000
  H   H349      1.0  0.99706  0.49390  0.07372  1.0000
  H   H350      1.0  0.00851  0.49038  0.12965  1.0000
  C   C348      1.0  0.99250  0.54082  0.23385  1.0000
  C   C349      1.0  0.14287  0.51573  0.99991  1.0000
  N   N30       1.0  0.00658  0.49592  0.21545  1.0000
  C   C350      1.0  0.13846  0.50640  0.00496  1.0000
  H   H351      1.0  0.18484  0.53576  0.99425  1.0000
  C   C351      1.0  0.01285  0.50513  0.22542  1.0000
  H   H352      1.0  0.01363  0.52829  0.08061  1.0000
  C   C352      1.0  0.99053  0.50755  0.11000  1.0000
  S   S120      1.0  0.99003  0.56142  0.09988  1.0000
  C   C353      1.0  0.13160  0.51309  0.02176  1.0000
  H   H353      1.0  0.00319  0.50290  0.16312  1.0000
  H   H354      1.0  0.03927  0.58093  0.99886  1.0000
  S   S121      1.0  0.99555  0.55782  0.12930  1.0000
  C   C354      1.0  0.00804  0.50541  0.21695  1.0000
  N   N31       1.0  0.05848  0.49771  0.03565  1.0000
  C   C355      1.0  0.99311  0.49691  0.10824  1.0000
  C   C356      1.0  0.99581  0.52947  0.15283  1.0000
  H   H355      1.0  0.13550  0.52824  0.02115  1.0000
  S   S122      1.0  0.16270  0.49235  0.99094  1.0000
  C   C357      1.0  0.99298  0.53319  0.16265  1.0000
  H   H356      1.0  0.99978  0.49084  0.11126  1.0000
  H   H357      1.0  0.01402  0.51267  0.22655  1.0000
  H   H358      1.0  0.00200  0.50378  0.19998  1.0000
  H   H359      1.0  0.11110  0.53577  0.00352  1.0000
  H   H360      1.0  0.16689  0.51273  0.99154  1.0000
  C   C358      1.0  0.06768  0.50173  0.03312  1.0000
  H   H361      1.0  0.02118  0.49774  0.08804  1.0000
  H   H362      1.0  0.00157  0.50388  0.14412  1.0000
  H   H363      1.0  0.09046  0.49547  0.00327  1.0000
  C   C359      1.0  0.17498  0.55130  0.98776  1.0000
  H   H364      1.0  0.08449  0.49827  0.03417  1.0000
  H   H365      1.0  0.98880  0.54749  0.16962  1.0000
  C   C360      1.0  0.00981  0.49452  0.08085  1.0000
  N   N32       1.0  0.11375  0.51350  0.99339  1.0000
  H   H366      1.0  0.18264  0.52916  0.07696  1.0000
  C   C361      1.0  0.00100  0.49914  0.07579  1.0000
  H   H367      1.0  0.04180  0.50072  0.03463  1.0000
  H   H368      1.0  0.15570  0.53027  0.99884  1.0000
  C   C362      1.0  0.11387  0.50170  0.99704  1.0000
  H   H369      1.0  0.99071  0.56067  0.15152  1.0000
  C   C363      1.0  0.17923  0.53999  0.98890  1.0000
  S   S123      1.0  0.99113  0.54559  0.19220  1.0000
  C   C364      1.0  0.18028  0.48953  0.01305  1.0000
  C   C365      1.0  0.99472  0.54825  0.14206  1.0000
  C   C366      1.0  0.99205  0.55197  0.15187  1.0000
  H   H370      1.0  0.00786  0.57133  0.22337  1.0000
  H   H371      1.0  0.00715  0.55703  0.22607  1.0000
  H   H372      1.0  0.08841  0.57689  0.99143  1.0000
  H   H373      1.0  0.06839  0.58119  0.99293  1.0000
  H   H374      1.0  0.98899  0.51533  0.23464  1.0000
  C   C367      1.0  0.01607  0.49507  0.23244  1.0000
  H   H375      1.0  0.99973  0.56501  0.23611  1.0000
  H   H376      1.0  0.00509  0.48905  0.20293  1.0000
  C   C368      1.0  0.99192  0.50904  0.37952  1.0000
  H   H377      1.0  0.99547  0.60375  0.39760  1.0000
  C   C369      1.0  0.16524  0.97925  0.44685  1.0000
  H   H378      1.0  0.02857  0.93859  0.43452  1.0000
  S   S124      1.0  0.13470  0.98350  0.44260  1.0000
  C   C370      1.0  0.99191  0.71099  0.48431  1.0000
  H   H379      1.0  0.99703  0.73046  0.47894  1.0000
  Fe  Fe55      1.0  0.02182  0.97828  0.44829  1.0000
  S   S125      1.0  0.02888  0.96587  0.43759  1.0000
  H   H380      1.0  0.99531  0.67928  0.44467  1.0000
  Fe  Fe56      1.0  0.01930  0.96039  0.46928  1.0000
  S   S126      1.0  0.02610  0.94662  0.46038  1.0000
  H   H381      1.0  0.99883  0.73236  0.46431  1.0000
  Fe  Fe57      1.0  0.03848  0.95671  0.45055  1.0000
  S   S127      1.0  0.05640  0.94942  0.44862  1.0000
  Fe  Fe58      1.0  0.01571  0.95711  0.44855  1.0000
  S   S128      1.0  0.00419  0.95156  0.44213  1.0000
  S   S129      1.0  0.03233  0.96973  0.46033  1.0000
  S   S130      1.0  0.00789  0.97031  0.45829  1.0000
  Fe  Fe59      1.0  0.09548  0.97870  0.45813  1.0000
  S   S131      1.0  0.09293  0.97474  0.47656  1.0000
  C   C371      1.0  0.99581  0.57922  0.30956  1.0000
  S   S132      1.0  0.11893  0.97477  0.47241  1.0000
  Fe  Fe60      1.0  0.98924  0.56226  0.36731  1.0000
  C   C372      1.0  0.01150  0.57045  0.41100  1.0000
  N   N33       1.0  0.99151  0.58506  0.32970  1.0000
  S   S133      1.0  0.11087  0.96568  0.45528  1.0000
  C   C373      1.0  0.99080  0.62308  0.47596  1.0000
  H   H382      1.0  0.02790  0.50457  0.26269  1.0000
  C   C374      1.0  0.06505  0.97805  0.44544  1.0000
  N   N34       1.0  0.05208  0.98342  0.47917  1.0000
  C   C375      1.0  0.01041  0.50917  0.32211  1.0000
  H   H383      1.0  0.99778  0.69834  0.45904  1.0000
  H   H384      1.0  0.00215  0.54263  0.40232  1.0000
  Fe  Fe61      1.0  0.11960  0.97870  0.45442  1.0000
  C   C376      1.0  0.00695  0.93064  0.41899  1.0000
  C   C377      1.0  0.00166  0.57935  0.32559  1.0000
  C   C378      1.0  0.99404  0.94910  0.48012  1.0000
  C   C379      1.0  0.00665  0.55587  0.40595  1.0000
  C   C380      1.0  0.01011  0.91925  0.42251  1.0000
  H   H385      1.0  0.06195  0.98674  0.44248  1.0000
  H   H386      1.0  0.99860  0.78157  0.47434  1.0000
  H   H387      1.0  0.99365  0.68677  0.47791  1.0000
  C   C381      1.0  0.98914  0.58814  0.34033  1.0000
  C   C382      1.0  0.99898  0.53879  0.24148  1.0000
  H   H388      1.0  0.01979  0.49472  0.23907  1.0000
  C   C383      1.0  0.99938  0.52208  0.33332  1.0000
  N   N35       1.0  0.99132  0.64176  0.48216  1.0000
  H   H389      1.0  0.99723  0.50942  0.29490  1.0000
  S   S134      1.0  0.99783  0.90325  0.44937  1.0000
  C   C384      1.0  0.15722  0.96489  0.46028  1.0000
  C   C385      1.0  0.14666  0.97832  0.44779  1.0000
  C   C386      1.0  0.99405  0.55019  0.42694  1.0000
  C   C387      1.0  0.06257  0.98377  0.47849  1.0000
  S   S135      1.0  0.98886  0.64705  0.43706  1.0000
  H   H390      1.0  0.00512  0.91390  0.42232  1.0000
  Fe  Fe62      1.0  0.10300  0.98697  0.47385  1.0000
  H   H391      1.0  0.02816  0.51569  0.27534  1.0000
  C   C388      1.0  0.00396  0.57633  0.31548  1.0000
  C   C389      1.0  0.99601  0.55377  0.33271  1.0000
  H   H392      1.0  0.99875  0.66504  0.43397  1.0000
  H   H393      1.0  0.01471  0.50756  0.31403  1.0000
  H   H394      1.0  0.05086  0.92400  0.48211  1.0000
  H   H395      1.0  0.99062  0.53784  0.42092  1.0000
  H   H396      1.0  0.98909  0.54808  0.43516  1.0000
  S   S136      1.0  0.08098  0.98451  0.45023  1.0000
  C   C390      1.0  0.01309  0.93742  0.41998  1.0000
  C   C391      1.0  0.02541  0.92179  0.42762  1.0000
  H   H397      1.0  0.99319  0.94605  0.46501  1.0000
  H   H398      1.0  0.99731  0.57656  0.30193  1.0000
  C   C392      1.0  0.03743  0.95274  0.48428  1.0000
  C   C393      1.0  0.98881  0.94676  0.47330  1.0000
  S   S137      1.0  0.99788  0.55775  0.38118  1.0000
  H   H399      1.0  0.02465  0.94898  0.42314  1.0000
  S   S138      1.0  0.01188  0.49394  0.26187  1.0000
  H   H400      1.0  0.04891  0.98388  0.46388  1.0000
  H   H401      1.0  0.99508  0.53038  0.33411  1.0000
  C   C394      1.0  0.99387  0.72903  0.47246  1.0000
  C   C395      1.0  0.99392  0.69531  0.47679  1.0000
  C   C396      1.0  0.99269  0.78475  0.48137  1.0000
  H   H402      1.0  0.14078  0.96501  0.46015  1.0000
  H   H403      1.0  0.99891  0.56314  0.43043  1.0000
  H   H404      1.0  0.02557  0.48935  0.32882  1.0000
  C   C397      1.0  0.99951  0.51350  0.34264  1.0000
  S   S139      1.0  0.99304  0.58619  0.38979  1.0000
  C   C398      1.0  0.14749  0.96912  0.45653  1.0000
  Fe  Fe63      1.0  0.10899  0.96283  0.47366  1.0000
  C   C399      1.0  0.01248  0.50056  0.27172  1.0000
  H   H405      1.0  0.03686  0.93850  0.42072  1.0000
  C   C400      1.0  0.99328  0.52619  0.38261  1.0000
  C   C401      1.0  0.02129  0.50544  0.26983  1.0000
  C   C402      1.0  0.16610  0.96996  0.45551  1.0000
  H   H406      1.0  0.05219  0.97317  0.44192  1.0000
  C   C403      1.0  0.99218  0.51505  0.25009  1.0000
  H   H407      1.0  0.08578  0.96051  0.45660  1.0000
  H   H408      1.0  0.99457  0.63245  0.45924  1.0000
  H   H409      1.0  0.15790  0.95754  0.46677  1.0000
  C   C404      1.0  0.98939  0.60024  0.41524  1.0000
  C   C405      1.0  0.99583  0.51874  0.37579  1.0000
  S   S140      1.0  0.01210  0.52256  0.29378  1.0000
  C   C406      1.0  0.16570  0.98221  0.48277  1.0000
  H   H410      1.0  0.99112  0.91561  0.47474  1.0000
  C   C407      1.0  0.00488  0.51993  0.32298  1.0000
  H   H411      1.0  0.00493  0.52654  0.31566  1.0000
  H   H412      1.0  0.01029  0.94629  0.41770  1.0000
  H   H413      1.0  0.01189  0.57146  0.31244  1.0000
  C   C408      1.0  0.07452  0.97455  0.44960  1.0000
  H   H414      1.0  0.00693  0.53331  0.24038  1.0000
  H   H415      1.0  0.99953  0.93420  0.41596  1.0000
  S   S141      1.0  0.99867  0.55902  0.35066  1.0000
  C   C409      1.0  0.00135  0.54719  0.40848  1.0000
  H   H416      1.0  0.03247  0.91827  0.43125  1.0000
  C   C410      1.0  0.99491  0.54444  0.41899  1.0000
  H   H417      1.0  0.06923  0.97954  0.47296  1.0000
  Fe  Fe64      1.0  0.99604  0.53438  0.29367  1.0000
  C   C411      1.0  0.00401  0.50819  0.28799  1.0000
  H   H418      1.0  0.99822  0.71785  0.45662  1.0000
  C   C412      1.0  0.99030  0.67325  0.44733  1.0000
  C   C413      1.0  0.00400  0.50165  0.28101  1.0000
  N   N36       1.0  0.99430  0.71729  0.47390  1.0000
  H   H419      1.0  0.05645  0.97077  0.47017  1.0000
  H   H420      1.0  0.07610  0.94687  0.45580  1.0000
  S   S142      1.0  0.99622  0.49958  0.37095  1.0000
  N   N37       1.0  0.00566  0.56156  0.41375  1.0000
  C   C414      1.0  0.07299  0.95557  0.45292  1.0000
  H   H421      1.0  0.04219  0.97493  0.47559  1.0000
  C   C415      1.0  0.99098  0.92586  0.44512  1.0000
  C   C416      1.0  0.99172  0.59817  0.40463  1.0000
  H   H422      1.0  0.00454  0.54970  0.33162  1.0000
  H   H423      1.0  0.01161  0.57514  0.40235  1.0000
  C   C417      1.0  0.99177  0.69990  0.48591  1.0000
  S   S143      1.0  0.17823  0.96430  0.46038  1.0000
  H   H424      1.0  0.99648  0.53359  0.37967  1.0000
  H   H425      1.0  0.00094  0.51256  0.24744  1.0000
  C   C418      1.0  0.06343  0.95909  0.44889  1.0000
  H   H426      1.0  0.00102  0.52043  0.36765  1.0000
  H   H427      1.0  0.01150  0.55808  0.39769  1.0000
  C   C419      1.0  0.02147  0.51170  0.27699  1.0000
  H   H428      1.0  0.00743  0.57651  0.41632  1.0000
  N   N38       1.0  0.98966  0.79682  0.47853  1.0000
  H   H429      1.0  0.03785  0.95089  0.47652  1.0000
  C   C420      1.0  0.99265  0.93652  0.44335  1.0000
  C   C421      1.0  0.01270  0.51331  0.28591  1.0000
  C   C422      1.0  0.05947  0.97037  0.44518  1.0000
  C   C423      1.0  0.07847  0.96329  0.45339  1.0000
  C   C424      1.0  0.99534  0.54407  0.25041  1.0000
  C   C425      1.0  0.01941  0.91477  0.42681  1.0000
  C   C426      1.0  0.99646  0.71284  0.46489  1.0000
  C   C427      1.0  0.99962  0.55869  0.42420  1.0000
  N   N39       1.0  0.02217  0.93296  0.42430  1.0000
  H   H430      1.0  0.02166  0.90595  0.42995  1.0000
  C   C428      1.0  0.02839  0.94010  0.42568  1.0000
  H   H431      1.0  0.01999  0.56699  0.41204  1.0000
  C   C429      1.0  0.00165  0.93815  0.44602  1.0000
  C   C430      1.0  0.00876  0.92906  0.45090  1.0000
  C   C431      1.0  0.00723  0.91835  0.45241  1.0000
  C   C432      1.0  0.99844  0.91671  0.44934  1.0000
  C   C433      1.0  0.16662  0.97087  0.48450  1.0000
  H   H432      1.0  0.05467  0.95191  0.48087  1.0000
  H   H433      1.0  0.01568  0.93022  0.45306  1.0000
  H   H434      1.0  0.01302  0.91130  0.45571  1.0000
  H   H435      1.0  0.00529  0.49623  0.34881  1.0000
  S   S144      1.0  0.99444  0.55272  0.28815  1.0000
  H   H436      1.0  0.03468  0.92429  0.47556  1.0000
  C   C434      1.0  0.99344  0.64166  0.47122  1.0000
  H   H437      1.0  0.00792  0.57671  0.33034  1.0000
  C   C435      1.0  0.04979  0.97800  0.47183  1.0000
  H   H438      1.0  0.99536  0.51510  0.35074  1.0000
  H   H439      1.0  0.17287  0.98571  0.47941  1.0000
  H   H440      1.0  0.99445  0.55150  0.31737  1.0000
  H   H441      1.0  0.99741  0.65594  0.48026  1.0000
  C   C436      1.0  0.15557  0.98335  0.44294  1.0000
  H   H442      1.0  0.00053  0.54275  0.25604  1.0000
  C   C437      1.0  0.03372  0.92543  0.48379  1.0000
  H   H443      1.0  0.99726  0.49777  0.28263  1.0000
  C   C438      1.0  0.99628  0.70180  0.46619  1.0000
  C   C439      1.0  0.00516  0.50284  0.34149  1.0000
  H   H444      1.0  0.00236  0.95009  0.47713  1.0000
  H   H445      1.0  0.99516  0.64889  0.46495  1.0000
  H   H446      1.0  0.17213  0.98303  0.44295  1.0000
  H   H447      1.0  0.99523  0.58315  0.34531  1.0000
  H   H448      1.0  0.99130  0.60740  0.41636  1.0000
  H   H449      1.0  0.16589  0.95099  0.48410  1.0000
  S   S145      1.0  0.11234  0.94670  0.48563  1.0000
  C   C440      1.0  0.99086  0.55848  0.34189  1.0000
  C   C441      1.0  0.99225  0.66517  0.44130  1.0000
  C   C442      1.0  0.99317  0.63235  0.46795  1.0000
  H   H450      1.0  0.99281  0.51611  0.26616  1.0000
  H   H451      1.0  0.98913  0.59698  0.33901  1.0000
  C   C443      1.0  0.98986  0.80284  0.48560  1.0000
  C   C444      1.0  0.98929  0.58890  0.40310  1.0000
  N   N40       1.0  0.01046  0.50079  0.33130  1.0000
  C   C445      1.0  0.99057  0.65200  0.48532  1.0000
  C   C446      1.0  0.99032  0.55477  0.32466  1.0000
  H   H452      1.0  0.17462  0.96561  0.48256  1.0000
  C   C447      1.0  0.04364  0.98868  0.48618  1.0000
  C   C448      1.0  0.01675  0.48972  0.33017  1.0000
  H   H453      1.0  0.99026  0.61589  0.47358  1.0000
  C   C449      1.0  0.98921  0.63261  0.49007  1.0000
  Fe  Fe65      1.0  0.03355  0.96683  0.53377  1.0000
  C   C450      1.0  0.98849  0.95004  0.49083  1.0000
  S   S146      1.0  0.01734  0.96182  0.54095  1.0000
  Fe  Fe66      1.0  0.05652  0.96525  0.53559  1.0000
  S   S147      1.0  0.06100  0.97557  0.51866  1.0000
  S   S148      1.0  0.06947  0.95748  0.54525  1.0000
  H   H454      1.0  0.08437  0.97993  0.51797  1.0000
  Fe  Fe67      1.0  0.04463  0.98640  0.52340  1.0000
  Fe  Fe68      1.0  0.05207  0.96594  0.51384  1.0000
  S   S149      1.0  0.05785  0.95886  0.49882  1.0000
  C   C451      1.0  0.98890  0.62315  0.48710  1.0000
  S   S150      1.0  0.04919  0.95451  0.53029  1.0000
  C   C452      1.0  0.12229  0.96036  0.50448  1.0000
  C   C453      1.0  0.03098  0.92873  0.50472  1.0000
  Fe  Fe69      1.0  0.13809  0.98212  0.53623  1.0000
  H   H455      1.0  0.00745  0.50194  0.68847  1.0000
  H   H456      1.0  0.02138  0.96386  0.56072  1.0000
  H   H457      1.0  0.05208  0.92343  0.55236  1.0000
  H   H458      1.0  0.99815  0.88492  0.50880  1.0000
  C   C454      1.0  0.02739  0.95490  0.49166  1.0000
  C   C455      1.0  0.09794  0.94512  0.51860  1.0000
  Fe  Fe70      1.0  0.13346  0.97028  0.52146  1.0000
  S   S151      1.0  0.13844  0.95414  0.51616  1.0000
  H   H459      1.0  0.18364  0.98792  0.53169  1.0000
  S   S152      1.0  0.12637  0.97125  0.53920  1.0000
  C   C456      1.0  0.99200  0.87104  0.49828  1.0000
  C   C457      1.0  0.00001  0.50417  0.69441  1.0000
  H   H460      1.0  0.13891  0.93498  0.50896  1.0000
  H   H461      1.0  0.02067  0.94393  0.56186  1.0000
  C   C458      1.0  0.00304  0.49432  0.58223  1.0000
  C   C459      1.0  0.17761  0.97537  0.51197  1.0000
  H   H462      1.0  0.00620  0.88317  0.49533  1.0000
  H   H463      1.0  0.15919  0.95051  0.49854  1.0000
  H   H464      1.0  0.99250  0.79880  0.49323  1.0000
  C   C460      1.0  0.02707  0.95640  0.50202  1.0000
  H   H465      1.0  0.99642  0.93552  0.54137  1.0000
  H   H466      1.0  0.12865  0.93194  0.49703  1.0000
  S   S153      1.0  0.14666  0.98198  0.54907  1.0000
  C   C461      1.0  0.18066  0.96744  0.52103  1.0000
  C   C462      1.0  0.09258  0.94396  0.51124  1.0000
  H   H467      1.0  0.99075  0.65053  0.49416  1.0000
  H   H468      1.0  0.09297  0.93586  0.51013  1.0000
  C   C463      1.0  0.07717  0.96713  0.54363  1.0000
  Fe  Fe71      1.0  0.99191  0.91381  0.51207  1.0000
  C   C464      1.0  0.08799  0.96361  0.54473  1.0000
  N   N41       1.0  0.03430  0.94972  0.56207  1.0000
  H   H469      1.0  0.18291  0.98733  0.49742  1.0000
  C   C465      1.0  0.04651  0.95573  0.49673  1.0000
  H   H470      1.0  0.11040  0.96529  0.49452  1.0000
  H   H471      1.0  0.03631  0.95799  0.51255  1.0000
  H   H472      1.0  0.03187  0.92694  0.55592  1.0000
  H   H473      1.0  0.08260  0.97092  0.50126  1.0000
  C   C466      1.0  0.13044  0.95189  0.50848  1.0000
  H   H474      1.0  0.99535  0.52144  0.67191  1.0000
  C   C467      1.0  0.17678  0.96799  0.55415  1.0000
  N   N42       1.0  0.09239  0.96480  0.51324  1.0000
  H   H475      1.0  0.06422  0.98115  0.54013  1.0000
  S   S154      1.0  0.99709  0.87344  0.53134  1.0000
  C   C468      1.0  0.14628  0.98441  0.48949  1.0000
  H   H476      1.0  0.99004  0.71455  0.49146  1.0000
  S   S155      1.0  0.99015  0.51969  0.71975  1.0000
  S   S156      1.0  0.99025  0.49601  0.68330  1.0000
  S   S157      1.0  0.01280  0.91551  0.53756  1.0000
  C   C469      1.0  0.09769  0.95567  0.51957  1.0000
  C   C470      1.0  0.12682  0.93985  0.49916  1.0000
  C   C471      1.0  0.03665  0.95672  0.50457  1.0000
  S   S158      1.0  0.00535  0.90212  0.51951  1.0000
  H   H477      1.0  0.06076  0.93699  0.55509  1.0000
  Fe  Fe72      1.0  0.99299  0.89202  0.52918  1.0000
  C   C472      1.0  0.02946  0.94231  0.56063  1.0000
  C   C473      1.0  0.00561  0.94739  0.54049  1.0000
  C   C474      1.0  0.08690  0.96371  0.50619  1.0000
  H   H478      1.0  0.99257  0.50482  0.61667  1.0000
  Fe  Fe73      1.0  0.11531  0.98668  0.53223  1.0000
  H   H479      1.0  0.99844  0.95355  0.54286  1.0000
  C   C475      1.0  0.00444  0.93719  0.53963  1.0000
  H   H480      1.0  0.03318  0.94300  0.53387  1.0000
  C   C476      1.0  0.11898  0.94849  0.49481  1.0000
  S   S159      1.0  0.12145  0.98495  0.51470  1.0000
  H   H481      1.0  0.00473  0.93195  0.50393  1.0000
  C   C477      1.0  0.07879  0.98612  0.53946  1.0000
  H   H482      1.0  0.03230  0.96557  0.56537  1.0000
  H   H483      1.0  0.16059  0.96523  0.56126  1.0000
  N   N43       1.0  0.98967  0.88192  0.49863  1.0000
  C   C478      1.0  0.02335  0.92742  0.49067  1.0000
  H   H484      1.0  0.03120  0.92482  0.53325  1.0000
  C   C479      1.0  0.13263  0.94159  0.50589  1.0000
  C   C480      1.0  0.16751  0.98460  0.53823  1.0000
  H   H485      1.0  0.00751  0.51120  0.70285  1.0000
  C   C481      1.0  0.01124  0.93166  0.50799  1.0000
  C   C482      1.0  0.02516  0.94149  0.53546  1.0000
  C   C483      1.0  0.09256  0.97587  0.51387  1.0000
  C   C484      1.0  0.99950  0.77810  0.51255  1.0000
  C   C485      1.0  0.99988  0.76784  0.51076  1.0000
  H   H486      1.0  0.99645  0.89574  0.49671  1.0000
  C   C486      1.0  0.04281  0.92520  0.48750  1.0000
  H   H487      1.0  0.00695  0.78012  0.51260  1.0000
  H   H488      1.0  0.00762  0.76203  0.50946  1.0000
  H   H489      1.0  0.04930  0.95366  0.56136  1.0000
  C   C487      1.0  0.04540  0.94780  0.56026  1.0000
  C   C488      1.0  0.04709  0.93074  0.55522  1.0000
  H   H490      1.0  0.00694  0.56100  0.73150  1.0000
  H   H491      1.0  0.12046  0.96828  0.50646  1.0000
  H   H492      1.0  0.99841  0.85119  0.53009  1.0000
  C   C489      1.0  0.02402  0.93117  0.53508  1.0000
  C   C490      1.0  0.04146  0.92678  0.49806  1.0000
  H   H493      1.0  0.09500  0.98092  0.50546  1.0000
  H   H494      1.0  0.02306  0.95724  0.57460  1.0000
  C   C491      1.0  0.01599  0.94954  0.53851  1.0000
  C   C492      1.0  0.11665  0.95869  0.49760  1.0000
  C   C493      1.0  0.99912  0.55868  0.73622  1.0000
  S   S160      1.0  0.03602  0.97776  0.51689  1.0000
  H   H495      1.0  0.10208  0.95650  0.52514  1.0000
  H   H496      1.0  0.01938  0.95774  0.50792  1.0000
  H   H497      1.0  0.08274  0.95247  0.49929  1.0000
  H   H498      1.0  0.09153  0.95490  0.54687  1.0000
  C   C494      1.0  0.05196  0.93831  0.55676  1.0000
  H   H499      1.0  0.17477  0.96306  0.52701  1.0000
  C   C495      1.0  0.01368  0.92896  0.53718  1.0000
  C   C496      1.0  0.14747  0.97310  0.49083  1.0000
  C   C497      1.0  0.98962  0.78571  0.51430  1.0000
  N   N44       1.0  0.02211  0.92915  0.50095  1.0000
  C   C498      1.0  0.07259  0.97839  0.54093  1.0000
  C   C499      1.0  0.99266  0.49072  0.57144  1.0000
  C   C500      1.0  0.16563  0.97001  0.55461  1.0000
  H   H500      1.0  0.01630  0.92777  0.48768  1.0000
  H   H501      1.0  0.02993  0.93026  0.51281  1.0000
  C   C501      1.0  0.09431  0.97135  0.54289  1.0000
  S   S161      1.0  0.04060  0.97669  0.54081  1.0000
  H   H502      1.0  0.98906  0.50580  0.57700  1.0000
  C   C502      1.0  0.03577  0.93269  0.55723  1.0000
  C   C503      1.0  0.00005  0.50939  0.70253  1.0000
  C   C504      1.0  0.08968  0.98262  0.54034  1.0000
  H   H503      1.0  0.99994  0.86589  0.49910  1.0000
  H   H504      1.0  0.01057  0.92526  0.51574  1.0000
  C   C505      1.0  0.02745  0.95958  0.56590  1.0000
  Fe  Fe74      1.0  0.99905  0.91177  0.53285  1.0000
  C   C506      1.0  0.17866  0.98288  0.53805  1.0000
  H   H505      1.0  0.10270  0.96861  0.54367  1.0000
  H   H506      1.0  0.09848  0.97563  0.51865  1.0000
  H   H507      1.0  0.18030  0.96151  0.56033  1.0000
  H   H508      1.0  0.16941  0.97708  0.51077  1.0000
  H   H509      1.0  0.99252  0.95181  0.49619  1.0000
  H   H510      1.0  0.00423  0.49963  0.58675  1.0000
  C   C507      1.0  0.16094  0.97827  0.54669  1.0000
  C   C508      1.0  0.15861  0.95461  0.48989  1.0000
  H   H511      1.0  0.15141  0.95284  0.48833  1.0000
  C   C509      1.0  0.04700  0.95313  0.48681  1.0000
  C   C510      1.0  0.08691  0.95329  0.50507  1.0000
  H   H512      1.0  0.04843  0.92687  0.50094  1.0000
  S   S162      1.0  0.98882  0.52848  0.61391  1.0000
  C   C511      1.0  0.18516  0.98113  0.50450  1.0000
  H   H513      1.0  0.00981  0.93979  0.51005  1.0000
  H   H514      1.0  0.99017  0.51914  0.65588  1.0000
  C   C512      1.0  0.99802  0.88667  0.49994  1.0000
  C   C513      1.0  0.99035  0.50190  0.69392  1.0000
  C   C514      1.0  0.99037  0.76501  0.51072  1.0000
  H   H515      1.0  0.10249  0.93793  0.52333  1.0000
  H   H516      1.0  0.99313  0.56182  0.73084  1.0000
  S   S163      1.0  0.99403  0.92049  0.49390  1.0000
  C   C515      1.0  0.99073  0.85620  0.52828  1.0000
  S   S164      1.0  0.14623  0.97972  0.51915  1.0000
  S   S165      1.0  0.99158  0.75183  0.50860  1.0000
  S   S166      1.0  0.98990  0.79848  0.51640  1.0000
  C   C516      1.0  0.99449  0.49778  0.57678  1.0000
  C   C517      1.0  0.99037  0.51257  0.71000  1.0000
  C   C518      1.0  0.18329  0.97455  0.54606  1.0000
  H   H517      1.0  0.98989  0.69494  0.49420  1.0000
  S   S167      1.0  0.01528  0.95624  0.48772  1.0000
  H   H518      1.0  0.03534  0.98829  0.48679  1.0000
  H   H519      1.0  0.99649  0.78164  0.48864  1.0000
  H   H520      1.0  0.14030  0.96963  0.49392  1.0000
  N   N45       1.0  0.15753  0.96650  0.48820  1.0000
  C   C519      1.0  0.98809  0.86749  0.52823  1.0000
  C   C520      1.0  0.08998  0.51222  0.95677  1.0000
  C   C521      1.0  0.04184  0.49331  0.97522  1.0000
  C   C522      1.0  0.07002  0.53193  0.91193  1.0000
  Fe  Fe75      1.0  0.06869  0.54315  0.94420  1.0000
  S   S168      1.0  0.06151  0.56063  0.93712  1.0000
  S   S169      1.0  0.08679  0.53693  0.94054  1.0000
  Fe  Fe76      1.0  0.04647  0.53725  0.95330  1.0000
  S   S170      1.0  0.03750  0.55439  0.94747  1.0000
  S   S171      1.0  0.03730  0.52374  0.96045  1.0000
  Fe  Fe77      1.0  0.05028  0.55378  0.93183  1.0000
  S   S172      1.0  0.04757  0.55687  0.91461  1.0000
  Fe  Fe78      1.0  0.04960  0.55929  0.95354  1.0000
  S   S173      1.0  0.04536  0.57260  0.96303  1.0000
  S   S174      1.0  0.05876  0.53633  0.93750  1.0000
  S   S175      1.0  0.05740  0.54209  0.96087  1.0000
  S   S176      1.0  0.02687  0.50975  0.92229  1.0000
  H   H521      1.0  0.15435  0.48940  0.90497  1.0000
  H   H522      1.0  0.06353  0.53834  0.90891  1.0000
  Fe  Fe79      1.0  0.13079  0.55318  0.95404  1.0000
  S   S177      1.0  0.13935  0.53547  0.95783  1.0000
  S   S178      1.0  0.11271  0.55726  0.96135  1.0000
  Fe  Fe80      1.0  0.15185  0.56030  0.94093  1.0000
  S   S179      1.0  0.16185  0.54306  0.94306  1.0000
  S   S180      1.0  0.15986  0.57462  0.93221  1.0000
  Fe  Fe81      1.0  0.14781  0.53870  0.94001  1.0000
  S   S181      1.0  0.14998  0.52540  0.93115  1.0000
  Fe  Fe82      1.0  0.15247  0.54151  0.96047  1.0000
  S   S182      1.0  0.16175  0.53138  0.97320  1.0000
  S   S183      1.0  0.13858  0.55618  0.93593  1.0000
  S   S184      1.0  0.14312  0.55902  0.95867  1.0000
  H   H523      1.0  0.09360  0.57541  0.95761  1.0000
  S   S185      1.0  0.11627  0.49822  0.96354  1.0000
  H   H524      1.0  0.06296  0.51882  0.91171  1.0000
  H   H525      1.0  0.18378  0.49350  0.97669  1.0000
  Fe  Fe83      1.0  0.02643  0.49186  0.92792  1.0000
  C   C523      1.0  0.16446  0.55078  0.97540  1.0000
  H   H526      1.0  0.15532  0.51377  0.91430  1.0000
  H   H527      1.0  0.06056  0.55500  0.97472  1.0000
  H   H528      1.0  0.16597  0.50833  0.97001  1.0000
  C   C524      1.0  0.17743  0.56493  0.94205  1.0000
  H   H529      1.0  0.06131  0.58266  0.97669  1.0000
  S   S186      1.0  0.00547  0.54294  0.88725  1.0000
  H   H530      1.0  0.05939  0.51259  0.96269  1.0000
  C   C525      1.0  0.17489  0.58448  0.93423  1.0000
  S   S187      1.0  0.99957  0.56154  0.90950  1.0000
  Fe  Fe84      1.0  0.99915  0.55396  0.87253  1.0000
  S   S188      1.0  0.00979  0.55616  0.85546  1.0000
  H   H531      1.0  0.06638  0.49316  0.93286  1.0000
  C   C526      1.0  0.06968  0.52090  0.91345  1.0000
  H   H532      1.0  0.18715  0.59223  0.93496  1.0000
  H   H533      1.0  0.08271  0.54739  0.91853  1.0000
  N   N46       1.0  0.08288  0.51660  0.96523  1.0000
  H   H534      1.0  0.00033  0.54956  0.73832  1.0000
  H   H535      1.0  0.07797  0.50400  0.91838  1.0000
  H   H536      1.0  0.09307  0.52863  0.92015  1.0000
  C   C527      1.0  0.00105  0.52211  0.93984  1.0000
  H   H537      1.0  0.11391  0.54452  0.98352  1.0000
  H   H538      1.0  0.15654  0.49100  0.97163  1.0000
  H   H539      1.0  0.09854  0.51235  0.95488  1.0000
  N   N47       1.0  0.07828  0.53460  0.91446  1.0000
  C   C528      1.0  0.07205  0.51660  0.96745  1.0000
  C   C529      1.0  0.00513  0.55589  0.84404  1.0000
  C   C530      1.0  0.01115  0.55964  0.83352  1.0000
  C   C531      1.0  0.00748  0.56041  0.82414  1.0000
  C   C532      1.0  0.17205  0.48980  0.90984  1.0000
  N   N48       1.0  0.01329  0.49896  0.88760  1.0000
  H   H540      1.0  0.01861  0.56216  0.83262  1.0000
  H   H541      1.0  0.01211  0.56357  0.81606  1.0000
  H   H542      1.0  0.08066  0.52734  0.97590  1.0000
  C   C533      1.0  0.01208  0.49742  0.89873  1.0000
  C   C534      1.0  0.18131  0.50035  0.91534  1.0000
  H   H543      1.0  0.18303  0.52539  0.95567  1.0000
  C   C535      1.0  0.02117  0.51452  0.88449  1.0000
  C   C536      1.0  0.14026  0.51778  0.93913  1.0000
  C   C537      1.0  0.14252  0.50633  0.94052  1.0000
  C   C538      1.0  0.13502  0.50033  0.94791  1.0000
  C   C539      1.0  0.12542  0.50575  0.95404  1.0000
  C   C540      1.0  0.12302  0.51719  0.95235  1.0000
  C   C541      1.0  0.13040  0.52316  0.94481  1.0000
  H   H544      1.0  0.15015  0.50210  0.93617  1.0000
  C   C542      1.0  0.04160  0.57655  0.98341  1.0000
  H   H545      1.0  0.11541  0.52149  0.95666  1.0000
  H   H546      1.0  0.12856  0.53199  0.94340  1.0000
  C   C543      1.0  0.17135  0.57465  0.93672  1.0000
  H   H547      1.0  0.02458  0.52129  0.87886  1.0000
  H   H548      1.0  0.99643  0.52193  0.85677  1.0000
  C   C544      1.0  0.01541  0.50438  0.90300  1.0000
  H   H549      1.0  0.00879  0.49483  0.87483  1.0000
  H   H550      1.0  0.04267  0.50155  0.97000  1.0000
  H   H551      1.0  0.17474  0.55732  0.94411  1.0000
  N   N49       1.0  0.07700  0.57911  0.96623  1.0000
  H   H552      1.0  0.08292  0.54916  0.90409  1.0000
  C   C545      1.0  0.17289  0.50858  0.96273  1.0000
  H   H553      1.0  0.99088  0.49055  0.83973  1.0000
  H   H554      1.0  0.01599  0.54061  0.92868  1.0000
  C   C546      1.0  0.17188  0.50864  0.91606  1.0000
  C   C547      1.0  0.18141  0.49082  0.91228  1.0000
  C   C548      1.0  0.08625  0.50793  0.95012  1.0000
  H   H555      1.0  0.18274  0.54897  0.91118  1.0000
  C   C549      1.0  0.99782  0.55728  0.82512  1.0000
  C   C550      1.0  0.03422  0.55794  0.91332  1.0000
  C   C551      1.0  0.02514  0.56171  0.92113  1.0000
  C   C552      1.0  0.01460  0.56303  0.91967  1.0000
  C   C553      1.0  0.01302  0.56028  0.91058  1.0000
  C   C554      1.0  0.02209  0.55633  0.90284  1.0000
  C   C555      1.0  0.03267  0.55530  0.90414  1.0000
  H   H556      1.0  0.02623  0.56392  0.92813  1.0000
  H   H557      1.0  0.00762  0.56616  0.92565  1.0000
  H   H558      1.0  0.02097  0.55423  0.89578  1.0000
  H   H559      1.0  0.03966  0.55246  0.89802  1.0000
  C   C556      1.0  0.03353  0.52051  0.94994  1.0000
  C   C557      1.0  0.03578  0.52651  0.93905  1.0000
  C   C558      1.0  0.03376  0.52319  0.93054  1.0000
  C   C559      1.0  0.02912  0.51408  0.93297  1.0000
  C   C560      1.0  0.02613  0.50857  0.94395  1.0000
  C   C561      1.0  0.02843  0.51171  0.95241  1.0000
  H   H560      1.0  0.03897  0.53379  0.93712  1.0000
  H   H561      1.0  0.03575  0.52773  0.92211  1.0000
  H   H562      1.0  0.02190  0.50197  0.94597  1.0000
  H   H563      1.0  0.02623  0.50732  0.96086  1.0000
  C   C562      1.0  0.09361  0.54312  0.94618  1.0000
  C   C563      1.0  0.10441  0.54375  0.94115  1.0000
  C   C564      1.0  0.11010  0.54845  0.94562  1.0000
  C   C565      1.0  0.10523  0.55207  0.95540  1.0000
  C   C566      1.0  0.09442  0.55137  0.96053  1.0000
  C   C567      1.0  0.08852  0.54711  0.95578  1.0000
  H   H564      1.0  0.10837  0.54072  0.93370  1.0000
  H   H565      1.0  0.11828  0.54931  0.94144  1.0000
  H   H566      1.0  0.09062  0.55398  0.96821  1.0000
  H   H567      1.0  0.08017  0.54663  0.95972  1.0000
  H   H568      1.0  0.07023  0.55144  0.91408  1.0000
  N   N50       1.0  0.18248  0.50938  0.96586  1.0000
  C   C568      1.0  0.07859  0.54620  0.91267  1.0000
  Fe  Fe85      1.0  0.99545  0.55632  0.89614  1.0000
  H   H569      1.0  0.14964  0.50411  0.90241  1.0000
  C   C569      1.0  0.18670  0.51862  0.96155  1.0000
  H   H570      1.0  0.09303  0.50897  0.92257  1.0000
  C   C570      1.0  0.99187  0.55323  0.83562  1.0000
  C   C571      1.0  0.01999  0.51298  0.89584  1.0000
  H   H571      1.0  0.99246  0.59172  0.84777  1.0000
  C   C572      1.0  0.99213  0.48983  0.81333  1.0000
  C   C573      1.0  0.00380  0.53223  0.92129  1.0000
  H   H572      1.0  0.09192  0.50464  0.94334  1.0000
  C   C574      1.0  0.01009  0.49127  0.88335  1.0000
  H   H573      1.0  0.01874  0.50860  0.87166  1.0000
  H   H574      1.0  0.07217  0.50484  0.94704  1.0000
  H   H575      1.0  0.11668  0.53321  0.96991  1.0000
  H   H576      1.0  0.14665  0.49581  0.91623  1.0000
  H   H577      1.0  0.00176  0.52080  0.94828  1.0000
  N   N51       1.0  0.00455  0.53068  0.93195  1.0000
  H   H578      1.0  0.99239  0.51087  0.92394  1.0000
  C   C575      1.0  0.06803  0.51240  0.96095  1.0000
  H   H579      1.0  0.02257  0.51844  0.89912  1.0000
  H   H580      1.0  0.00225  0.48929  0.88854  1.0000
  H   H581      1.0  0.01438  0.50315  0.91181  1.0000
  H   H582      1.0  0.17896  0.52526  0.98458  1.0000
  H   H583      1.0  0.00285  0.54879  0.75632  1.0000
  C   C576      1.0  0.08651  0.51540  0.91963  1.0000
  C   C577      1.0  0.08650  0.52651  0.91819  1.0000
  H   H584      1.0  0.99833  0.52673  0.87326  1.0000
  C   C578      1.0  0.07002  0.58085  0.97595  1.0000
  H   H585      1.0  0.99415  0.50786  0.94331  1.0000
  H   H586      1.0  0.17163  0.51594  0.91876  1.0000
  H   H587      1.0  0.00838  0.49087  0.90437  1.0000
  C   C579      1.0  0.18692  0.57676  0.97067  1.0000
  C   C580      1.0  0.18705  0.50087  0.97333  1.0000
  H   H588      1.0  0.07817  0.58109  0.94898  1.0000
  H   H589      1.0  0.17469  0.50110  0.95944  1.0000
  C   C581      1.0  0.07518  0.50806  0.95220  1.0000
  C   C582      1.0  0.18046  0.55280  0.91840  1.0000
  H   H590      1.0  0.15857  0.55496  0.97045  1.0000
  C   C583      1.0  0.01784  0.50732  0.88048  1.0000
  C   C584      1.0  0.00867  0.53859  0.93495  1.0000
  N   N52       1.0  0.16285  0.49802  0.91052  1.0000
  H   H591      1.0  0.17021  0.59203  0.93017  1.0000
  C   C585      1.0  0.99403  0.52040  0.87428  1.0000
  C   C586      1.0  0.07399  0.58011  0.98515  1.0000
  C   C587      1.0  0.15291  0.49679  0.90839  1.0000
  C   C588      1.0  0.08700  0.52080  0.97229  1.0000
  C   C589      1.0  0.16267  0.50734  0.91358  1.0000
  C   C590      1.0  0.07803  0.51260  0.91727  1.0000
  H   H592      1.0  0.17366  0.57379  0.90890  1.0000
  C   C591      1.0  0.16802  0.53933  0.97728  1.0000
  H   H593      1.0  0.10103  0.57427  0.97352  1.0000
  H   H594      1.0  0.03533  0.58342  0.98068  1.0000
  H   H595      1.0  0.06639  0.52000  0.97418  1.0000
  H   H596      1.0  0.00214  0.58035  0.84241  1.0000
  C   C592      1.0  0.18159  0.57212  0.91080  1.0000
  H   H597      1.0  0.17031  0.51579  0.95622  1.0000
  C   C593      1.0  0.99431  0.58273  0.84824  1.0000
  H   H598      1.0  0.06456  0.58446  0.95699  1.0000
  H   H599      1.0  0.11680  0.51332  0.97638  1.0000
  H   H600      1.0  0.17148  0.55589  0.92043  1.0000
  C   C594      1.0  0.98948  0.49319  0.83142  1.0000
  C   C595      1.0  0.04757  0.56933  0.97650  1.0000
  H   H601      1.0  0.18128  0.57867  0.97842  1.0000
  C   C596      1.0  0.08802  0.57692  0.96528  1.0000
  H   H602      1.0  0.07159  0.57029  0.95805  1.0000
  C   C597      1.0  0.09228  0.57622  0.97428  1.0000
  H   H603      1.0  0.00234  0.54632  0.93534  1.0000
  C   C598      1.0  0.05576  0.56050  0.98008  1.0000
  H   H604      1.0  0.18260  0.54637  0.92566  1.0000
  C   C599      1.0  0.99550  0.55259  0.84510  1.0000
  C   C600      1.0  0.07266  0.57875  0.95710  1.0000
  H   H605      1.0  0.08955  0.51398  0.97907  1.0000
  H   H606      1.0  0.99202  0.58277  0.82841  1.0000
  H   H607      1.0  0.03338  0.49243  0.97636  1.0000
  H   H608      1.0  0.01115  0.53526  0.94299  1.0000
  S   S189      1.0  0.18552  0.51187  0.93526  1.0000
  H   H609      1.0  0.18212  0.57513  0.96570  1.0000
  H   H610      1.0  0.09407  0.52451  0.96746  1.0000
  H   H611      1.0  0.04307  0.49289  0.98347  1.0000
  H   H612      1.0  0.13682  0.49149  0.94907  1.0000
  C   C601      1.0  0.11548  0.51822  0.98237  1.0000
  H   H613      1.0  0.00672  0.53892  0.91502  1.0000
  S   S190      1.0  0.11571  0.49004  0.93714  1.0000
  H   H614      1.0  0.14569  0.48922  0.96691  1.0000
  C   C602      1.0  0.99796  0.55711  0.75584  1.0000
  C   C603      1.0  0.99313  0.51755  0.86494  1.0000
  C   C604      1.0  0.16798  0.55681  0.98063  1.0000
  C   C605      1.0  0.99672  0.51478  0.93708  1.0000
  C   C606      1.0  0.18451  0.58458  0.93692  1.0000
  N   N53       1.0  0.18609  0.56179  0.91599  1.0000
  S   S191      1.0  0.99062  0.56802  0.88093  1.0000
  C   C607      1.0  0.11549  0.52944  0.97866  1.0000
  N   N54       1.0  0.99509  0.56319  0.74618  1.0000
  H   H615      1.0  0.16471  0.56558  0.97973  1.0000
  S   S192      1.0  0.99310  0.55975  0.81302  1.0000
  C   C608      1.0  0.18684  0.58081  0.90844  1.0000
  C   C609      1.0  0.17585  0.53403  0.98352  1.0000
  C   C610      1.0  0.18724  0.56497  0.94443  1.0000
  Fe  Fe86      1.0  0.98992  0.53722  0.89141  1.0000
  C   C611      1.0  0.99580  0.51641  0.92623  1.0000
  C   C612      1.0  0.99936  0.52519  0.91829  1.0000
  H   H616      1.0  0.99561  0.57825  0.85660  1.0000
  S   S193      1.0  0.98943  0.51937  0.89651  1.0000
  C   C613      1.0  0.99429  0.56135  0.76538  1.0000
  H   H617      1.0  0.18302  0.58907  0.90473  1.0000
  C   C614      1.0  0.98935  0.51509  0.88486  1.0000
  H   H618      1.0  0.99626  0.55635  0.77312  1.0000
  H   H619      1.0  0.99080  0.54967  0.85316  1.0000
  C   C615      1.0  0.08521  0.57770  0.98431  1.0000
  H   H620      1.0  0.99873  0.52653  0.90984  1.0000
  H   H621      1.0  0.15811  0.49180  0.95715  1.0000
  H   H622      1.0  0.98895  0.49853  0.79347  1.0000
  C   C616      1.0  0.11396  0.53579  0.98629  1.0000
  C   C617      1.0  0.98877  0.57362  0.74567  1.0000
  C   C618      1.0  0.38031  0.23986  0.06286  1.0000
  H   H623      1.0  0.19186  0.42391  0.02440  1.0000
  H   H624      1.0  0.37486  0.23560  0.06956  1.0000
  H   H625      1.0  0.21121  0.46834  0.05364  1.0000
  H   H626      1.0  0.20204  0.45382  0.05394  1.0000
  H   H627      1.0  0.37868  0.22801  0.03177  1.0000
  H   H628      1.0  0.37200  0.99082  0.12318  1.0000
  C   C619      1.0  0.27017  0.48592  0.01617  1.0000
  S   S194      1.0  0.21864  0.47247  0.02484  1.0000
  H   H629      1.0  0.31635  0.47784  0.00265  1.0000
  H   H630      1.0  0.22110  0.43534  0.00857  1.0000
  C   C620      1.0  0.38400  0.27792  0.99068  1.0000
  C   C621      1.0  0.21259  0.43581  0.00907  1.0000
  H   H631      1.0  0.37982  0.99899  0.13441  1.0000
  C   C622      1.0  0.19820  0.48166  0.04869  1.0000
  C   C623      1.0  0.21907  0.47808  0.98923  1.0000
  C   C624      1.0  0.38629  0.01163  0.18470  1.0000
  C   C625      1.0  0.36782  0.99953  0.09844  1.0000
  C   C626      1.0  0.35950  0.48589  0.04226  1.0000
  Fe  Fe87      1.0  0.33965  0.46826  0.02992  1.0000
  H   H632      1.0  0.28097  0.45757  0.04480  1.0000
  S   S195      1.0  0.38245  0.06294  0.07735  1.0000
  S   S196      1.0  0.33735  0.48162  0.99021  1.0000
  H   H633      1.0  0.20820  0.47651  0.00529  1.0000
  H   H634      1.0  0.21564  0.41225  0.02165  1.0000
  S   S197      1.0  0.38109  0.02746  0.19654  1.0000
  H   H635      1.0  0.37570  0.25442  0.06943  1.0000
  C   C627      1.0  0.38712  0.08297  0.13685  1.0000
  C   C628      1.0  0.37331  0.26348  0.03211  1.0000
  H   H636      1.0  0.37366  0.07622  0.12163  1.0000
  C   C629      1.0  0.38140  0.41312  0.03303  1.0000
  Fe  Fe88      1.0  0.34334  0.44853  0.01987  1.0000
  S   S198      1.0  0.32913  0.45622  0.01175  1.0000
  S   S199      1.0  0.35389  0.43261  0.01541  1.0000
  Fe  Fe89      1.0  0.33554  0.47153  0.00744  1.0000
  H   H637      1.0  0.29932  0.48006  0.99691  1.0000
  Fe  Fe90      1.0  0.32011  0.46161  0.02751  1.0000
  S   S200      1.0  0.30252  0.46144  0.03624  1.0000
  S   S201      1.0  0.35037  0.46358  0.01434  1.0000
  S   S202      1.0  0.33376  0.45242  0.03620  1.0000
  Fe  Fe91      1.0  0.25008  0.46027  0.01963  1.0000
  C   C630      1.0  0.19629  0.44473  0.00218  1.0000
  S   S203      1.0  0.26832  0.45537  0.01333  1.0000
  Fe  Fe92      1.0  0.22735  0.45480  0.02747  1.0000
  S   S204      1.0  0.38766  0.20322  0.03395  1.0000
  S   S205      1.0  0.21764  0.44158  0.03383  1.0000
  S   S206      1.0  0.22815  0.48335  0.99274  1.0000
  S   S207      1.0  0.24294  0.47839  0.01631  1.0000
  H   H638      1.0  0.37225  0.05402  0.15507  1.0000
  S   S208      1.0  0.23923  0.45642  0.01116  1.0000
  C   C631      1.0  0.20972  0.47552  0.99694  1.0000
  H   H639      1.0  0.35764  0.99650  0.12388  1.0000
  C   C632      1.0  0.20368  0.44503  0.03375  1.0000
  C   C633      1.0  0.38702  0.10968  0.98889  1.0000
  H   H640      1.0  0.38475  0.40922  0.99422  1.0000
  H   H641      1.0  0.20421  0.45902  0.02000  1.0000
  C   C634      1.0  0.29328  0.45941  0.02975  1.0000
  C   C635      1.0  0.28295  0.45791  0.03604  1.0000
  C   C636      1.0  0.27516  0.45685  0.03107  1.0000
  C   C637      1.0  0.27772  0.45710  0.01979  1.0000
  C   C638      1.0  0.28810  0.45845  0.01351  1.0000
  C   C639      1.0  0.29584  0.45969  0.01845  1.0000
  Fe  Fe93      1.0  0.23109  0.47463  0.03243  1.0000
  H   H642      1.0  0.26724  0.45566  0.03600  1.0000
  H   H643      1.0  0.29016  0.45860  0.00478  1.0000
  H   H644      1.0  0.30375  0.46089  0.01352  1.0000
  N   N55       1.0  0.35380  0.40368  0.03137  1.0000
  H   H645      1.0  0.34650  0.41144  0.01753  1.0000
  H   H646      1.0  0.37558  0.38226  0.03212  1.0000
  C   C640      1.0  0.36182  0.39559  0.03545  1.0000
  S   S209      1.0  0.32538  0.47773  0.02246  1.0000
  S   S210      1.0  0.23900  0.45667  0.03638  1.0000
  C   C641      1.0  0.35162  0.48568  0.03701  1.0000
  N   N56       1.0  0.37286  0.02066  0.15205  1.0000
  S   S211      1.0  0.34577  0.47409  0.04140  1.0000
  C   C642      1.0  0.36611  0.24406  0.04159  1.0000
  H   H647      1.0  0.37318  0.05134  0.22306  1.0000
  S   S212      1.0  0.38159  0.05899  0.18956  1.0000
  H   H648      1.0  0.36818  0.00801  0.09754  1.0000
  C   C643      1.0  0.38213  0.39568  0.98949  1.0000
  H   H649      1.0  0.35921  0.01364  0.16114  1.0000
  C   C644      1.0  0.35275  0.40492  0.02084  1.0000
  C   C645      1.0  0.36249  0.25266  0.04718  1.0000
  C   C646      1.0  0.37370  0.42185  0.03708  1.0000
  C   C647      1.0  0.36547  0.42820  0.03149  1.0000
  C   C648      1.0  0.36488  0.42580  0.02184  1.0000
  C   C649      1.0  0.37275  0.41726  0.01764  1.0000
  C   C650      1.0  0.38098  0.41091  0.02322  1.0000
  C   C651      1.0  0.36623  0.01347  0.15428  1.0000
  H   H650      1.0  0.35944  0.43477  0.03480  1.0000
  H   H651      1.0  0.37234  0.41544  0.01014  1.0000
  H   H652      1.0  0.36351  0.23636  0.04551  1.0000
  H   H653      1.0  0.38640  0.08333  0.14531  1.0000
  H   H654      1.0  0.37594  0.27589  0.00782  1.0000
  Fe  Fe94      1.0  0.23134  0.47427  0.00921  1.0000
  C   C652      1.0  0.37987  0.07893  0.12360  1.0000
  H   H655      1.0  0.20215  0.48805  0.04852  1.0000
  H   H656      1.0  0.26418  0.48540  0.01216  1.0000
  S   S213      1.0  0.37838  0.04977  0.13341  1.0000
  H   H657      1.0  0.38709  0.02603  0.14171  1.0000
  H   H658      1.0  0.37164  0.07838  0.14061  1.0000
  H   H659      1.0  0.36950  0.03745  0.21569  1.0000
  H   H660      1.0  0.26360  0.48329  0.99410  1.0000
  H   H661      1.0  0.36343  0.99975  0.14982  1.0000
  H   H662      1.0  0.35050  0.41342  0.04319  1.0000
  H   H663      1.0  0.35736  0.44426  0.99158  1.0000
  H   H664      1.0  0.33995  0.40636  0.04436  1.0000
  C   C653      1.0  0.37029  0.02868  0.15893  1.0000
  H   H665      1.0  0.19206  0.45104  0.99638  1.0000
  H   H666      1.0  0.20750  0.41839  0.03315  1.0000
  C   C654      1.0  0.38570  0.38452  0.98932  1.0000
  H   H667      1.0  0.36273  0.39466  0.04376  1.0000
  C   C655      1.0  0.26836  0.48336  0.02767  1.0000
  H   H668      1.0  0.38278  0.00645  0.19226  1.0000
  C   C656      1.0  0.38057  0.05490  0.15161  1.0000
  C   C657      1.0  0.36590  0.99639  0.11849  1.0000
  C   C658      1.0  0.36000  0.39810  0.01403  1.0000
  Fe  Fe95      1.0  0.38721  0.04569  0.11688  1.0000
  H   H669      1.0  0.35398  0.48705  0.99685  1.0000
  H   H670      1.0  0.38172  0.07835  0.05657  1.0000
  H   H671      1.0  0.37813  0.02738  0.22415  1.0000
  H   H672      1.0  0.36378  0.26899  0.04685  1.0000
  C   C659      1.0  0.37774  0.00517  0.13928  1.0000
  C   C660      1.0  0.38654  0.23482  0.05418  1.0000
  H   H673      1.0  0.37404  0.42366  0.04463  1.0000
  H   H674      1.0  0.34186  0.41848  0.03362  1.0000
  S   S214      1.0  0.37779  0.04161  0.10706  1.0000
  C   C661      1.0  0.21284  0.41994  0.02479  1.0000
  C   C662      1.0  0.36916  0.38858  0.02889  1.0000
  C   C663      1.0  0.36827  0.38990  0.01809  1.0000
  C   C664      1.0  0.34612  0.41079  0.03850  1.0000
  C   C665      1.0  0.38597  0.02256  0.18435  1.0000
  H   H675      1.0  0.38692  0.40425  0.01998  1.0000
  H   H676      1.0  0.37404  0.38465  0.01285  1.0000
  C   C666      1.0  0.19628  0.42945  0.01793  1.0000
  C   C667      1.0  0.38078  0.25053  0.06278  1.0000
  H   H677      1.0  0.20048  0.43152  0.04743  1.0000
  H   H678      1.0  0.19453  0.47083  0.99940  1.0000
  C   C668      1.0  0.19911  0.45389  0.02609  1.0000
  S   S215      1.0  0.38227  0.07004  0.21655  1.0000
  H   H679      1.0  0.22002  0.42225  0.02577  1.0000
  H   H680      1.0  0.36957  0.02443  0.16777  1.0000
  H   H681      1.0  0.38231  0.25564  0.01871  1.0000
  C   C669      1.0  0.38441  0.01255  0.13706  1.0000
  H   H682      1.0  0.27744  0.47597  0.99115  1.0000
  H   H683      1.0  0.36464  0.02588  0.22499  1.0000
  H   H684      1.0  0.35934  0.39930  0.00558  1.0000
  C   C670      1.0  0.36853  0.00565  0.14790  1.0000
  C   C671      1.0  0.37683  0.23599  0.02584  1.0000
  C   C672      1.0  0.36618  0.26239  0.04243  1.0000
  C   C673      1.0  0.20729  0.44389  0.00144  1.0000
  H   H685      1.0  0.36231  0.47875  0.04831  1.0000
  C   C674      1.0  0.36821  0.04808  0.23089  1.0000
  C   C675      1.0  0.19812  0.46246  0.05180  1.0000
  H   H686      1.0  0.36351  0.48685  0.01094  1.0000
  H   H687      1.0  0.37678  0.03337  0.15678  1.0000
  C   C676      1.0  0.38595  0.05828  0.15760  1.0000
  C   C677      1.0  0.20327  0.47060  0.05161  1.0000
  S   S216      1.0  0.38697  0.27002  0.05401  1.0000
  C   C678      1.0  0.20199  0.47233  0.99361  1.0000
  C   C679      1.0  0.19704  0.43835  0.04147  1.0000
  H   H688      1.0  0.37033  0.00115  0.08087  1.0000
  H   H689      1.0  0.29121  0.48783  0.03078  1.0000
  C   C680      1.0  0.36901  0.99572  0.08898  1.0000
  C   C681      1.0  0.30625  0.48258  0.99090  1.0000
  C   C682      1.0  0.27349  0.48225  0.04484  1.0000
  H   H690      1.0  0.38175  0.05999  0.16562  1.0000
  N   N57       1.0  0.20706  0.42873  0.01719  1.0000
  C   C683      1.0  0.26986  0.47907  0.98797  1.0000
  C   C684      1.0  0.38751  0.40057  0.99408  1.0000
  H   H691      1.0  0.38484  0.11329  0.99601  1.0000
  C   C685      1.0  0.38360  0.27626  0.00192  1.0000
  N   N58       1.0  0.37324  0.24513  0.03154  1.0000
  H   H692      1.0  0.21168  0.44952  0.99503  1.0000
  C   C686      1.0  0.38178  0.02038  0.14347  1.0000
  H   H693      1.0  0.35716  0.25162  0.05533  1.0000
  C   C687      1.0  0.37873  0.08015  0.13426  1.0000
  H   H694      1.0  0.36756  0.00478  0.11639  1.0000
  H   H695      1.0  0.36261  0.03473  0.15771  1.0000
  H   H696      1.0  0.38438  0.23667  0.01933  1.0000
  Fe  Fe96      1.0  0.38791  0.05098  0.09218  1.0000
  H   H697      1.0  0.37632  0.27099  0.02847  1.0000
  C   C688      1.0  0.27267  0.45982  0.98683  1.0000
  H   H698      1.0  0.37909  0.23596  0.98739  1.0000
  C   C689      1.0  0.38577  0.05299  0.14106  1.0000
  H   H699      1.0  0.37037  0.23577  0.02197  1.0000
  H   H700      1.0  0.26098  0.48067  0.03246  1.0000
  C   C690      1.0  0.36961  0.03191  0.22397  1.0000
  S   S217      1.0  0.22545  0.48408  0.04591  1.0000
  H   H701      1.0  0.28092  0.47747  0.04794  1.0000
  C   C691      1.0  0.31596  0.48114  0.99410  1.0000
  H   H702      1.0  0.28066  0.45812  0.98854  1.0000
  H   H703      1.0  0.34113  0.45870  0.98769  1.0000
  C   C692      1.0  0.37673  0.25474  0.02670  1.0000
  S   S218      1.0  0.38435  0.22206  0.05410  1.0000
  H   H704      1.0  0.26708  0.47741  0.04878  1.0000
  C   C693      1.0  0.19072  0.43748  0.01048  1.0000
  N   N59       1.0  0.36676  0.99252  0.10861  1.0000
  N   N60       1.0  0.36545  0.03821  0.23264  1.0000
  C   C694      1.0  0.35182  0.44277  0.98760  1.0000
  C   C695      1.0  0.38749  0.25630  0.05401  1.0000
  N   N61       1.0  0.27580  0.48422  0.03279  1.0000
  C   C696      1.0  0.28522  0.48737  0.02671  1.0000
  C   C697      1.0  0.38782  0.06805  0.23620  1.0000
  C   C698      1.0  0.18810  0.48444  0.04583  1.0000
  C   C699      1.0  0.19873  0.04699  0.43967  1.0000
  H   H705      1.0  0.37746  0.00573  0.29146  1.0000
  S   S219      1.0  0.37229  0.04862  0.38338  1.0000
  C   C700      1.0  0.21696  0.99378  0.48432  1.0000
  C   C701      1.0  0.25669  0.05330  0.46771  1.0000
  H   H706      1.0  0.20857  0.06961  0.48561  1.0000
  C   C702      1.0  0.22451  0.00972  0.41168  1.0000
  H   H707      1.0  0.35958  0.06074  0.48130  1.0000
  N   N62       1.0  0.26328  0.07105  0.46980  1.0000
  H   H708      1.0  0.20737  0.01458  0.43579  1.0000
  Fe  Fe97      1.0  0.33351  0.05999  0.43634  1.0000
  S   S220      1.0  0.32060  0.05773  0.42944  1.0000
  S   S221      1.0  0.34790  0.06745  0.42644  1.0000
  Fe  Fe98      1.0  0.32486  0.04746  0.45957  1.0000
  S   S222      1.0  0.31159  0.04352  0.45458  1.0000
  S   S223      1.0  0.32708  0.04021  0.47696  1.0000
  Fe  Fe99      1.0  0.32426  0.04050  0.43933  1.0000
  S   S224      1.0  0.32765  0.02635  0.43147  1.0000
  Fe  Fe100     1.0  0.30906  0.06108  0.44523  1.0000
  S   S225      1.0  0.29237  0.07229  0.44691  1.0000
  S   S226      1.0  0.33780  0.04246  0.44530  1.0000
  S   S227      1.0  0.32162  0.06530  0.45125  1.0000
  Fe  Fe101     1.0  0.24256  0.02861  0.45702  1.0000
  S   S228      1.0  0.23364  0.04529  0.46022  1.0000
  C   C703      1.0  0.27067  0.06132  0.46901  1.0000
  Fe  Fe102     1.0  0.23846  0.03415  0.43407  1.0000
  S   S229      1.0  0.22954  0.05141  0.43504  1.0000
  S   S230      1.0  0.24114  0.02784  0.41884  1.0000
  Fe  Fe103     1.0  0.24271  0.05141  0.44302  1.0000
  S   S231      1.0  0.24906  0.06689  0.43845  1.0000
  Fe  Fe104     1.0  0.22135  0.04372  0.45198  1.0000
  S   S232      1.0  0.20327  0.04808  0.45887  1.0000
  S   S233      1.0  0.25248  0.03484  0.44037  1.0000
  S   S234      1.0  0.22943  0.02641  0.45055  1.0000
  C   C704      1.0  0.19458  0.04846  0.45048  1.0000
  H   H709      1.0  0.26315  0.99933  0.41758  1.0000
  H   H710      1.0  0.20743  0.04526  0.43640  1.0000
  C   C705      1.0  0.23217  0.01572  0.41099  1.0000
  C   C706      1.0  0.23096  0.02119  0.41931  1.0000
  C   C707      1.0  0.22186  0.02094  0.42811  1.0000
  H   H711      1.0  0.27336  0.04463  0.46720  1.0000
  H   H712      1.0  0.23911  0.01598  0.40409  1.0000
  H   H713      1.0  0.22052  0.02559  0.43425  1.0000
  C   C708      1.0  0.28118  0.07021  0.44335  1.0000
  C   C709      1.0  0.27236  0.07917  0.44233  1.0000
  C   C710      1.0  0.26273  0.07792  0.44070  1.0000
  C   C711      1.0  0.26163  0.06764  0.44032  1.0000
  C   C712      1.0  0.27049  0.05858  0.44116  1.0000
  C   C713      1.0  0.28034  0.05990  0.44256  1.0000
  H   H714      1.0  0.27294  0.08715  0.44291  1.0000
  H   H715      1.0  0.25600  0.08498  0.43994  1.0000
  H   H716      1.0  0.26973  0.05061  0.44078  1.0000
  H   H717      1.0  0.28711  0.05291  0.44341  1.0000
  H   H718      1.0  0.33186  0.00572  0.46954  1.0000
  C   C714      1.0  0.29576  0.02994  0.43307  1.0000
  C   C715      1.0  0.30560  0.03216  0.43317  1.0000
  C   C716      1.0  0.31551  0.02536  0.42923  1.0000
  C   C717      1.0  0.31563  0.01699  0.42439  1.0000
  C   C718      1.0  0.30586  0.01487  0.42416  1.0000
  H   H719      1.0  0.28808  0.03470  0.43677  1.0000
  H   H720      1.0  0.30549  0.03879  0.43673  1.0000
  H   H721      1.0  0.32325  0.01184  0.42122  1.0000
  H   H722      1.0  0.20902  0.07086  0.44666  1.0000
  S   S235      1.0  0.28421  0.01617  0.43136  1.0000
  C   C719      1.0  0.21572  0.00902  0.42078  1.0000
  H   H723      1.0  0.36963  0.04512  0.32775  1.0000
  H   H724      1.0  0.33471  0.99783  0.41013  1.0000
  H   H725      1.0  0.35870  0.04233  0.47979  1.0000
  C   C720      1.0  0.36484  0.05401  0.23921  1.0000
  C   C721      1.0  0.36571  0.05408  0.39523  1.0000
  C   C722      1.0  0.35548  0.05198  0.40108  1.0000
  C   C723      1.0  0.35009  0.05590  0.41071  1.0000
  C   C724      1.0  0.35474  0.06225  0.41444  1.0000
  C   C725      1.0  0.36493  0.06451  0.40853  1.0000
  C   C726      1.0  0.37045  0.06036  0.39899  1.0000
  H   H726      1.0  0.35164  0.04738  0.39809  1.0000
  H   H727      1.0  0.34225  0.05414  0.41514  1.0000
  H   H728      1.0  0.36857  0.06943  0.41134  1.0000
  H   H729      1.0  0.35904  0.01614  0.37936  1.0000
  C   C727      1.0  0.35623  0.01552  0.38819  1.0000
  H   H730      1.0  0.23727  0.00075  0.46228  1.0000
  C   C728      1.0  0.37011  0.03046  0.27626  1.0000
  H   H731      1.0  0.33287  0.01507  0.45609  1.0000
  H   H732      1.0  0.23315  0.98979  0.45967  1.0000
  H   H733      1.0  0.33193  0.07469  0.48186  1.0000
  H   H734      1.0  0.24572  0.99381  0.42036  1.0000
  H   H735      1.0  0.37832  0.06206  0.39454  1.0000
  C   C729      1.0  0.25944  0.00231  0.43393  1.0000
  H   H736      1.0  0.27913  0.06060  0.46890  1.0000
  H   H737      1.0  0.36451  0.04870  0.30991  1.0000
  C   C730      1.0  0.37021  0.06383  0.30343  1.0000
  C   C731      1.0  0.38145  0.01567  0.29995  1.0000
  Fe  Fe105     1.0  0.20255  0.99135  0.43935  1.0000
  C   C732      1.0  0.24008  0.99600  0.43710  1.0000
  H   H738      1.0  0.35544  0.07701  0.46651  1.0000
  H   H739      1.0  0.38347  0.05131  0.26433  1.0000
  C   C733      1.0  0.37114  0.05246  0.32157  1.0000
  C   C734      1.0  0.19159  0.04805  0.43294  1.0000
  Fe  Fe106     1.0  0.29075  0.99796  0.43404  1.0000
  H   H740      1.0  0.26121  0.08827  0.46856  1.0000
  H   H741      1.0  0.28649  0.01538  0.46777  1.0000
  N   N63       1.0  0.37596  0.05958  0.32356  1.0000
  H   H742      1.0  0.19506  0.02293  0.41264  1.0000
  C   C735      1.0  0.24918  0.06316  0.46874  1.0000
  C   C736      1.0  0.35399  0.02231  0.40440  1.0000
  H   H743      1.0  0.37989  0.06444  0.33619  1.0000
  H   H744      1.0  0.30601  0.00813  0.42068  1.0000
  N   N64       1.0  0.26905  0.03963  0.41202  1.0000
  C   C737      1.0  0.27840  0.04166  0.41297  1.0000
  C   C738      1.0  0.25962  0.04755  0.41268  1.0000
  C   C739      1.0  0.27847  0.05186  0.41460  1.0000
  C   C740      1.0  0.25941  0.05786  0.41425  1.0000
  C   C741      1.0  0.26891  0.06000  0.41520  1.0000
  C   C742      1.0  0.26890  0.02869  0.41103  1.0000
  H   H745      1.0  0.28583  0.03534  0.41262  1.0000
  H   H746      1.0  0.25215  0.04584  0.41220  1.0000
  H   H747      1.0  0.28584  0.05334  0.41562  1.0000
  H   H748      1.0  0.25187  0.06404  0.41507  1.0000
  H   H749      1.0  0.26877  0.06788  0.41670  1.0000
  H   H750      1.0  0.26524  0.02403  0.41921  1.0000
  H   H751      1.0  0.26395  0.02935  0.40508  1.0000
  H   H752      1.0  0.27722  0.02390  0.40821  1.0000
  H   H753      1.0  0.37703  0.07821  0.29921  1.0000
  H   H754      1.0  0.35771  0.02586  0.24423  1.0000
  H   H755      1.0  0.34997  0.00107  0.39099  1.0000
  H   H756      1.0  0.29218  0.01881  0.48315  1.0000
  Fe  Fe107     1.0  0.19442  0.99334  0.46319  1.0000
  H   H757      1.0  0.35145  0.03608  0.25919  1.0000
  S   S236      1.0  0.37198  0.04533  0.28676  1.0000
  C   C743      1.0  0.37516  0.07104  0.30551  1.0000
  H   H758      1.0  0.36721  0.06175  0.23777  1.0000
  C   C744      1.0  0.25187  0.00196  0.44402  1.0000
  S   S237      1.0  0.20652  0.00096  0.42195  1.0000
  N   N65       1.0  0.31672  0.01439  0.46555  1.0000
  N   N66       1.0  0.19187  0.07699  0.45101  1.0000
  C   C745      1.0  0.20139  0.07279  0.43338  1.0000
  H   H759      1.0  0.36498  0.02717  0.28394  1.0000
  C   C746      1.0  0.29596  0.02099  0.42897  1.0000
  H   H760      1.0  0.35010  0.05691  0.44845  1.0000
  H   H761      1.0  0.19106  0.04528  0.48161  1.0000
  C   C747      1.0  0.23448  0.99828  0.45616  1.0000
  N   N67       1.0  0.35250  0.06790  0.45663  1.0000
  H   H762      1.0  0.32903  0.02043  0.46828  1.0000
  C   C748      1.0  0.35112  0.00701  0.39481  1.0000
  S   S238      1.0  0.37803  0.02270  0.33147  1.0000
  C   C749      1.0  0.19188  0.07677  0.46239  1.0000
  C   C750      1.0  0.37971  0.05689  0.33383  1.0000
  C   C751      1.0  0.38003  0.02919  0.25757  1.0000
  C   C752      1.0  0.21435  0.01474  0.42894  1.0000
  H   H763      1.0  0.37962  0.02631  0.35167  1.0000
  H   H764      1.0  0.37452  0.02242  0.29877  1.0000
  C   C753      1.0  0.32821  0.01385  0.46480  1.0000
  H   H765      1.0  0.19043  0.06873  0.46776  1.0000
  H   H766      1.0  0.30042  0.01080  0.45131  1.0000
  S   S239      1.0  0.21057  0.99344  0.45144  1.0000
  H   H767      1.0  0.19487  0.04721  0.42449  1.0000
  H   H768      1.0  0.22554  0.00539  0.40530  1.0000
  H   H769      1.0  0.32711  0.06358  0.47189  1.0000
  C   C754      1.0  0.19842  0.00221  0.48226  1.0000
  H   H770      1.0  0.24073  0.06399  0.46868  1.0000
  C   C755      1.0  0.21224  0.02876  0.48329  1.0000
  N   N68       1.0  0.34759  0.00618  0.40596  1.0000
  C   C756      1.0  0.35869  0.04974  0.24942  1.0000
  C   C757      1.0  0.20140  0.07352  0.44396  1.0000
  C   C758      1.0  0.35448  0.04841  0.46391  1.0000
  C   C759      1.0  0.35531  0.06899  0.46561  1.0000
  C   C760      1.0  0.38048  0.04408  0.26519  1.0000
  H   H771      1.0  0.35502  0.02826  0.40828  1.0000
  C   C761      1.0  0.24752  0.99616  0.42695  1.0000
  H   H772      1.0  0.22931  0.02175  0.48279  1.0000
  H   H773      1.0  0.35381  0.04046  0.46328  1.0000
  C   C762      1.0  0.32966  0.05969  0.47955  1.0000
  H   H774      1.0  0.23255  0.99351  0.43822  1.0000
  S   S240      1.0  0.25061  0.01417  0.46841  1.0000
  Fe  Fe108     1.0  0.36269  0.99110  0.35888  1.0000
  C   C763      1.0  0.37794  0.06880  0.31570  1.0000
  S   S241      1.0  0.36632  0.99612  0.34034  1.0000
  C   C764      1.0  0.36816  0.05448  0.31152  1.0000
  H   H775      1.0  0.34015  0.99713  0.42162  1.0000
  C   C765      1.0  0.38312  0.00633  0.29585  1.0000
  C   C766      1.0  0.34233  0.99714  0.41268  1.0000
  H   H776      1.0  0.30594  0.05958  0.48082  1.0000
  S   S242      1.0  0.37181  0.00252  0.36073  1.0000
  C   C767      1.0  0.37400  0.03979  0.27523  1.0000
  C   C768      1.0  0.35591  0.03965  0.25116  1.0000
  C   C769      1.0  0.37331  0.02502  0.26750  1.0000
  C   C770      1.0  0.19154  0.07549  0.43011  1.0000
  H   H777      1.0  0.32347  0.99507  0.38078  1.0000
  C   C771      1.0  0.29497  0.01504  0.46723  1.0000
  C   C772      1.0  0.35725  0.04945  0.47315  1.0000
  H   H778      1.0  0.26996  0.00444  0.47660  1.0000
  C   C773      1.0  0.25260  0.07197  0.46992  1.0000
  C   C774      1.0  0.26747  0.05227  0.46802  1.0000
  H   H779      1.0  0.37055  0.01762  0.26843  1.0000
  H   H780      1.0  0.19974  0.07790  0.46303  1.0000
  H   H781      1.0  0.34923  0.08539  0.45014  1.0000
  C   C775      1.0  0.35769  0.02320  0.39304  1.0000
  C   C776      1.0  0.25606  0.01797  0.47730  1.0000
  H   H782      1.0  0.26696  0.00483  0.43279  1.0000
  H   H783      1.0  0.34601  0.01316  0.41958  1.0000
  N   N69       1.0  0.24235  0.99879  0.44552  1.0000
  C   C777      1.0  0.33026  0.04841  0.48386  1.0000
  H   H784      1.0  0.34190  0.07788  0.44616  1.0000
  Fe  Fe109     1.0  0.37666  0.00616  0.34231  1.0000
  C   C778      1.0  0.26679  0.08030  0.47112  1.0000
  H   H785      1.0  0.36164  0.02986  0.38802  1.0000
  H   H786      1.0  0.25419  0.04651  0.46654  1.0000
  C   C779      1.0  0.30278  0.01252  0.45794  1.0000
  H   H787      1.0  0.25372  0.00420  0.45063  1.0000
  H   H788      1.0  0.21290  0.02800  0.47499  1.0000
  C   C780      1.0  0.35221  0.05776  0.45563  1.0000
  H   H789      1.0  0.34783  0.98908  0.41165  1.0000
  H   H790      1.0  0.24661  0.07952  0.47096  1.0000
  C   C781      1.0  0.25727  0.99929  0.42538  1.0000
  C   C782      1.0  0.31369  0.01221  0.45723  1.0000
  H   H791      1.0  0.20893  0.06973  0.42794  1.0000
  C   C783      1.0  0.34891  0.01372  0.41077  1.0000
  S   S243      1.0  0.37949  0.99236  0.25262  1.0000
  H   H792      1.0  0.35618  0.07697  0.44015  1.0000
  C   C784      1.0  0.34985  0.07754  0.44789  1.0000
  S   S244      1.0  0.34485  0.99172  0.36688  1.0000
  C   C785      1.0  0.38337  0.03888  0.25632  1.0000
  C   C786      1.0  0.35777  0.05978  0.47398  1.0000
  H   H793      1.0  0.19135  0.07454  0.42211  1.0000
  C   C787      1.0  0.35945  0.03392  0.24265  1.0000
  H   H794      1.0  0.38178  0.07445  0.31725  1.0000
  C   C788      1.0  0.30917  0.01652  0.47485  1.0000
  H   H795      1.0  0.36813  0.06534  0.29552  1.0000
  C   C789      1.0  0.29816  0.01700  0.47580  1.0000
  H   H796      1.0  0.31972  0.01011  0.45003  1.0000
  H   H797      1.0  0.22655  0.00387  0.45505  1.0000
  H   H798      1.0  0.24334  0.03240  0.47943  1.0000
  H   H799      1.0  0.19367  0.03210  0.47813  1.0000
  H   H800      1.0  0.31168  0.01782  0.48161  1.0000
  H   H801      1.0  0.37425  0.05241  0.34080  1.0000
  H   H802      1.0  0.19450  0.02840  0.42402  1.0000
  C   C790      1.0  0.25074  0.02724  0.48173  1.0000
  H   H803      1.0  0.26701  0.07921  0.47989  1.0000
  H   H804      1.0  0.27502  0.08085  0.46582  1.0000
  C   C791      1.0  0.20850  0.99529  0.47912  1.0000
  S   S245      1.0  0.38446  0.02225  0.24673  1.0000
  C   C792      1.0  0.26564  0.01138  0.48032  1.0000
  H   H805      1.0  0.37973  0.07287  0.23866  1.0000
  H   H806      1.0  0.38746  0.02355  0.30883  1.0000
  H   H807      1.0  0.35635  0.05408  0.25606  1.0000
  H   H808      1.0  0.32271  0.99127  0.46887  1.0000
  H   H809      1.0  0.20977  0.99078  0.47291  1.0000
  C   C793      1.0  0.33239  0.06597  0.48521  1.0000
  H   H810      1.0  0.36082  0.99103  0.30535  1.0000
  C   C794      1.0  0.18941  0.02716  0.41913  1.0000
  C   C795      1.0  0.32903  0.99000  0.38594  1.0000
  C   C796      1.0  0.19264  0.03624  0.48492  1.0000
  S   S246      1.0  0.30612  0.98993  0.44014  1.0000
  C   C797      1.0  0.38717  0.02713  0.34568  1.0000
  H   H811      1.0  0.38804  0.05157  0.33280  1.0000
  S   S247      1.0  0.29515  0.98894  0.42046  1.0000
  H   H812      1.0  0.31642  0.98879  0.40089  1.0000
  Fe  Fe110     1.0  0.33595  0.06305  0.52022  1.0000
  S   S248      1.0  0.32613  0.07483  0.53115  1.0000
  C   C798      1.0  0.35562  0.99259  0.64370  1.0000
  Fe  Fe111     1.0  0.33512  0.04322  0.53909  1.0000
  S   S249      1.0  0.32521  0.05318  0.55143  1.0000
  S   S250      1.0  0.33897  0.02488  0.54451  1.0000
  Fe  Fe112     1.0  0.31570  0.06239  0.53854  1.0000
  S   S251      1.0  0.29748  0.06514  0.54364  1.0000
  Fe  Fe113     1.0  0.33669  0.06451  0.54308  1.0000
  S   S252      1.0  0.34108  0.07118  0.55530  1.0000
  S   S253      1.0  0.32468  0.05147  0.52682  1.0000
  S   S254      1.0  0.34745  0.05375  0.53150  1.0000
  Fe  Fe114     1.0  0.25987  0.06297  0.51014  1.0000
  S   S255      1.0  0.26098  0.04635  0.52163  1.0000
  S   S256      1.0  0.27322  0.07229  0.50549  1.0000
  Fe  Fe115     1.0  0.25848  0.04093  0.50780  1.0000
  S   S257      1.0  0.26927  0.02571  0.50252  1.0000
  Fe  Fe116     1.0  0.24273  0.05126  0.52609  1.0000
  S   S258      1.0  0.23318  0.04595  0.54327  1.0000
  S   S259      1.0  0.37228  0.00934  0.59494  1.0000
  C   C799      1.0  0.27314  0.01694  0.53295  1.0000
  C   C800      1.0  0.37217  0.02931  0.66396  1.0000
  H   H813      1.0  0.28709  0.05108  0.49325  1.0000
  C   C801      1.0  0.34576  0.03048  0.56580  1.0000
  C   C802      1.0  0.37987  0.09026  0.71124  1.0000
  H   H814      1.0  0.32095  0.99867  0.54031  1.0000
  C   C803      1.0  0.36437  0.05704  0.72146  1.0000
  C   C804      1.0  0.21289  0.02612  0.54708  1.0000
  H   H815      1.0  0.36896  0.10578  0.71322  1.0000
  C   C805      1.0  0.30670  0.07847  0.56604  1.0000
  C   C806      1.0  0.19827  0.04628  0.56104  1.0000
  S   S260      1.0  0.37968  0.07303  0.67771  1.0000
  H   H816      1.0  0.20048  0.07101  0.52498  1.0000
  H   H817      1.0  0.29270  0.07595  0.56224  1.0000
  C   C807      1.0  0.37894  0.04103  0.62857  1.0000
  H   H818      1.0  0.35825  0.08444  0.71911  1.0000
  H   H819      1.0  0.36878  0.01355  0.63680  1.0000
  H   H820      1.0  0.33933  0.04574  0.50687  1.0000
  C   C808      1.0  0.26970  0.01378  0.48807  1.0000
  C   C809      1.0  0.28987  0.04075  0.50877  1.0000
  C   C810      1.0  0.27203  0.02158  0.54183  1.0000
  S   S261      1.0  0.36978  0.04581  0.69162  1.0000
  H   H821      1.0  0.33692  0.99119  0.56189  1.0000
  C   C811      1.0  0.36010  0.99887  0.62423  1.0000
  C   C812      1.0  0.38250  0.01260  0.69737  1.0000
  C   C813      1.0  0.37077  0.03976  0.68074  1.0000
  S   S262      1.0  0.30044  0.99152  0.51841  1.0000
  S   S263      1.0  0.37718  0.09121  0.69840  1.0000
  C   C814      1.0  0.30394  0.04398  0.51533  1.0000
  C   C815      1.0  0.36200  0.03413  0.66967  1.0000
  C   C816      1.0  0.36129  0.03915  0.67821  1.0000
  H   H822      1.0  0.20790  0.05750  0.56055  1.0000
  S   S264      1.0  0.37982  0.07009  0.61780  1.0000
  H   H823      1.0  0.35465  0.03373  0.66772  1.0000
  H   H824      1.0  0.35340  0.04263  0.68280  1.0000
  H   H825      1.0  0.36764  0.05410  0.64962  1.0000
  C   C817      1.0  0.35273  0.98986  0.51951  1.0000
  C   C818      1.0  0.36773  0.05355  0.73147  1.0000
  C   C819      1.0  0.22083  0.02635  0.49825  1.0000
  C   C820      1.0  0.31025  0.01452  0.54047  1.0000
  N   N70       1.0  0.35558  0.99188  0.63336  1.0000
  H   H826      1.0  0.19369  0.03689  0.50500  1.0000
  H   H827      1.0  0.37467  0.02020  0.57141  1.0000
  N   N71       1.0  0.36114  0.06802  0.71707  1.0000
  H   H828      1.0  0.23843  0.01375  0.54258  1.0000
  C   C821      1.0  0.20701  0.03174  0.53891  1.0000
  C   C822      1.0  0.19672  0.00737  0.49093  1.0000
  C   C823      1.0  0.26177  0.02438  0.54853  1.0000
  H   H829      1.0  0.36704  0.06862  0.57728  1.0000
  Fe  Fe117     1.0  0.22706  0.99208  0.53900  1.0000
  H   H830      1.0  0.28109  0.01472  0.52768  1.0000
  H   H831      1.0  0.26130  0.99387  0.54775  1.0000
  H   H832      1.0  0.37180  0.04177  0.62556  1.0000
  C   C824      1.0  0.33355  0.04347  0.49383  1.0000
  H   H833      1.0  0.27909  0.02304  0.54351  1.0000
  H   H834      1.0  0.36803  0.04010  0.56374  1.0000
  H   H835      1.0  0.33771  0.03335  0.56404  1.0000
  H   H836      1.0  0.29411  0.03218  0.52432  1.0000
  H   H837      1.0  0.24465  0.99704  0.50606  1.0000
  C   C825      1.0  0.36491  0.00676  0.62532  1.0000
  H   H838      1.0  0.36055  0.07912  0.70150  1.0000
  Fe  Fe118     1.0  0.20651  0.00897  0.53493  1.0000
  C   C826      1.0  0.21075  0.03063  0.50451  1.0000
  C   C827      1.0  0.36178  0.00274  0.54149  1.0000
  N   N72       1.0  0.29981  0.05465  0.49799  1.0000
  C   C828      1.0  0.19606  0.07051  0.50053  1.0000
  S   S265      1.0  0.22571  0.99599  0.49996  1.0000
  H   H839      1.0  0.26032  0.99355  0.51452  1.0000
  C   C829      1.0  0.36396  0.07252  0.73269  1.0000
  Fe  Fe119     1.0  0.37612  0.99245  0.59200  1.0000
  C   C830      1.0  0.36656  0.02318  0.56976  1.0000
  Fe  Fe120     1.0  0.21956  0.99601  0.51784  1.0000
  H   H840      1.0  0.34341  0.00872  0.56517  1.0000
  C   C831      1.0  0.26428  0.02293  0.49265  1.0000
  C   C832      1.0  0.38691  0.08106  0.71611  1.0000
  C   C833      1.0  0.25273  0.02249  0.54626  1.0000
  H   H841      1.0  0.21929  0.06978  0.51390  1.0000
  H   H842      1.0  0.36147  0.04623  0.64479  1.0000
  C   C834      1.0  0.35968  0.01588  0.57213  1.0000
  S   S266      1.0  0.24172  0.06855  0.51587  1.0000
  C   C835      1.0  0.37526  0.06326  0.56218  1.0000
  C   C836      1.0  0.37389  0.06144  0.55251  1.0000
  C   C837      1.0  0.36345  0.06356  0.55042  1.0000
  C   C838      1.0  0.35429  0.06774  0.55792  1.0000
  C   C839      1.0  0.35563  0.06948  0.56765  1.0000
  C   C840      1.0  0.36607  0.06716  0.56983  1.0000
  S   S267      1.0  0.37702  0.99455  0.67312  1.0000
  H   H843      1.0  0.36253  0.06226  0.54287  1.0000
  C   C841      1.0  0.33585  0.06099  0.49510  1.0000
  C   C842      1.0  0.19373  0.07070  0.51173  1.0000
  C   C843      1.0  0.29099  0.06688  0.53292  1.0000
  C   C844      1.0  0.29542  0.07173  0.52206  1.0000
  C   C845      1.0  0.28978  0.07362  0.51373  1.0000
  C   C846      1.0  0.27993  0.07027  0.51613  1.0000
  C   C847      1.0  0.27560  0.06527  0.52695  1.0000
  C   C848      1.0  0.28105  0.06371  0.53535  1.0000
  H   H844      1.0  0.30305  0.07428  0.52015  1.0000
  H   H845      1.0  0.29308  0.07764  0.50540  1.0000
  H   H846      1.0  0.26792  0.06283  0.52891  1.0000
  H   H847      1.0  0.27756  0.06003  0.54375  1.0000
  H   H848      1.0  0.22497  0.02647  0.55524  1.0000
  H   H849      1.0  0.32117  0.08226  0.56722  1.0000
  N   N73       1.0  0.35922  0.99841  0.53344  1.0000
  H   H850      1.0  0.18958  0.07114  0.49665  1.0000
  H   H851      1.0  0.30982  0.09895  0.53785  1.0000
  H   H852      1.0  0.21147  0.01823  0.55213  1.0000
  S   S268      1.0  0.37300  0.02268  0.65358  1.0000
  C   C849      1.0  0.36740  0.05163  0.64216  1.0000
  C   C850      1.0  0.36283  0.03433  0.56546  1.0000
  H   H853      1.0  0.21004  0.03144  0.51281  1.0000
  N   N74       1.0  0.25386  0.01803  0.53749  1.0000
  C   C851      1.0  0.32862  0.00983  0.54333  1.0000
  C   C852      1.0  0.32753  0.02056  0.54429  1.0000
  C   C853      1.0  0.31749  0.02802  0.54421  1.0000
  C   C854      1.0  0.25414  0.98977  0.49232  1.0000
  H   H854      1.0  0.33619  0.00391  0.54379  1.0000
  H   H855      1.0  0.31638  0.03616  0.54552  1.0000
  N   N75       1.0  0.31619  0.09142  0.55230  1.0000
  C   C855      1.0  0.30885  0.09340  0.54590  1.0000
  H   H856      1.0  0.33143  0.09288  0.54148  1.0000
  H   H857      1.0  0.36099  0.06521  0.70159  1.0000
  S   S269      1.0  0.33998  0.06878  0.50170  1.0000
  H   H858      1.0  0.24738  0.99157  0.48837  1.0000
  C   C856      1.0  0.30022  0.08798  0.54946  1.0000
  H   H859      1.0  0.26078  0.02810  0.55538  1.0000
  H   H860      1.0  0.33403  0.03475  0.49719  1.0000
  H   H861      1.0  0.36946  0.99777  0.54397  1.0000
  C   C857      1.0  0.26390  0.01526  0.53087  1.0000
  C   C858      1.0  0.22270  0.04077  0.54204  1.0000
  C   C859      1.0  0.30883  0.02500  0.54230  1.0000
  H   H862      1.0  0.36260  0.00724  0.57558  1.0000
  Fe  Fe121     1.0  0.24054  0.06108  0.50266  1.0000
  H   H863      1.0  0.20374  0.00952  0.50314  1.0000
  S   S270      1.0  0.24036  0.04419  0.51323  1.0000
  H   H864      1.0  0.37989  0.00529  0.70335  1.0000
  H   H865      1.0  0.30117  0.03089  0.54197  1.0000
  H   H866      1.0  0.36059  0.00078  0.65328  1.0000
  H   H867      1.0  0.26481  0.01174  0.52391  1.0000
  C   C860      1.0  0.20887  0.04192  0.53240  1.0000
  H   H868      1.0  0.24477  0.02473  0.55147  1.0000
  C   C861      1.0  0.21686  0.04632  0.53385  1.0000
  H   H869      1.0  0.20436  0.04630  0.52606  1.0000
  C   C862      1.0  0.35239  0.03801  0.56338  1.0000
  S   S271      1.0  0.25855  0.05712  0.49598  1.0000
  H   H870      1.0  0.18893  0.01267  0.49348  1.0000
  C   C863      1.0  0.21287  0.06985  0.51018  1.0000
  C   C864      1.0  0.38095  0.03520  0.67481  1.0000
  H   H871      1.0  0.21852  0.05404  0.52865  1.0000
  H   H872      1.0  0.20238  0.03952  0.56659  1.0000
  H   H873      1.0  0.30858  0.04215  0.52159  1.0000
  S   S272      1.0  0.22386  0.00706  0.52562  1.0000
  H   H874      1.0  0.23993  0.02483  0.53065  1.0000
  H   H875      1.0  0.36451  0.05916  0.63614  1.0000
  S   S273      1.0  0.22878  0.06798  0.49141  1.0000
  S   S274      1.0  0.19744  0.02591  0.53681  1.0000
  C   C865      1.0  0.32002  0.00686  0.54133  1.0000
  H   H876      1.0  0.32986  0.09580  0.55462  1.0000
  H   H877      1.0  0.30611  0.07243  0.57379  1.0000
  C   C866      1.0  0.30591  0.05210  0.50574  1.0000
  H   H878      1.0  0.24622  0.01073  0.52965  1.0000
  C   C867      1.0  0.38165  0.02977  0.66658  1.0000
  C   C868      1.0  0.25264  0.99295  0.50218  1.0000
  H   H879      1.0  0.34859  0.07271  0.57350  1.0000
  H   H880      1.0  0.35050  0.01405  0.52611  1.0000
  N   N76       1.0  0.34938  0.01961  0.57029  1.0000
  C   C869      1.0  0.22053  0.03078  0.54884  1.0000
  H   H881      1.0  0.27700  0.00853  0.49054  1.0000
  S   S275      1.0  0.20184  0.99933  0.52580  1.0000
  C   C870      1.0  0.21525  0.06933  0.49911  1.0000
  H   H882      1.0  0.32278  0.10571  0.54472  1.0000
  H   H883      1.0  0.36005  0.99835  0.61603  1.0000
  S   S276      1.0  0.30017  0.01111  0.53645  1.0000
  H   H884      1.0  0.28360  0.03635  0.50985  1.0000
  C   C871      1.0  0.24417  0.01679  0.53491  1.0000
  H   H885      1.0  0.37232  0.07387  0.63993  1.0000
  H   H886      1.0  0.38323  0.01139  0.68901  1.0000
  C   C872      1.0  0.32548  0.09677  0.54808  1.0000
  C   C873      1.0  0.29582  0.03835  0.51685  1.0000
  H   H887      1.0  0.33362  0.01584  0.57514  1.0000
  C   C874      1.0  0.31520  0.08407  0.56226  1.0000
  C   C875      1.0  0.35762  0.07160  0.70659  1.0000
  C   C876      1.0  0.34233  0.01184  0.57264  1.0000
  H   H888      1.0  0.29461  0.08924  0.54422  1.0000
  C   C877      1.0  0.36077  0.07573  0.72261  1.0000
  H   H889      1.0  0.30680  0.06850  0.48887  1.0000
  H   H890      1.0  0.18849  0.03664  0.55878  1.0000
  H   H891      1.0  0.36457  0.05092  0.71710  1.0000
  C   C878      1.0  0.34977  0.00114  0.51913  1.0000
  C   C879      1.0  0.25488  0.02976  0.48937  1.0000
  Fe  Fe122     1.0  0.30744  0.99559  0.53025  1.0000
  H   H892      1.0  0.38097  0.05848  0.54653  1.0000
  C   C880      1.0  0.20680  0.06982  0.49423  1.0000
  H   H893      1.0  0.36855  0.01222  0.61804  1.0000
  C   C881      1.0  0.33642  0.04971  0.49939  1.0000
  C   C882      1.0  0.29916  0.08047  0.55959  1.0000
  C   C883      1.0  0.21522  0.99878  0.49308  1.0000
  H   H894      1.0  0.25074  0.03695  0.49274  1.0000
  C   C884      1.0  0.38408  0.01245  0.59585  1.0000
  C   C885      1.0  0.38241  0.08838  0.73263  1.0000
  C   C886      1.0  0.26156  0.99100  0.50689  1.0000
  C   C887      1.0  0.35314  0.00531  0.52617  1.0000
  C   C888      1.0  0.20216  0.07060  0.51644  1.0000
  H   H895      1.0  0.34432  0.00467  0.57942  1.0000
  C   C889      1.0  0.20509  0.00553  0.49645  1.0000
  C   C890      1.0  0.20136  0.05638  0.55765  1.0000
  S   S277      1.0  0.20985  0.99487  0.54902  1.0000
  H   H896      1.0  0.37614  0.02015  0.69862  1.0000
  H   H897      1.0  0.22803  0.02375  0.50167  1.0000
  S   S278      1.0  0.32472  0.99166  0.52079  1.0000
  H   H898      1.0  0.34945  0.04664  0.55992  1.0000
  C   C891      1.0  0.29197  0.04901  0.49935  1.0000
  Fe  Fe123     1.0  0.38251  0.05565  0.68756  1.0000
  H   H899      1.0  0.34860  0.07341  0.70818  1.0000
  H   H900      1.0  0.37130  0.10420  0.73195  1.0000
  C   C892      1.0  0.20153  0.03376  0.50001  1.0000
  C   C893      1.0  0.37568  0.09772  0.72757  1.0000
  C   C894      1.0  0.37436  0.09862  0.71695  1.0000
  S   S279      1.0  0.38239  0.98899  0.57510  1.0000
  C   C895      1.0  0.38672  0.07272  0.64550  1.0000
  H   H901      1.0  0.34465  0.00659  0.51364  1.0000
  H   H902      1.0  0.38224  0.07421  0.65353  1.0000
  S   S280      1.0  0.24098  0.99089  0.54659  1.0000
  C   C896      1.0  0.22158  0.02534  0.48761  1.0000
  C   C897      1.0  0.18825  0.06311  0.54615  1.0000
  N   N77       1.0  0.20235  0.03273  0.48956  1.0000
  C   C898      1.0  0.30172  0.06333  0.48806  1.0000
  C   C899      1.0  0.19035  0.04472  0.55664  1.0000
  H   H903      1.0  0.31216  0.05653  0.50468  1.0000
  H   H904      1.0  0.37052  0.04486  0.73485  1.0000
  C   C900      1.0  0.36036  0.00039  0.64508  1.0000
  C   C901      1.0  0.36501  0.00752  0.63582  1.0000
  H   H905      1.0  0.36265  0.01141  0.53814  1.0000
  N   N78       1.0  0.37810  0.04574  0.63707  1.0000
  C   C902      1.0  0.19627  0.06489  0.55022  1.0000
  Fe  Fe124     1.0  0.38337  0.00584  0.65749  1.0000
  C   C903      1.0  0.38110  0.07259  0.63776  1.0000
  H   H906      1.0  0.19873  0.07272  0.54738  1.0000
  H   H907      1.0  0.35508  0.00248  0.54898  1.0000
  H   H908      1.0  0.38197  0.02775  0.58382  1.0000
  S   S281      1.0  0.32228  0.98993  0.49149  1.0000
  Fe  Fe125     1.0  0.38563  0.07672  0.69065  1.0000
  S   S282      1.0  0.38684  0.05972  0.70121  1.0000
  H   H909      1.0  0.38651  0.04881  0.64742  1.0000
  C   C904      1.0  0.38679  0.02236  0.58957  1.0000
  C   C905      1.0  0.38715  0.04501  0.64074  1.0000
  C   C906      1.0  0.38683  0.07081  0.62727  1.0000
  H   H910      1.0  0.38757  0.01116  0.71625  1.0000
  H   H911      1.0  0.29386  0.06891  0.48664  1.0000
  H   H912      1.0  0.38735  0.09827  0.61863  1.0000
  S   S283      1.0  0.38763  0.99383  0.64664  1.0000
  S   S284      1.0  0.38744  0.05050  0.59648  1.0000
  H   H913      1.0  0.35873  0.26219  0.93257  1.0000
  H   H914      1.0  0.36525  0.05915  0.87792  1.0000
  S   S285      1.0  0.19083  0.46191  0.92957  1.0000
  H   H915      1.0  0.35836  0.42171  0.95015  1.0000
  C   C907      1.0  0.34889  0.36857  0.96462  1.0000
  C   C908      1.0  0.37247  0.35290  0.94973  1.0000
  Fe  Fe126     1.0  0.37018  0.30873  0.95096  1.0000
  C   C909      1.0  0.38169  0.14872  0.97899  1.0000
  C   C910      1.0  0.25093  0.46401  0.95524  1.0000
  C   C911      1.0  0.26106  0.46694  0.95061  1.0000
  H   H916      1.0  0.34826  0.35260  0.97537  1.0000
  S   S286      1.0  0.28432  0.48648  0.95060  1.0000
  C   C912      1.0  0.21345  0.47337  0.97523  1.0000
  H   H917      1.0  0.37392  0.03625  0.78964  1.0000
  Fe  Fe127     1.0  0.37429  0.28592  0.94589  1.0000
  H   H918      1.0  0.38311  0.02658  0.80508  1.0000
  C   C913      1.0  0.37437  0.34945  0.96041  1.0000
  S   S287      1.0  0.30106  0.46672  0.93823  1.0000
  H   H919      1.0  0.36362  0.07926  0.87487  1.0000
  S   S288      1.0  0.32789  0.45328  0.95275  1.0000
  S   S289      1.0  0.35313  0.40771  0.93940  1.0000
  H   H920      1.0  0.37455  0.02640  0.77558  1.0000
  C   C914      1.0  0.36678  0.23779  0.97853  1.0000
  C   C915      1.0  0.34600  0.37065  0.94649  1.0000
  H   H921      1.0  0.31969  0.45429  0.97671  1.0000
  C   C916      1.0  0.36512  0.07395  0.88266  1.0000
  C   C917      1.0  0.33304  0.46997  0.92659  1.0000
  C   C918      1.0  0.35940  0.24530  0.97254  1.0000
  S   S290      1.0  0.37370  0.03467  0.87764  1.0000
  H   H922      1.0  0.24982  0.45804  0.96296  1.0000
  C   C919      1.0  0.20376  0.47152  0.98266  1.0000
  C   C920      1.0  0.32998  0.43568  0.94343  1.0000
  S   S291      1.0  0.29696  0.46367  0.96503  1.0000
  C   C921      1.0  0.32248  0.47203  0.91290  1.0000
  H   H923      1.0  0.38325  0.25899  0.94999  1.0000
  S   S292      1.0  0.38679  0.27825  0.95608  1.0000
  S   S293      1.0  0.20463  0.48538  0.92817  1.0000
  C   C922      1.0  0.33809  0.47435  0.93203  1.0000
  C   C923      1.0  0.38281  0.15659  0.93788  1.0000
  Fe  Fe128     1.0  0.19655  0.47150  0.93805  1.0000
  C   C924      1.0  0.37172  0.23917  0.94814  1.0000
  S   S294      1.0  0.36953  0.27634  0.93656  1.0000
  H   H924      1.0  0.36826  0.09244  0.89462  1.0000
  S   S295      1.0  0.31089  0.48156  0.94832  1.0000
  S   S296      1.0  0.37672  0.06040  0.76743  1.0000
  H   H925      1.0  0.35438  0.27138  0.95911  1.0000
  H   H926      1.0  0.34552  0.37575  0.93834  1.0000
  H   H927      1.0  0.32753  0.47129  0.90457  1.0000
  N   N79       1.0  0.36623  0.07827  0.89068  1.0000
  S   S297      1.0  0.38052  0.05197  0.79796  1.0000
  C   C925      1.0  0.37867  0.24389  0.95099  1.0000
  H   H928      1.0  0.34191  0.46904  0.93866  1.0000
  C   C926      1.0  0.24380  0.47590  0.93954  1.0000
  H   H929      1.0  0.33311  0.46123  0.92905  1.0000
  C   C927      1.0  0.34598  0.42042  0.94298  1.0000
  H   H930      1.0  0.37676  0.15488  0.94534  1.0000
  H   H931      1.0  0.25097  0.48050  0.98344  1.0000
  Fe  Fe129     1.0  0.21611  0.47921  0.93964  1.0000
  Fe  Fe130     1.0  0.31125  0.46365  0.95061  1.0000
  S   S298      1.0  0.37016  0.22565  0.95462  1.0000
  H   H932      1.0  0.38401  0.01834  0.74314  1.0000
  C   C928      1.0  0.37811  0.02765  0.79028  1.0000
  S   S299      1.0  0.38469  0.06037  0.85742  1.0000
  Fe  Fe131     1.0  0.38337  0.21170  0.94895  1.0000
  H   H933      1.0  0.36754  0.22900  0.97968  1.0000
  C   C929      1.0  0.36434  0.25712  0.93768  1.0000
  H   H934      1.0  0.36917  0.32377  0.96703  1.0000
  H   H935      1.0  0.34738  0.35850  0.93260  1.0000
  C   C930      1.0  0.38329  0.02220  0.79897  1.0000
  Fe  Fe132     1.0  0.36758  0.39905  0.94720  1.0000
  Fe  Fe133     1.0  0.29590  0.48173  0.96179  1.0000
  H   H936      1.0  0.25523  0.48430  0.92689  1.0000
  C   C931      1.0  0.38622  0.14944  0.93062  1.0000
  H   H937      1.0  0.36934  0.07495  0.90675  1.0000
  C   C932      1.0  0.37241  0.25302  0.98087  1.0000
  C   C933      1.0  0.38765  0.05412  0.80660  1.0000
  H   H938      1.0  0.37778  0.04639  0.82154  1.0000
  H   H939      1.0  0.33381  0.35791  0.94099  1.0000
  H   H940      1.0  0.36779  0.34850  0.93709  1.0000
  C   C934      1.0  0.37315  0.02240  0.87461  1.0000
  C   C935      1.0  0.35095  0.26418  0.96432  1.0000
  H   H941      1.0  0.37492  0.33610  0.97472  1.0000
  C   C936      1.0  0.37187  0.00224  0.87128  1.0000
  C   C937      1.0  0.36376  0.00749  0.87892  1.0000
  C   C938      1.0  0.36445  0.01744  0.88064  1.0000
  H   H942      1.0  0.36149  0.15491  0.97609  1.0000
  H   H943      1.0  0.21512  0.47217  0.96694  1.0000
  H   H944      1.0  0.35692  0.00382  0.88360  1.0000
  H   H945      1.0  0.35815  0.02133  0.88668  1.0000
  N   N80       1.0  0.33537  0.44887  0.98081  1.0000
  H   H946      1.0  0.37952  0.01048  0.76858  1.0000
  H   H947      1.0  0.34439  0.34518  0.96159  1.0000
  H   H948      1.0  0.38048  0.23886  0.92007  1.0000
  C   C939      1.0  0.37031  0.33177  0.96207  1.0000
  H   H949      1.0  0.38728  0.27383  0.91425  1.0000
  H   H950      1.0  0.34519  0.34635  0.94274  1.0000
  S   S300      1.0  0.19362  0.46913  0.97791  1.0000
  C   C940      1.0  0.38458  0.05041  0.81807  1.0000
  H   H951      1.0  0.37023  0.05879  0.74479  1.0000
  S   S301      1.0  0.38328  0.08736  0.74623  1.0000
  C   C941      1.0  0.24227  0.46860  0.94981  1.0000
  H   H952      1.0  0.38156  0.25773  0.91289  1.0000
  C   C942      1.0  0.36816  0.33525  0.95152  1.0000
  N   N81       1.0  0.38393  0.01126  0.78306  1.0000
  C   C943      1.0  0.38708  0.16597  0.93549  1.0000
  S   S302      1.0  0.37780  0.35809  0.96661  1.0000
  H   H953      1.0  0.34329  0.26713  0.97006  1.0000
  H   H954      1.0  0.37136  0.05482  0.90993  1.0000
  S   S303      1.0  0.38299  0.17410  0.94543  1.0000
  H   H955      1.0  0.38683  0.00328  0.85905  1.0000
  N   N82       1.0  0.32790  0.47664  0.91847  1.0000
  C   C944      1.0  0.37085  0.26197  0.94094  1.0000
  C   C945      1.0  0.36609  0.06261  0.88430  1.0000
  S   S304      1.0  0.36299  0.38959  0.96458  1.0000
  C   C946      1.0  0.25605  0.47228  0.98411  1.0000
  H   H956      1.0  0.36871  0.16184  0.96306  1.0000
  H   H957      1.0  0.32816  0.46418  0.97169  1.0000
  Fe  Fe134     1.0  0.28658  0.46831  0.95255  1.0000
  C   C947      1.0  0.34738  0.35782  0.96736  1.0000
  C   C948      1.0  0.37345  0.33882  0.96647  1.0000
  H   H958      1.0  0.36421  0.14957  0.96403  1.0000
  S   S305      1.0  0.37053  0.98965  0.86965  1.0000
  H   H959      1.0  0.36917  0.04686  0.89546  1.0000
  S   S306      1.0  0.36282  0.32701  0.94653  1.0000
  C   C949      1.0  0.34812  0.37509  0.95416  1.0000
  C   C950      1.0  0.22099  0.47687  0.97843  1.0000
  H   H960      1.0  0.37321  0.36108  0.94498  1.0000
  C   C951      1.0  0.38427  0.13951  0.96468  1.0000
  H   H961      1.0  0.34928  0.38348  0.95192  1.0000
  C   C952      1.0  0.38419  0.10974  0.97105  1.0000
  C   C953      1.0  0.34263  0.35550  0.94098  1.0000
  C   C954      1.0  0.34522  0.35366  0.95951  1.0000
  S   S307      1.0  0.20924  0.46414  0.94829  1.0000
  N   N83       1.0  0.37806  0.14706  0.97080  1.0000
  H   H962      1.0  0.36862  0.09380  0.88044  1.0000
  H   H963      1.0  0.23452  0.46625  0.95339  1.0000
  C   C955      1.0  0.38134  0.11433  0.98035  1.0000
  C   C956      1.0  0.37811  0.25533  0.94753  1.0000
  H   H964      1.0  0.35910  0.24228  0.93937  1.0000
  C   C957      1.0  0.38063  0.00718  0.86513  1.0000
  H   H965      1.0  0.33220  0.42169  0.93640  1.0000
  H   H966      1.0  0.34860  0.43961  0.95481  1.0000
  C   C958      1.0  0.36834  0.07154  0.90042  1.0000
  C   C959      1.0  0.35047  0.42551  0.94827  1.0000
  Fe  Fe135     1.0  0.19787  0.47488  0.95953  1.0000
  H   H967      1.0  0.33178  0.43759  0.97379  1.0000
  Fe  Fe136     1.0  0.37512  0.39680  0.96766  1.0000
  C   C960      1.0  0.36939  0.34579  0.94529  1.0000
  S   S308      1.0  0.38209  0.11755  0.92763  1.0000
  C   C961      1.0  0.34659  0.43086  0.97963  1.0000
  C   C962      1.0  0.36501  0.26029  0.97478  1.0000
  H   H968      1.0  0.32203  0.43951  0.94164  1.0000
  Fe  Fe137     1.0  0.37500  0.28766  0.96827  1.0000
  S   S309      1.0  0.37745  0.11595  0.96012  1.0000
  Fe  Fe138     1.0  0.37709  0.37623  0.95938  1.0000
  H   H969      1.0  0.38138  0.13806  0.95825  1.0000
  S   S310      1.0  0.38201  0.30273  0.96194  1.0000
  C   C963      1.0  0.33733  0.43907  0.97778  1.0000
  H   H970      1.0  0.35083  0.37175  0.97057  1.0000
  H   H971      1.0  0.35576  0.09407  0.89045  1.0000
  C   C964      1.0  0.36459  0.09024  0.88899  1.0000
  S   S311      1.0  0.36191  0.29439  0.95861  1.0000
  S   S312      1.0  0.37900  0.40719  0.95064  1.0000
  C   C965      1.0  0.32574  0.45749  0.97875  1.0000
  C   C966      1.0  0.36760  0.15367  0.96837  1.0000
  C   C967      1.0  0.34487  0.43566  0.95096  1.0000
  C   C968      1.0  0.26249  0.47449  0.94050  1.0000
  Fe  Fe139     1.0  0.29951  0.48470  0.93728  1.0000
  N   N84       1.0  0.34476  0.36001  0.94917  1.0000
  C   C969      1.0  0.33456  0.44072  0.94870  1.0000
  C   C970      1.0  0.36462  0.24583  0.94144  1.0000
  H   H972      1.0  0.38406  0.23881  0.95632  1.0000
  C   C971      1.0  0.36949  0.06015  0.90228  1.0000
  S   S313      1.0  0.38088  0.38499  0.94167  1.0000
  S   S314      1.0  0.38615  0.19457  0.95943  1.0000
  S   S315      1.0  0.27189  0.46073  0.95744  1.0000
  N   N85       1.0  0.35873  0.25639  0.97058  1.0000
  N   N86       1.0  0.26612  0.47014  0.98631  1.0000
  H   H973      1.0  0.27145  0.48516  0.98006  1.0000
  C   C972      1.0  0.33573  0.42558  0.94050  1.0000
  H   H974      1.0  0.34909  0.26034  0.95859  1.0000
  H   H975      1.0  0.27029  0.47670  0.93681  1.0000
  S   S316      1.0  0.38133  0.30083  0.93729  1.0000
  S   S317      1.0  0.38559  0.20597  0.93344  1.0000
  H   H976      1.0  0.35451  0.24215  0.96914  1.0000
  C   C973      1.0  0.37332  0.24170  0.98273  1.0000
  C   C974      1.0  0.25394  0.47880  0.93491  1.0000
  H   H977      1.0  0.22833  0.47859  0.97252  1.0000
  C   C975      1.0  0.33794  0.48560  0.92905  1.0000
  H   H978      1.0  0.37480  0.12154  0.98092  1.0000
  C   C976      1.0  0.36828  0.05568  0.89418  1.0000
  C   C977      1.0  0.38122  0.01732  0.86673  1.0000
  C   C978      1.0  0.37853  0.02204  0.78233  1.0000
  H   H979      1.0  0.32105  0.46377  0.91765  1.0000
  H   H980      1.0  0.36434  0.26908  0.97339  1.0000
  H   H981      1.0  0.38478  0.00247  0.89169  1.0000
  C   C979      1.0  0.32512  0.48388  0.98623  1.0000
  H   H982      1.0  0.37686  0.15484  0.98372  1.0000
  S   S318      1.0  0.37181  0.40364  0.98273  1.0000
  S   S319      1.0  0.23336  0.48150  0.93215  1.0000
  C   C980      1.0  0.38779  0.25643  0.91740  1.0000
  S   S320      1.0  0.38211  0.03609  0.75329  1.0000
  H   H983      1.0  0.38292  0.14217  0.93266  1.0000
  H   H984      1.0  0.37740  0.25620  0.98412  1.0000
  H   H985      1.0  0.31437  0.47744  0.91210  1.0000
  H   H986      1.0  0.38179  0.99765  0.77842  1.0000
  C   C981      1.0  0.32801  0.48760  0.91526  1.0000
  H   H987      1.0  0.34821  0.42313  0.97710  1.0000
  H   H988      1.0  0.24411  0.46563  0.98104  1.0000
  C   C982      1.0  0.25212  0.46389  0.98275  1.0000
  H   H989      1.0  0.38554  0.21703  0.98457  1.0000
  Fe  Fe140     1.0  0.38745  0.11224  0.94377  1.0000
  H   H990      1.0  0.18861  0.48415  0.91203  1.0000
  C   C983      1.0  0.35382  0.43271  0.98465  1.0000
  C   C984      1.0  0.38462  0.00547  0.77457  1.0000
  C   C985      1.0  0.30561  0.48690  0.97989  1.0000
  H   H991      1.0  0.25579  0.44675  0.98226  1.0000
  C   C986      1.0  0.25864  0.45328  0.98352  1.0000
  C   C987      1.0  0.34257  0.45085  0.98549  1.0000
  S   S321      1.0  0.37218  0.27929  0.98619  1.0000
  Fe  Fe141     1.0  0.38725  0.04347  0.86858  1.0000
  Fe  Fe142     1.0  0.38750  0.05558  0.77959  1.0000
  H   H992      1.0  0.38793  0.02113  0.86196  1.0000
  H   H993      1.0  0.38112  0.38056  0.98645  1.0000
  C   C988      1.0  0.32456  0.48809  0.97517  1.0000
  C   C989      1.0  0.26900  0.45122  0.98553  1.0000
  H   H994      1.0  0.36098  0.42637  0.98622  1.0000
  H   H995      1.0  0.32160  0.46098  0.98617  1.0000
  H   H996      1.0  0.27421  0.44306  0.98598  1.0000
  H   H997      1.0  0.36385  0.07867  0.73697  1.0000
  C   C990      1.0  0.36755  0.06137  0.73708  1.0000
  H   H998      1.0  0.38795  0.04883  0.83392  1.0000
  C   C991      1.0  0.36653  0.51159  0.99393  1.0000
  C   C992      1.0  0.27946  0.56445  0.99538  1.0000
  C   C993      1.0  0.38746  0.90648  0.05698  1.0000
  C   C994      1.0  0.36642  0.73526  0.04109  1.0000
  S   S322      1.0  0.38768  0.58723  0.03979  1.0000
  Fe  Fe143     1.0  0.35474  0.54608  0.99837  1.0000
  S   S323      1.0  0.34415  0.56087  0.00453  1.0000
  H   H999      1.0  0.20892  0.49889  0.02322  1.0000
  Fe  Fe144     1.0  0.35759  0.53313  0.02108  1.0000
  S   S324      1.0  0.34755  0.54708  0.02923  1.0000
  S   S325      1.0  0.36498  0.51656  0.03042  1.0000
  Fe  Fe145     1.0  0.33624  0.54877  0.01834  1.0000
  S   S326      1.0  0.31824  0.55010  0.02560  1.0000
  Fe  Fe146     1.0  0.35648  0.55794  0.01472  1.0000
  S   S327      1.0  0.36249  0.57343  0.01241  1.0000
  S   S328      1.0  0.34576  0.53414  0.01127  1.0000
  S   S329      1.0  0.36756  0.54381  0.00756  1.0000
  H   H1000     1.0  0.37531  0.67041  0.01113  1.0000
  H   H1001     1.0  0.36558  0.97630  0.11775  1.0000
  H   H1002     1.0  0.20182  0.51165  0.00072  1.0000
  C   C995      1.0  0.36911  0.98469  0.08998  1.0000
  Fe  Fe147     1.0  0.27525  0.53435  0.00611  1.0000
  S   S330      1.0  0.27390  0.51682  0.01337  1.0000
  S   S331      1.0  0.29197  0.53775  0.99824  1.0000
  Fe  Fe148     1.0  0.25981  0.52381  0.02567  1.0000
  S   S332      1.0  0.25648  0.51462  0.04328  1.0000
  C   C996      1.0  0.22476  0.55186  0.01578  1.0000
  S   S333      1.0  0.26208  0.54124  0.01942  1.0000
  H   H1003     1.0  0.38325  0.74810  0.07658  1.0000
  H   H1004     1.0  0.20913  0.49778  0.00512  1.0000
  H   H1005     1.0  0.24108  0.50478  0.06157  1.0000
  H   H1006     1.0  0.34164  0.59543  0.01606  1.0000
  C   C997      1.0  0.34528  0.59781  0.02134  1.0000
  C   C998      1.0  0.36233  0.60609  0.04016  1.0000
  C   C999      1.0  0.33417  0.50096  0.05418  1.0000
  H   H1007     1.0  0.36797  0.96904  0.10131  1.0000
  H   H1008     1.0  0.37656  0.71032  0.00001  1.0000
  H   H1009     1.0  0.36311  0.91198  0.05511  1.0000
  C   C1000     1.0  0.33921  0.51852  0.04940  1.0000
  H   H1010     1.0  0.36979  0.51868  0.99315  1.0000
  H   H1011     1.0  0.28591  0.51943  0.99012  1.0000
  C   C1001     1.0  0.38563  0.82714  0.02990  1.0000
  H   H1012     1.0  0.37400  0.84182  0.02465  1.0000
  N   N87       1.0  0.21433  0.51041  0.00863  1.0000
  H   H1013     1.0  0.37044  0.60689  0.03477  1.0000
  S   S334      1.0  0.37785  0.78713  0.03427  1.0000
  C   C1002     1.0  0.27969  0.48926  0.00990  1.0000
  H   H1014     1.0  0.27063  0.49027  0.04742  1.0000
  C   C1003     1.0  0.38297  0.73479  0.06982  1.0000
  C   C1004     1.0  0.35762  0.49391  0.99591  1.0000
  H   H1015     1.0  0.36979  0.49534  0.04400  1.0000
  H   H1016     1.0  0.29483  0.49237  0.01040  1.0000
  H   H1017     1.0  0.34623  0.50423  0.06049  1.0000
  H   H1018     1.0  0.24110  0.49376  0.02793  1.0000
  C   C1005     1.0  0.36987  0.72778  0.99640  1.0000
  C   C1006     1.0  0.34794  0.49500  0.02927  1.0000
  H   H1019     1.0  0.37030  0.58856  0.99094  1.0000
  H   H1020     1.0  0.38498  0.90228  0.07471  1.0000
  C   C1007     1.0  0.24119  0.49591  0.03533  1.0000
  S   S335      1.0  0.35967  0.72665  0.99077  1.0000
  C   C1008     1.0  0.21730  0.54214  0.03418  1.0000
  H   H1021     1.0  0.36421  0.57267  0.98966  1.0000
  C   C1009     1.0  0.37740  0.71837  0.00007  1.0000
  C   C1010     1.0  0.24520  0.50495  0.98661  1.0000
  C   C1011     1.0  0.38583  0.71932  0.00416  1.0000
  H   H1022     1.0  0.34174  0.49493  0.02530  1.0000
  H   H1023     1.0  0.38149  0.61679  0.01316  1.0000
  C   C1012     1.0  0.21292  0.50576  0.01968  1.0000
  C   C1013     1.0  0.38201  0.58247  0.03161  1.0000
  C   C1014     1.0  0.21449  0.55447  0.01329  1.0000
  C   C1015     1.0  0.31868  0.52049  0.03356  1.0000
  Fe  Fe149     1.0  0.38002  0.88747  0.02075  1.0000
  C   C1016     1.0  0.37033  0.75634  0.03407  1.0000
  S   S336      1.0  0.36549  0.89258  0.01308  1.0000
  C   C1017     1.0  0.36829  0.62036  0.99291  1.0000
  C   C1018     1.0  0.36299  0.49375  0.00390  1.0000
  H   H1024     1.0  0.26780  0.56725  0.01041  1.0000
  C   C1019     1.0  0.36930  0.95536  0.13229  1.0000
  C   C1020     1.0  0.35883  0.89293  0.05796  1.0000
  H   H1025     1.0  0.35492  0.61894  0.02275  1.0000
  C   C1021     1.0  0.35780  0.89122  0.99612  1.0000
  C   C1022     1.0  0.36712  0.88983  0.00002  1.0000
  H   H1026     1.0  0.37984  0.76772  0.99035  1.0000
  H   H1027     1.0  0.33526  0.49235  0.05846  1.0000
  H   H1028     1.0  0.22021  0.52295  0.99551  1.0000
  S   S337      1.0  0.38211  0.71807  0.06128  1.0000
  H   H1029     1.0  0.34982  0.89346  0.00128  1.0000
  C   C1023     1.0  0.37203  0.61562  0.00261  1.0000
  C   C1024     1.0  0.35354  0.59317  0.03697  1.0000
  H   H1030     1.0  0.28107  0.49139  0.00095  1.0000
  C   C1025     1.0  0.38137  0.58822  0.02087  1.0000
  H   H1031     1.0  0.38014  0.72975  0.07779  1.0000
  S   S338      1.0  0.38022  0.77584  0.00867  1.0000
  H   H1032     1.0  0.38067  0.74720  0.00003  1.0000
  H   H1033     1.0  0.33116  0.53107  0.03772  1.0000
  H   H1034     1.0  0.18865  0.52555  0.06362  1.0000
  H   H1035     1.0  0.36366  0.75483  0.06113  1.0000
  C   C1026     1.0  0.38637  0.95998  0.12152  1.0000
  H   H1036     1.0  0.19049  0.53775  0.06600  1.0000
  C   C1027     1.0  0.21921  0.51920  0.00422  1.0000
  S   S339      1.0  0.19636  0.53921  0.04130  1.0000
  C   C1028     1.0  0.36655  0.98179  0.10969  1.0000
  H   H1037     1.0  0.37716  0.75248  0.01799  1.0000
  S   S340      1.0  0.38332  0.98824  0.16571  1.0000
  C   C1029     1.0  0.37804  0.95444  0.12319  1.0000
  Fe  Fe150     1.0  0.25089  0.54272  0.00848  1.0000
  C   C1030     1.0  0.35207  0.88162  0.05062  1.0000
  H   H1038     1.0  0.19786  0.55260  0.01908  1.0000
  H   H1039     1.0  0.24696  0.49647  0.99098  1.0000
  H   H1040     1.0  0.25188  0.56832  0.00303  1.0000
  H   H1041     1.0  0.37296  0.97578  0.21808  1.0000
  H   H1042     1.0  0.35818  0.61394  0.04283  1.0000
  C   C1031     1.0  0.24118  0.50223  0.05427  1.0000
  C   C1032     1.0  0.36866  0.66187  0.99853  1.0000
  H   H1043     1.0  0.38043  0.82732  0.00318  1.0000
  H   H1044     1.0  0.37030  0.91079  0.04139  1.0000
  H   H1045     1.0  0.38774  0.93635  0.14022  1.0000
  H   H1046     1.0  0.37796  0.56860  0.04449  1.0000
  H   H1047     1.0  0.36165  0.96293  0.14620  1.0000
  H   H1048     1.0  0.36763  0.65906  0.99161  1.0000
  N   N88       1.0  0.32608  0.51597  0.04115  1.0000
  C   C1033     1.0  0.37744  0.63527  0.98940  1.0000
  H   H1049     1.0  0.21845  0.53737  0.04225  1.0000
  H   H1050     1.0  0.38335  0.85453  0.02778  1.0000
  H   H1051     1.0  0.37511  0.58964  0.00675  1.0000
  H   H1052     1.0  0.28637  0.56385  0.99872  1.0000
  C   C1034     1.0  0.37545  0.80549  0.99728  1.0000
  C   C1035     1.0  0.23422  0.49236  0.04529  1.0000
  S   S341      1.0  0.26084  0.50763  0.99499  1.0000
  C   C1036     1.0  0.36865  0.96201  0.13941  1.0000
  H   H1053     1.0  0.34956  0.88851  0.03408  1.0000
  C   C1037     1.0  0.20573  0.55063  0.02111  1.0000
  C   C1038     1.0  0.23417  0.49557  0.05477  1.0000
  C   C1039     1.0  0.38663  0.84575  0.02956  1.0000
  H   H1054     1.0  0.37358  0.73359  0.02433  1.0000
  H   H1055     1.0  0.38467  0.88615  0.99597  1.0000
  C   C1040     1.0  0.37326  0.74957  0.02652  1.0000
  N   N89       1.0  0.35695  0.50259  0.98703  1.0000
  C   C1041     1.0  0.37126  0.73897  0.03007  1.0000
  H   H1056     1.0  0.30367  0.51348  0.99392  1.0000
  C   C1042     1.0  0.35285  0.61094  0.02515  1.0000
  C   C1043     1.0  0.38129  0.63039  0.99906  1.0000
  H   H1057     1.0  0.34565  0.61407  0.01116  1.0000
  C   C1044     1.0  0.38137  0.83854  0.02776  1.0000
  C   C1045     1.0  0.37973  0.73917  0.00008  1.0000
  C   C1046     1.0  0.22295  0.52349  0.01090  1.0000
  S   S342      1.0  0.37801  0.94636  0.11425  1.0000
  H   H1058     1.0  0.38780  0.92000  0.07608  1.0000
  H   H1059     1.0  0.35551  0.90551  0.03226  1.0000
  C   C1047     1.0  0.24821  0.50248  0.03486  1.0000
  C   C1048     1.0  0.24813  0.50578  0.04426  1.0000
  C   C1049     1.0  0.36745  0.50268  0.00289  1.0000
  C   C1050     1.0  0.37853  0.62060  0.00570  1.0000
  H   H1060     1.0  0.37043  0.98157  0.08265  1.0000
  H   H1061     1.0  0.25382  0.50484  0.02720  1.0000
  C   C1051     1.0  0.38800  0.82122  0.98828  1.0000
  C   C1052     1.0  0.26006  0.56695  0.99790  1.0000
  C   C1053     1.0  0.37094  0.57585  0.01959  1.0000
  C   C1054     1.0  0.37195  0.56979  0.03019  1.0000
  C   C1055     1.0  0.37744  0.57313  0.03619  1.0000
  C   C1056     1.0  0.38712  0.72973  0.00397  1.0000
  C   C1057     1.0  0.38474  0.74517  0.06913  1.0000
  C   C1058     1.0  0.37582  0.58494  0.01493  1.0000
  H   H1062     1.0  0.36819  0.56279  0.03390  1.0000
  C   C1059     1.0  0.38493  0.73087  0.06026  1.0000
  H   H1063     1.0  0.36284  0.95112  0.13369  1.0000
  S   S343      1.0  0.37978  0.87721  0.03798  1.0000
  C   C1060     1.0  0.35984  0.50477  0.03241  1.0000
  C   C1061     1.0  0.35195  0.50460  0.02709  1.0000
  C   C1062     1.0  0.37691  0.96756  0.13774  1.0000
  H   H1064     1.0  0.34420  0.52366  0.04996  1.0000
  H   H1065     1.0  0.34015  0.53938  0.99185  1.0000
  C   C1063     1.0  0.36370  0.49531  0.03985  1.0000
  H   H1066     1.0  0.34890  0.51182  0.02133  1.0000
  C   C1064     1.0  0.20714  0.54442  0.03156  1.0000
  H   H1067     1.0  0.38493  0.59535  0.01724  1.0000
  C   C1065     1.0  0.38144  0.97621  0.21612  1.0000
  C   C1066     1.0  0.31081  0.54706  0.01785  1.0000
  C   C1067     1.0  0.31543  0.54596  0.00698  1.0000
  C   C1068     1.0  0.30952  0.54317  0.00105  1.0000
  C   C1069     1.0  0.29904  0.54129  0.00599  1.0000
  C   C1070     1.0  0.29435  0.54248  0.01683  1.0000
  C   C1071     1.0  0.30020  0.54544  0.02272  1.0000
  H   H1068     1.0  0.32352  0.54735  0.00313  1.0000
  H   H1069     1.0  0.31308  0.54248  0.99259  1.0000
  H   H1070     1.0  0.28623  0.54111  0.02069  1.0000
  H   H1071     1.0  0.29656  0.54633  0.03112  1.0000
  C   C1072     1.0  0.22164  0.51872  0.02214  1.0000
  H   H1072     1.0  0.35629  0.91839  0.04393  1.0000
  H   H1073     1.0  0.23399  0.54378  0.02832  1.0000
  H   H1074     1.0  0.21545  0.50617  0.03534  1.0000
  C   C1073     1.0  0.38777  0.97562  0.20548  1.0000
  S   S344      1.0  0.37905  0.81836  0.02719  1.0000
  H   H1075     1.0  0.32909  0.52969  0.98694  1.0000
  C   C1074     1.0  0.36363  0.74223  0.04843  1.0000
  C   C1075     1.0  0.36781  0.97767  0.10041  1.0000
  H   H1076     1.0  0.36838  0.76553  0.05035  1.0000
  S   S345      1.0  0.38225  0.97255  0.19604  1.0000
  C   C1076     1.0  0.35556  0.88318  0.05919  1.0000
  S   S346      1.0  0.38640  0.61931  0.03366  1.0000
  S   S347      1.0  0.24755  0.52599  0.01583  1.0000
  C   C1077     1.0  0.38083  0.67024  0.00314  1.0000
  C   C1078     1.0  0.35195  0.88976  0.04093  1.0000
  C   C1079     1.0  0.20997  0.50645  0.00158  1.0000
  H   H1077     1.0  0.34666  0.58203  0.03269  1.0000
  S   S348      1.0  0.37501  0.97690  0.14605  1.0000
  H   H1078     1.0  0.21334  0.55930  0.00526  1.0000
  C   C1080     1.0  0.36283  0.75974  0.05274  1.0000
  H   H1079     1.0  0.36920  0.81329  0.01123  1.0000
  N   N90       1.0  0.35591  0.60337  0.03410  1.0000
  H   H1080     1.0  0.35622  0.58706  0.04388  1.0000
  H   H1081     1.0  0.36021  0.73912  0.05705  1.0000
  S   S349      1.0  0.26421  0.53738  0.99456  1.0000
  H   H1082     1.0  0.37195  0.76455  0.03124  1.0000
  H   H1083     1.0  0.36138  0.66845  0.00055  1.0000
  H   H1084     1.0  0.34971  0.87402  0.05136  1.0000
  H   H1085     1.0  0.37011  0.60796  0.00761  1.0000
  Fe  Fe151     1.0  0.38786  0.97613  0.15489  1.0000
  H   H1086     1.0  0.31548  0.51402  0.03219  1.0000
  Fe  Fe152     1.0  0.38744  0.80041  0.02844  1.0000
  C   C1081     1.0  0.32703  0.50530  0.04703  1.0000
  H   H1087     1.0  0.21549  0.50663  0.99330  1.0000
  H   H1088     1.0  0.35596  0.87679  0.06665  1.0000
  H   H1089     1.0  0.36177  0.89395  0.06457  1.0000
  C   C1082     1.0  0.37457  0.81341  0.00311  1.0000
  C   C1083     1.0  0.34034  0.50761  0.05532  1.0000
  H   H1090     1.0  0.32300  0.52459  0.02539  1.0000
  H   H1091     1.0  0.22454  0.52189  0.02744  1.0000
  C   C1084     1.0  0.22613  0.54573  0.02626  1.0000
  N   N91       1.0  0.37855  0.66618  0.99558  1.0000
  Fe  Fe153     1.0  0.38776  0.78138  0.01902  1.0000
  H   H1092     1.0  0.36380  0.59955  0.04760  1.0000
  C   C1085     1.0  0.26898  0.56638  0.00204  1.0000
  H   H1093     1.0  0.31170  0.52671  0.03690  1.0000
  N   N92       1.0  0.36574  0.75257  0.04490  1.0000
  C   C1086     1.0  0.28735  0.48988  0.01518  1.0000
  H   H1094     1.0  0.36501  0.74544  0.99394  1.0000
  C   C1087     1.0  0.21656  0.50984  0.02659  1.0000
  C   C1088     1.0  0.38584  0.96648  0.12882  1.0000
  N   N93       1.0  0.35859  0.90092  0.04847  1.0000
  C   C1089     1.0  0.33195  0.52261  0.04236  1.0000
  Fe  Fe154     1.0  0.26177  0.52042  0.00299  1.0000
  S   S350      1.0  0.38669  0.90041  0.02346  1.0000
  H   H1095     1.0  0.22681  0.53047  0.00740  1.0000
  C   C1090     1.0  0.35534  0.89938  0.03996  1.0000
  C   C1091     1.0  0.36221  0.91103  0.04716  1.0000
  C   C1092     1.0  0.37091  0.73817  0.99662  1.0000
  S   S351      1.0  0.23597  0.55577  0.00563  1.0000
  H   H1096     1.0  0.35433  0.76454  0.05309  1.0000
  H   H1097     1.0  0.36514  0.72691  0.04403  1.0000
  C   C1093     1.0  0.34811  0.59028  0.03069  1.0000
  S   S352      1.0  0.38293  0.95779  0.08176  1.0000
  C   C1094     1.0  0.34756  0.60825  0.01859  1.0000
  H   H1098     1.0  0.32252  0.49995  0.04599  1.0000
  H   H1099     1.0  0.37697  0.91216  0.00193  1.0000
  S   S353      1.0  0.36083  0.61355  0.98883  1.0000
  S   S354      1.0  0.19099  0.53326  0.01641  1.0000
  S   S355      1.0  0.38546  0.71007  0.03324  1.0000
  S   S356      1.0  0.38489  0.89402  0.05633  1.0000
  H   H1100     1.0  0.36905  0.65473  0.00566  1.0000
  H   H1101     1.0  0.37062  0.79928  0.00096  1.0000
  H   H1102     1.0  0.37146  0.50277  0.00915  1.0000
  C   C1095     1.0  0.38679  0.90848  0.06730  1.0000
  C   C1096     1.0  0.38614  0.97677  0.22441  1.0000
  C   C1097     1.0  0.38214  0.91207  0.99376  1.0000
  H   H1103     1.0  0.38780  0.66183  0.02350  1.0000
  C   C1098     1.0  0.37741  0.88698  0.99320  1.0000
  H   H1104     1.0  0.22875  0.49289  0.06250  1.0000
  C   C1099     1.0  0.38093  0.82128  0.99859  1.0000
  H   H1105     1.0  0.38131  0.97673  0.23270  1.0000
  C   C1100     1.0  0.25070  0.51241  0.98735  1.0000
  N   N94       1.0  0.38245  0.80547  0.98719  1.0000
  C   C1101     1.0  0.26170  0.56558  0.98721  1.0000
  Fe  Fe155     1.0  0.30987  0.97982  0.42744  1.0000
  C   C1102     1.0  0.31566  0.98382  0.48546  1.0000
  S   S357      1.0  0.32754  0.97552  0.41844  1.0000
  Fe  Fe156     1.0  0.28649  0.97671  0.43341  1.0000
  C   C1103     1.0  0.36563  0.95995  0.33745  1.0000
  C   C1104     1.0  0.38803  0.96992  0.30776  1.0000
  H   H1106     1.0  0.26643  0.97257  0.45181  1.0000
  C   C1105     1.0  0.30417  0.97529  0.47556  1.0000
  H   H1107     1.0  0.35446  0.97006  0.31539  1.0000
  S   S358      1.0  0.28109  0.98650  0.44647  1.0000
  H   H1108     1.0  0.26069  0.94542  0.44467  1.0000
  Fe  Fe157     1.0  0.21362  0.97512  0.45689  1.0000
  N   N95       1.0  0.35788  0.96557  0.33149  1.0000
  S   S359      1.0  0.19787  0.97515  0.46950  1.0000
  H   H1109     1.0  0.26001  0.94942  0.47978  1.0000
  C   C1106     1.0  0.37404  0.97970  0.29740  1.0000
  C   C1107     1.0  0.34921  0.97320  0.33556  1.0000
  C   C1108     1.0  0.24987  0.97066  0.45639  1.0000
  C   C1109     1.0  0.36481  0.96190  0.34777  1.0000
  H   H1110     1.0  0.28741  0.94872  0.44467  1.0000
  S   S360      1.0  0.20686  0.97284  0.44373  1.0000
  S   S361      1.0  0.37678  0.97642  0.35936  1.0000
  H   H1111     1.0  0.25639  0.94401  0.46453  1.0000
  H   H1112     1.0  0.35591  0.97820  0.38437  1.0000
  H   H1113     1.0  0.29142  0.95389  0.45994  1.0000
  C   C1110     1.0  0.28145  0.94869  0.45243  1.0000
  C   C1111     1.0  0.34731  0.98054  0.38793  1.0000
  C   C1112     1.0  0.28373  0.95170  0.46097  1.0000
  C   C1113     1.0  0.27600  0.95200  0.47085  1.0000
  Fe  Fe158     1.0  0.38627  0.98825  0.35985  1.0000
  Fe  Fe159     1.0  0.29685  0.97744  0.45140  1.0000
  N   N96       1.0  0.27171  0.94600  0.45375  1.0000
  S   S362      1.0  0.36846  0.98194  0.28587  1.0000
  C   C1114     1.0  0.35597  0.96961  0.35201  1.0000
  S   S363      1.0  0.30161  0.96659  0.43920  1.0000
  H   H1114     1.0  0.27395  0.94657  0.43662  1.0000
  H   H1115     1.0  0.34880  0.97163  0.40442  1.0000
  C   C1115     1.0  0.26153  0.97043  0.43817  1.0000
  H   H1116     1.0  0.25423  0.96792  0.42635  1.0000
  C   C1116     1.0  0.24286  0.96826  0.44204  1.0000
  C   C1117     1.0  0.24137  0.96897  0.45296  1.0000
  Fe  Fe160     1.0  0.38113  0.98249  0.34087  1.0000
  C   C1118     1.0  0.25987  0.97155  0.44898  1.0000
  C   C1119     1.0  0.31123  0.98213  0.46905  1.0000
  H   H1117     1.0  0.37110  0.95759  0.35235  1.0000
  H   H1118     1.0  0.22470  0.98836  0.48185  1.0000
  H   H1119     1.0  0.27769  0.95451  0.47742  1.0000
  C   C1120     1.0  0.26416  0.94604  0.46352  1.0000
  C   C1121     1.0  0.33211  0.97977  0.40403  1.0000
  C   C1122     1.0  0.34326  0.97681  0.39928  1.0000
  S   S364      1.0  0.29616  0.97061  0.46967  1.0000
  H   H1120     1.0  0.31235  0.98414  0.46022  1.0000
  S   S365      1.0  0.22927  0.96704  0.46267  1.0000
  C   C1123     1.0  0.38242  0.97532  0.31639  1.0000
  C   C1124     1.0  0.26949  0.94267  0.44482  1.0000
  C   C1125     1.0  0.36845  0.98518  0.30598  1.0000
  H   H1121     1.0  0.24874  0.97119  0.46485  1.0000
  H   H1122     1.0  0.23634  0.96690  0.43935  1.0000
  C   C1126     1.0  0.31706  0.98625  0.47398  1.0000
  S   S366      1.0  0.27442  0.97006  0.42915  1.0000
  H   H1123     1.0  0.37265  0.95409  0.33413  1.0000
  C   C1127     1.0  0.25299  0.96883  0.43470  1.0000
  H   H1124     1.0  0.27196  0.93359  0.44589  1.0000
  Fe  Fe161     1.0  0.38127  0.98464  0.27020  1.0000
  C   C1128     1.0  0.26614  0.94913  0.47217  1.0000
  H   H1125     1.0  0.36826  0.98726  0.32198  1.0000
  C   C1129     1.0  0.35860  0.96293  0.32097  1.0000
  C   C1130     1.0  0.37269  0.98308  0.31539  1.0000
  C   C1131     1.0  0.34019  0.98711  0.38121  1.0000
  C   C1132     1.0  0.34816  0.97538  0.34585  1.0000
  H   H1126     1.0  0.34140  0.98155  0.34906  1.0000
  H   H1127     1.0  0.34309  0.97770  0.33083  1.0000
  H   H1128     1.0  0.35521  0.97120  0.36002  1.0000
  H   H1129     1.0  0.26577  0.98224  0.47959  1.0000
  C   C1133     1.0  0.38394  0.97221  0.29825  1.0000
  Fe  Fe162     1.0  0.19065  0.97478  0.45586  1.0000
  H   H1130     1.0  0.35483  0.95583  0.32246  1.0000
  H   H1131     1.0  0.36724  0.96086  0.31648  1.0000
  S   S367      1.0  0.38752  0.97164  0.32847  1.0000
  C   C1134     1.0  0.32500  0.98642  0.39732  1.0000
  H   H1132     1.0  0.26916  0.96330  0.52882  1.0000
  Fe  Fe163     1.0  0.20676  0.98490  0.53899  1.0000
  C   C1135     1.0  0.19567  0.97891  0.50625  1.0000
  H   H1133     1.0  0.28040  0.98429  0.54158  1.0000
  S   S368      1.0  0.31954  0.96855  0.52029  1.0000
  C   C1136     1.0  0.27605  0.97308  0.53489  1.0000
  C   C1137     1.0  0.33770  0.97944  0.55261  1.0000
  S   S369      1.0  0.30793  0.97919  0.54206  1.0000
  S   S370      1.0  0.19721  0.97163  0.54614  1.0000
  Fe  Fe164     1.0  0.32496  0.97488  0.53199  1.0000
  S   S371      1.0  0.33962  0.96520  0.53945  1.0000
  Fe  Fe165     1.0  0.30248  0.97466  0.52926  1.0000
  S   S372      1.0  0.28946  0.96552  0.53143  1.0000
  H   H1134     1.0  0.38501  0.97719  0.70106  1.0000
  H   H1135     1.0  0.21281  0.97684  0.51396  1.0000
  C   C1138     1.0  0.34156  0.98365  0.55931  1.0000
  H   H1136     1.0  0.38082  0.97929  0.63946  1.0000
  C   C1139     1.0  0.26747  0.97012  0.53275  1.0000
  H   H1137     1.0  0.19349  0.95952  0.52975  1.0000
  C   C1140     1.0  0.27321  0.98283  0.49224  1.0000
  N   N97       1.0  0.30257  0.95196  0.55510  1.0000
  H   H1138     1.0  0.20153  0.98330  0.50038  1.0000
  C   C1141     1.0  0.35018  0.98398  0.63205  1.0000
  C   C1142     1.0  0.31798  0.94365  0.54260  1.0000
  H   H1139     1.0  0.28817  0.95380  0.56780  1.0000
  H   H1140     1.0  0.33375  0.94357  0.54469  1.0000
  C   C1143     1.0  0.20966  0.96915  0.51680  1.0000
  C   C1144     1.0  0.34370  0.96991  0.54896  1.0000
  C   C1145     1.0  0.30940  0.95407  0.56014  1.0000
  C   C1146     1.0  0.27383  0.98192  0.53995  1.0000
  H   H1141     1.0  0.32613  0.95293  0.56033  1.0000
  S   S373      1.0  0.38011  0.96348  0.58714  1.0000
  N   N98       1.0  0.19853  0.97134  0.51527  1.0000
  C   C1147     1.0  0.25666  0.97586  0.53585  1.0000
  Fe  Fe166     1.0  0.37438  0.96919  0.60312  1.0000
  S   S374      1.0  0.36976  0.95827  0.61979  1.0000
  C   C1148     1.0  0.35900  0.98291  0.52687  1.0000
  C   C1149     1.0  0.30673  0.94684  0.54641  1.0000
  H   H1142     1.0  0.30613  0.95843  0.56680  1.0000
  C   C1150     1.0  0.32070  0.95096  0.55656  1.0000
  S   S375      1.0  0.37212  0.97067  0.66291  1.0000
  S   S376      1.0  0.36243  0.98392  0.59656  1.0000
  H   H1143     1.0  0.32125  0.93983  0.53555  1.0000
  S   S377      1.0  0.22435  0.98070  0.53030  1.0000
  H   H1144     1.0  0.28615  0.95200  0.55532  1.0000
  H   H1145     1.0  0.34998  0.98644  0.51429  1.0000
  C   C1151     1.0  0.37119  0.96162  0.63150  1.0000
  C   C1152     1.0  0.36690  0.95578  0.64194  1.0000
  C   C1153     1.0  0.36739  0.95855  0.65147  1.0000
  C   C1154     1.0  0.37240  0.96703  0.65068  1.0000
  C   C1155     1.0  0.37698  0.97271  0.64022  1.0000
  C   C1156     1.0  0.37623  0.97012  0.63065  1.0000
  H   H1146     1.0  0.36297  0.94921  0.64268  1.0000
  H   H1147     1.0  0.36383  0.95411  0.65951  1.0000
  H   H1148     1.0  0.35804  0.95683  0.54986  1.0000
  Fe  Fe167     1.0  0.38243  0.98213  0.66242  1.0000
  C   C1157     1.0  0.32499  0.94572  0.54773  1.0000
  C   C1158     1.0  0.29078  0.95582  0.55866  1.0000
  H   H1149     1.0  0.36670  0.98183  0.53983  1.0000
  H   H1150     1.0  0.30135  0.94538  0.54221  1.0000
  H   H1151     1.0  0.29811  0.96675  0.49211  1.0000
  H   H1152     1.0  0.33012  0.98363  0.55018  1.0000
  H   H1153     1.0  0.28124  0.97906  0.48817  1.0000
  C   C1159     1.0  0.30883  0.97674  0.49198  1.0000
  H   H1154     1.0  0.25005  0.97340  0.53438  1.0000
  S   S378      1.0  0.35645  0.98501  0.56968  1.0000
  C   C1160     1.0  0.26446  0.98455  0.48737  1.0000
  H   H1155     1.0  0.28849  0.96488  0.55558  1.0000
  H   H1156     1.0  0.21509  0.96303  0.51202  1.0000
  Fe  Fe168     1.0  0.36928  0.97930  0.58006  1.0000
  H   H1157     1.0  0.36478  0.96422  0.56189  1.0000
  C   C1161     1.0  0.35336  0.96429  0.55257  1.0000
  C   C1162     1.0  0.35140  0.97830  0.56261  1.0000
  C   C1163     1.0  0.35719  0.96844  0.55941  1.0000
  H   H1158     1.0  0.30788  0.97460  0.50084  1.0000
  H   H1159     1.0  0.20998  0.96596  0.52564  1.0000
  C   C1164     1.0  0.25441  0.98434  0.54140  1.0000
  C   C1165     1.0  0.38644  0.97294  0.71807  1.0000
  H   H1160     1.0  0.28475  0.97563  0.50892  1.0000
  H   H1161     1.0  0.37949  0.97477  0.62267  1.0000
  Fe  Fe169     1.0  0.31776  0.98579  0.51007  1.0000
  H   H1162     1.0  0.36104  0.97407  0.52746  1.0000
  C   C1166     1.0  0.19125  0.96549  0.52254  1.0000
  H   H1163     1.0  0.38023  0.96814  0.72095  1.0000
  C   C1167     1.0  0.28116  0.98456  0.50645  1.0000
  H   H1164     1.0  0.35443  0.98083  0.62443  1.0000
  N   N99       1.0  0.27172  0.98614  0.50181  1.0000
  H   H1165     1.0  0.35033  0.97666  0.63904  1.0000
  H   H1166     1.0  0.28744  0.98865  0.50027  1.0000
  C   C1168     1.0  0.36214  0.98734  0.53386  1.0000
  H   H1167     1.0  0.27899  0.98811  0.51386  1.0000
  C   C1169     1.0  0.26302  0.98739  0.54337  1.0000
  H   H1168     1.0  0.35221  0.98694  0.65096  1.0000
  C   C1170     1.0  0.30324  0.97236  0.48702  1.0000
  H   H1169     1.0  0.34161  0.98795  0.63159  1.0000
  S   S379      1.0  0.38754  0.97821  0.59991  1.0000
  Fe  Fe170     1.0  0.30639  0.55743  0.94622  1.0000
  S   S380      1.0  0.31029  0.53945  0.94628  1.0000
  S   S381      1.0  0.28884  0.56584  0.95160  1.0000
  Fe  Fe171     1.0  0.33005  0.55960  0.93721  1.0000
  S   S382      1.0  0.33574  0.54180  0.93607  1.0000
  S   S383      1.0  0.34373  0.56880  0.93183  1.0000
  Fe  Fe172     1.0  0.32088  0.54425  0.92966  1.0000
  S   S384      1.0  0.32069  0.53823  0.91501  1.0000
  Fe  Fe173     1.0  0.32464  0.53862  0.95265  1.0000
  S   S385      1.0  0.32982  0.52513  0.96640  1.0000
  S   S386      1.0  0.31613  0.56244  0.92908  1.0000
  S   S387      1.0  0.31986  0.55617  0.95442  1.0000
  H   H1170     1.0  0.34625  0.62772  0.92834  1.0000
  H   H1171     1.0  0.33264  0.50107  0.91822  1.0000
  C   C1171     1.0  0.33291  0.49228  0.92057  1.0000
  S   S388      1.0  0.30116  0.49688  0.92101  1.0000
  H   H1172     1.0  0.32837  0.58253  0.97920  1.0000
  C   C1172     1.0  0.20148  0.56818  0.91629  1.0000
  C   C1173     1.0  0.35339  0.64182  0.92457  1.0000
  C   C1174     1.0  0.34501  0.58260  0.97060  1.0000
  N   N100      1.0  0.28543  0.55630  0.90784  1.0000
  S   S389      1.0  0.37862  0.77697  0.93736  1.0000
  C   C1175     1.0  0.37846  0.56771  0.97742  1.0000
  Fe  Fe174     1.0  0.24139  0.55066  0.93688  1.0000
  S   S390      1.0  0.23872  0.53396  0.93804  1.0000
  S   S391      1.0  0.25902  0.55132  0.93014  1.0000
  Fe  Fe175     1.0  0.21695  0.56040  0.94277  1.0000
  S   S392      1.0  0.21266  0.54447  0.94444  1.0000
  S   S393      1.0  0.20316  0.57519  0.94459  1.0000
  Fe  Fe176     1.0  0.22626  0.53711  0.95327  1.0000
  H   H1173     1.0  0.31434  0.49287  0.96344  1.0000
  Fe  Fe177     1.0  0.22554  0.54322  0.92906  1.0000
  S   S394      1.0  0.22203  0.53910  0.91497  1.0000
  S   S395      1.0  0.22975  0.55318  0.95292  1.0000
  S   S396      1.0  0.22903  0.55971  0.92665  1.0000
  H   H1174     1.0  0.36047  0.56093  0.94596  1.0000
  C   C1176     1.0  0.25319  0.50296  0.94478  1.0000
  Fe  Fe178     1.0  0.19371  0.49442  0.94093  1.0000
  H   H1175     1.0  0.37236  0.68340  0.95158  1.0000
  N   N101      1.0  0.19572  0.56729  0.97329  1.0000
  H   H1176     1.0  0.29339  0.55147  0.93674  1.0000
  C   C1177     1.0  0.33615  0.53210  0.98103  1.0000
  H   H1177     1.0  0.36156  0.54057  0.95986  1.0000
  C   C1178     1.0  0.37190  0.57445  0.98456  1.0000
  H   H1178     1.0  0.35045  0.76480  0.95399  1.0000
  H   H1179     1.0  0.29838  0.55862  0.98286  1.0000
  C   C1179     1.0  0.36039  0.77112  0.96025  1.0000
  H   H1180     1.0  0.38620  0.88394  0.97709  1.0000
  H   H1181     1.0  0.35970  0.63928  0.91773  1.0000
  H   H1182     1.0  0.22437  0.50208  0.94372  1.0000
  S   S397      1.0  0.29323  0.48917  0.97618  1.0000
  H   H1183     1.0  0.34164  0.48914  0.93334  1.0000
  H   H1184     1.0  0.38554  0.91573  0.89249  1.0000
  H   H1185     1.0  0.35682  0.97635  0.86899  1.0000
  Fe  Fe179     1.0  0.35887  0.61420  0.95070  1.0000
  H   H1186     1.0  0.28185  0.51898  0.95858  1.0000
  S   S398      1.0  0.34385  0.61021  0.94873  1.0000
  Fe  Fe180     1.0  0.36946  0.63312  0.94868  1.0000
  C   C1180     1.0  0.38501  0.75417  0.94340  1.0000
  S   S399      1.0  0.37112  0.65055  0.94068  1.0000
  C   C1181     1.0  0.23243  0.50251  0.94398  1.0000
  H   H1187     1.0  0.38001  0.97124  0.81302  1.0000
  C   C1182     1.0  0.37687  0.74183  0.93862  1.0000
  S   S400      1.0  0.37326  0.62033  0.93866  1.0000
  S   S401      1.0  0.35426  0.62807  0.95956  1.0000
  Fe  Fe181     1.0  0.37519  0.71629  0.95519  1.0000
  C   C1183     1.0  0.19576  0.51947  0.96469  1.0000
  C   C1184     1.0  0.36893  0.88709  0.97866  1.0000
  Fe  Fe182     1.0  0.36931  0.69520  0.97043  1.0000
  C   C1185     1.0  0.27231  0.56360  0.98079  1.0000
  S   S402      1.0  0.36209  0.68022  0.97499  1.0000
  C   C1186     1.0  0.34501  0.66437  0.94015  1.0000
  C   C1187     1.0  0.23525  0.49991  0.95420  1.0000
  H   H1188     1.0  0.20738  0.51137  0.97493  1.0000
  S   S403      1.0  0.35983  0.71275  0.96726  1.0000
  H   H1189     1.0  0.27564  0.57967  0.91753  1.0000
  C   C1188     1.0  0.36820  0.74930  0.96955  1.0000
  C   C1189     1.0  0.29257  0.57147  0.91404  1.0000
  C   C1190     1.0  0.33786  0.64816  0.94251  1.0000
  C   C1191     1.0  0.35870  0.88975  0.98555  1.0000
  H   H1190     1.0  0.25592  0.50781  0.92712  1.0000
  C   C1192     1.0  0.27811  0.56528  0.91107  1.0000
  C   C1193     1.0  0.19597  0.55972  0.91860  1.0000
  C   C1194     1.0  0.38401  0.74343  0.94404  1.0000
  C   C1195     1.0  0.36131  0.51135  0.98599  1.0000
  H   H1191     1.0  0.29533  0.57714  0.91685  1.0000
  C   C1196     1.0  0.30002  0.56256  0.91024  1.0000
  C   C1197     1.0  0.33477  0.57042  0.96919  1.0000
  H   H1192     1.0  0.37858  0.75532  0.97570  1.0000
  H   H1193     1.0  0.38111  0.91140  0.96807  1.0000
  C   C1198     1.0  0.37235  0.75750  0.97099  1.0000
  H   H1194     1.0  0.19942  0.49485  0.98285  1.0000
  S   S404      1.0  0.36973  0.88568  0.96528  1.0000
  S   S405      1.0  0.38208  0.71953  0.96749  1.0000
  C   C1199     1.0  0.28708  0.51846  0.96395  1.0000
  N   N102      1.0  0.34530  0.65444  0.93666  1.0000
  H   H1195     1.0  0.27356  0.56243  0.97251  1.0000
  C   C1200     1.0  0.35397  0.57776  0.96333  1.0000
  C   C1201     1.0  0.23457  0.51948  0.97503  1.0000
  Fe  Fe183     1.0  0.36754  0.71475  0.97975  1.0000
  C   C1202     1.0  0.28172  0.54807  0.90488  1.0000
  H   H1196     1.0  0.18846  0.50130  0.91727  1.0000
  H   H1197     1.0  0.35760  0.77960  0.95620  1.0000
  S   S406      1.0  0.37590  0.69702  0.98394  1.0000
  H   H1198     1.0  0.28636  0.53963  0.90785  1.0000
  H   H1199     1.0  0.19039  0.55659  0.96713  1.0000
  S   S407      1.0  0.22381  0.52359  0.96823  1.0000
  C   C1203     1.0  0.35439  0.53839  0.96573  1.0000
  C   C1204     1.0  0.28259  0.51946  0.97483  1.0000
  C   C1205     1.0  0.37075  0.75097  0.93265  1.0000
  H   H1200     1.0  0.36783  0.57038  0.94649  1.0000
  S   S408      1.0  0.37536  0.72861  0.93902  1.0000
  C   C1206     1.0  0.31481  0.48951  0.97197  1.0000
  C   C1207     1.0  0.37151  0.76164  0.93227  1.0000
  N   N103      1.0  0.28102  0.56299  0.98493  1.0000
  C   C1208     1.0  0.28154  0.57290  0.91439  1.0000
  H   H1201     1.0  0.35321  0.49444  0.97683  1.0000
  H   H1202     1.0  0.36412  0.96990  0.88586  1.0000
  S   S409      1.0  0.36009  0.54637  0.98024  1.0000
  C   C1209     1.0  0.36904  0.65864  0.95025  1.0000
  C   C1210     1.0  0.37203  0.66885  0.94676  1.0000
  C   C1211     1.0  0.37007  0.67552  0.95431  1.0000
  C   C1212     1.0  0.36496  0.67204  0.96533  1.0000
  C   C1213     1.0  0.36192  0.66185  0.96877  1.0000
  C   C1214     1.0  0.36400  0.65515  0.96126  1.0000
  H   H1203     1.0  0.37585  0.56064  0.97693  1.0000
  N   N104      1.0  0.30050  0.51670  0.97785  1.0000
  H   H1204     1.0  0.35787  0.65916  0.97725  1.0000
  H   H1205     1.0  0.36151  0.64738  0.96395  1.0000
  H   H1206     1.0  0.35142  0.89080  0.98265  1.0000
  H   H1207     1.0  0.36289  0.73619  0.96023  1.0000
  H   H1208     1.0  0.36793  0.55755  0.95671  1.0000
  Fe  Fe184     1.0  0.38286  0.60995  0.95135  1.0000
  Fe  Fe185     1.0  0.36514  0.61678  0.97042  1.0000
  C   C1215     1.0  0.35294  0.65145  0.92772  1.0000
  C   C1216     1.0  0.35987  0.94877  0.87250  1.0000
  H   H1209     1.0  0.19954  0.55157  0.92275  1.0000
  N   N105      1.0  0.36042  0.75194  0.96353  1.0000
  H   H1210     1.0  0.29320  0.55408  0.97398  1.0000
  C   C1217     1.0  0.29629  0.55501  0.90717  1.0000
  N   N106      1.0  0.35327  0.56956  0.95899  1.0000
  C   C1218     1.0  0.30496  0.51599  0.96711  1.0000
  C   C1219     1.0  0.35865  0.96762  0.87270  1.0000
  H   H1211     1.0  0.20918  0.56653  0.91861  1.0000
  H   H1212     1.0  0.33728  0.67048  0.93931  1.0000
  C   C1220     1.0  0.21137  0.55929  0.98133  1.0000
  H   H1213     1.0  0.36527  0.74982  0.92839  1.0000
  C   C1221     1.0  0.33538  0.57884  0.97359  1.0000
  H   H1214     1.0  0.33191  0.65044  0.94969  1.0000
  H   H1215     1.0  0.34320  0.55956  0.95819  1.0000
  H   H1216     1.0  0.37818  0.79120  0.98577  1.0000
  H   H1217     1.0  0.19059  0.52642  0.91417  1.0000
  H   H1218     1.0  0.35064  0.74007  0.97023  1.0000
  H   H1219     1.0  0.37860  0.94942  0.89431  1.0000
  C   C1222     1.0  0.35726  0.95999  0.86776  1.0000
  C   C1223     1.0  0.36983  0.94919  0.89677  1.0000
  C   C1224     1.0  0.35612  0.74315  0.96235  1.0000
  C   C1225     1.0  0.21228  0.53106  0.92031  1.0000
  C   C1226     1.0  0.21154  0.52453  0.93098  1.0000
  C   C1227     1.0  0.20346  0.51841  0.93546  1.0000
  C   C1228     1.0  0.19578  0.51926  0.92949  1.0000
  C   C1229     1.0  0.19644  0.52589  0.91885  1.0000
  C   C1230     1.0  0.20484  0.53164  0.91417  1.0000
  H   H1220     1.0  0.21730  0.52406  0.93573  1.0000
  H   H1221     1.0  0.20308  0.51316  0.94358  1.0000
  C   C1231     1.0  0.20309  0.56830  0.97841  1.0000
  H   H1222     1.0  0.20542  0.53672  0.90590  1.0000
  C   C1232     1.0  0.37830  0.88576  0.98248  1.0000
  H   H1223     1.0  0.30864  0.56134  0.90988  1.0000
  H   H1224     1.0  0.36615  0.93660  0.88559  1.0000
  C   C1233     1.0  0.36380  0.94536  0.88217  1.0000
  H   H1225     1.0  0.24283  0.50273  0.91823  1.0000
  C   C1234     1.0  0.34587  0.63534  0.93053  1.0000
  H   H1226     1.0  0.33229  0.63341  0.94432  1.0000
  S   S410      1.0  0.36888  0.60258  0.96240  1.0000
  S   S411      1.0  0.37994  0.62311  0.96049  1.0000
  H   H1227     1.0  0.28279  0.54973  0.89580  1.0000
  H   H1228     1.0  0.33165  0.49021  0.96907  1.0000
  C   C1235     1.0  0.34383  0.56590  0.96180  1.0000
  H   H1229     1.0  0.32732  0.56745  0.97137  1.0000
  H   H1230     1.0  0.26949  0.56631  0.91162  1.0000
  H   H1231     1.0  0.20467  0.54042  0.97227  1.0000
  H   H1232     1.0  0.36139  0.58078  0.96097  1.0000
  H   H1233     1.0  0.36076  0.51823  0.97900  1.0000
  C   C1236     1.0  0.36288  0.56433  0.95170  1.0000
  H   H1234     1.0  0.27300  0.54812  0.90885  1.0000
  C   C1237     1.0  0.35646  0.76269  0.95894  1.0000
  H   H1235     1.0  0.30213  0.54799  0.90447  1.0000
  C   C1238     1.0  0.24572  0.50007  0.95457  1.0000
  H   H1236     1.0  0.27386  0.52079  0.97793  1.0000
  C   C1239     1.0  0.19633  0.55744  0.97100  1.0000
  C   C1240     1.0  0.23688  0.50797  0.92370  1.0000
  C   C1241     1.0  0.34336  0.58073  0.93606  1.0000
  C   C1242     1.0  0.33397  0.58600  0.94252  1.0000
  C   C1243     1.0  0.33422  0.59513  0.94623  1.0000
  C   C1244     1.0  0.34389  0.59888  0.94370  1.0000
  C   C1245     1.0  0.35326  0.59365  0.93719  1.0000
  C   C1246     1.0  0.35293  0.58472  0.93324  1.0000
  H   H1237     1.0  0.32655  0.58304  0.94468  1.0000
  H   H1238     1.0  0.32693  0.59921  0.95119  1.0000
  H   H1239     1.0  0.36071  0.59657  0.93506  1.0000
  H   H1240     1.0  0.36017  0.58075  0.92811  1.0000
  C   C1247     1.0  0.33861  0.53037  0.97037  1.0000
  C   C1248     1.0  0.34766  0.53361  0.96267  1.0000
  H   H1241     1.0  0.23819  0.53552  0.97138  1.0000
  C   C1249     1.0  0.19087  0.57479  0.94178  1.0000
  H   H1242     1.0  0.22937  0.49773  0.96177  1.0000
  C   C1250     1.0  0.34252  0.53742  0.98388  1.0000
  H   H1243     1.0  0.34952  0.53234  0.95436  1.0000
  H   H1244     1.0  0.30188  0.51598  0.95160  1.0000
  H   H1245     1.0  0.22877  0.50634  0.92450  1.0000
  H   H1246     1.0  0.36658  0.76865  0.92776  1.0000
  C   C1251     1.0  0.31512  0.52671  0.91724  1.0000
  C   C1252     1.0  0.31299  0.52444  0.90820  1.0000
  C   C1253     1.0  0.30848  0.51543  0.90957  1.0000
  C   C1254     1.0  0.30619  0.50847  0.91995  1.0000
  C   C1255     1.0  0.30841  0.51061  0.92903  1.0000
  C   C1256     1.0  0.31286  0.51976  0.92767  1.0000
  H   H1247     1.0  0.31487  0.52966  0.90009  1.0000
  H   H1248     1.0  0.30687  0.51377  0.90251  1.0000
  H   H1249     1.0  0.30674  0.50521  0.93704  1.0000
  H   H1250     1.0  0.31473  0.52134  0.93460  1.0000
  C   C1257     1.0  0.28022  0.56118  0.94654  1.0000
  C   C1258     1.0  0.26886  0.56478  0.94944  1.0000
  C   C1259     1.0  0.26207  0.56133  0.94498  1.0000
  C   C1260     1.0  0.26669  0.55423  0.93768  1.0000
  C   C1261     1.0  0.27797  0.55034  0.93518  1.0000
  C   C1262     1.0  0.28470  0.55397  0.93940  1.0000
  H   H1251     1.0  0.26532  0.57047  0.95487  1.0000
  H   H1252     1.0  0.25335  0.56445  0.94685  1.0000
  H   H1253     1.0  0.28158  0.54477  0.92963  1.0000
  C   C1263     1.0  0.25006  0.50562  0.93471  1.0000
  C   C1264     1.0  0.24013  0.52700  0.97562  1.0000
  H   H1254     1.0  0.31371  0.51472  0.96400  1.0000
  N   N107      1.0  0.36517  0.95290  0.88695  1.0000
  C   C1265     1.0  0.35174  0.54040  0.97634  1.0000
  C   C1266     1.0  0.38333  0.79722  0.98105  1.0000
  H   H1255     1.0  0.37172  0.77492  0.96708  1.0000
  C   C1267     1.0  0.36275  0.96390  0.88229  1.0000
  H   H1256     1.0  0.35192  0.66830  0.93520  1.0000
  H   H1257     1.0  0.35909  0.94273  0.86859  1.0000
  H   H1258     1.0  0.35166  0.74594  0.95559  1.0000
  C   C1268     1.0  0.29833  0.51674  0.96004  1.0000
  H   H1259     1.0  0.19188  0.55741  0.94840  1.0000
  H   H1260     1.0  0.37127  0.74080  0.97323  1.0000
  H   H1261     1.0  0.23667  0.51680  0.91975  1.0000
  H   H1262     1.0  0.24805  0.49796  0.96242  1.0000
  C   C1269     1.0  0.19684  0.57880  0.91125  1.0000
  C   C1270     1.0  0.19598  0.50153  0.97678  1.0000
  H   H1263     1.0  0.35901  0.65628  0.92321  1.0000
  N   N108      1.0  0.23983  0.50528  0.93440  1.0000
  C   C1271     1.0  0.33801  0.63855  0.93952  1.0000
  C   C1272     1.0  0.36842  0.76848  0.96627  1.0000
  H   H1264     1.0  0.34580  0.66219  0.94887  1.0000
  C   C1273     1.0  0.29202  0.56100  0.97799  1.0000
  H   H1265     1.0  0.19036  0.58401  0.96570  1.0000
  Fe  Fe186     1.0  0.38549  0.97701  0.86452  1.0000
  C   C1274     1.0  0.24811  0.52348  0.98193  1.0000
  C   C1275     1.0  0.38539  0.66617  0.98541  1.0000
  H   H1266     1.0  0.20090  0.58548  0.90973  1.0000
  H   H1267     1.0  0.38071  0.80133  0.97317  1.0000
  H   H1268     1.0  0.25480  0.56583  0.98401  1.0000
  H   H1269     1.0  0.34549  0.58934  0.97373  1.0000
  H   H1270     1.0  0.36796  0.63398  0.97886  1.0000
  C   C1276     1.0  0.37866  0.76330  0.93757  1.0000
  H   H1271     1.0  0.36556  0.95452  0.90276  1.0000
  H   H1272     1.0  0.35434  0.96277  0.86018  1.0000
  C   C1277     1.0  0.38447  0.91162  0.97474  1.0000
  H   H1273     1.0  0.38224  0.60192  0.98121  1.0000
  H   H1274     1.0  0.38345  0.66318  0.97933  1.0000
  H   H1275     1.0  0.30951  0.52417  0.98372  1.0000
  H   H1276     1.0  0.37965  0.64280  0.98418  1.0000
  H   H1277     1.0  0.26137  0.50307  0.94498  1.0000
  H   H1278     1.0  0.21725  0.56012  0.98532  1.0000
  N   N109      1.0  0.38525  0.58556  0.97910  1.0000
  H   H1279     1.0  0.29329  0.56850  0.97148  1.0000
  C   C1278     1.0  0.21196  0.54919  0.97911  1.0000
  H   H1280     1.0  0.37589  0.67160  0.93822  1.0000
  H   H1281     1.0  0.23289  0.50276  0.97992  1.0000
  C   C1279     1.0  0.23713  0.50852  0.98050  1.0000
  C   C1280     1.0  0.20039  0.51085  0.97237  1.0000
  H   H1282     1.0  0.36923  0.94057  0.90103  1.0000
  H   H1283     1.0  0.20252  0.57609  0.98032  1.0000
  H   H1284     1.0  0.31535  0.50987  0.98333  1.0000
  H   H1285     1.0  0.32401  0.49287  0.90875  1.0000
  H   H1286     1.0  0.34219  0.50485  0.98217  1.0000
  C   C1281     1.0  0.37094  0.63023  0.98632  1.0000
  H   H1287     1.0  0.38372  0.83784  0.95537  1.0000
  C   C1282     1.0  0.20438  0.54824  0.97394  1.0000
  C   C1283     1.0  0.28946  0.51860  0.98170  1.0000
  H   H1288     1.0  0.35318  0.50870  0.97101  1.0000
  Fe  Fe187     1.0  0.38641  0.88420  0.95419  1.0000
  H   H1289     1.0  0.21830  0.54213  0.98133  1.0000
  H   H1290     1.0  0.19913  0.52676  0.96120  1.0000
  C   C1284     1.0  0.37545  0.58338  0.98533  1.0000
  C   C1285     1.0  0.30760  0.51600  0.98508  1.0000
  H   H1291     1.0  0.25234  0.52930  0.98246  1.0000
  C   C1286     1.0  0.37770  0.91229  0.98509  1.0000
  S   S412      1.0  0.38390  0.69849  0.95694  1.0000
  S   S413      1.0  0.38590  0.96445  0.85532  1.0000
  S   S414      1.0  0.20561  0.48944  0.95169  1.0000
  C   C1287     1.0  0.35113  0.50266  0.97886  1.0000
  H   H1292     1.0  0.36908  0.91253  0.98650  1.0000
  Fe  Fe188     1.0  0.40832  0.04081  0.10019  1.0000
  H   H1293     1.0  0.41511  0.99591  0.11462  1.0000
  S   S415      1.0  0.42580  0.04124  0.09418  1.0000
  H   H1294     1.0  0.43133  0.21125  0.98906  1.0000
  H   H1295     1.0  0.58251  0.48782  0.03598  1.0000
  Fe  Fe189     1.0  0.44554  0.07853  0.10948  1.0000
  S   S416      1.0  0.45886  0.07268  0.09583  1.0000
  S   S417      1.0  0.42809  0.08274  0.10853  1.0000
  Fe  Fe190     1.0  0.46067  0.07518  0.12455  1.0000
  S   S418      1.0  0.47543  0.06915  0.11215  1.0000
  S   S419      1.0  0.45944  0.07802  0.14135  1.0000
  Fe  Fe191     1.0  0.46793  0.08296  0.09961  1.0000
  S   S420      1.0  0.47761  0.09397  0.08596  1.0000
  Fe  Fe192     1.0  0.46498  0.05943  0.10943  1.0000
  S   S421      1.0  0.45406  0.08986  0.11225  1.0000
  S   S422      1.0  0.45082  0.06445  0.12282  1.0000
  S   S423      1.0  0.41459  0.27579  0.00188  1.0000
  Fe  Fe193     1.0  0.41004  0.04587  0.19608  1.0000
  S   S424      1.0  0.48793  0.21344  0.00452  1.0000
  S   S425      1.0  0.42573  0.03835  0.20130  1.0000
  C   C1288     1.0  0.39735  0.08382  0.11843  1.0000
  H   H1296     1.0  0.41260  0.00121  0.13241  1.0000
  Fe  Fe194     1.0  0.48231  0.04980  0.19151  1.0000
  S   S426      1.0  0.46482  0.04884  0.19657  1.0000
  S   S427      1.0  0.48999  0.04856  0.17382  1.0000
  Fe  Fe195     1.0  0.48296  0.05072  0.21461  1.0000
  S   S428      1.0  0.46551  0.04990  0.22133  1.0000
  S   S429      1.0  0.49208  0.05018  0.22728  1.0000
  Fe  Fe196     1.0  0.46904  0.03703  0.21170  1.0000
  H   H1297     1.0  0.46300  0.36372  0.99638  1.0000
  Fe  Fe197     1.0  0.46280  0.06187  0.20569  1.0000
  S   S430      1.0  0.44709  0.07417  0.20539  1.0000
  S   S431      1.0  0.48688  0.03668  0.20609  1.0000
  S   S432      1.0  0.48004  0.06395  0.19945  1.0000
  H   H1298     1.0  0.45610  0.15107  0.06817  1.0000
  N   N110      1.0  0.47531  0.10555  0.99233  1.0000
  Fe  Fe198     1.0  0.41386  0.37941  0.01542  1.0000
  S   S433      1.0  0.41721  0.39397  0.01889  1.0000
  N   N111      1.0  0.39631  0.08468  0.12898  1.0000
  Fe  Fe199     1.0  0.41185  0.36620  0.03874  1.0000
  S   S434      1.0  0.41508  0.37941  0.04479  1.0000
  S   S435      1.0  0.41079  0.34893  0.04827  1.0000
  Fe  Fe200     1.0  0.40389  0.39112  0.03406  1.0000
  Fe  Fe201     1.0  0.42804  0.38139  0.02928  1.0000
  S   S436      1.0  0.44574  0.38105  0.02704  1.0000
  S   S437      1.0  0.42585  0.36712  0.02427  1.0000
  Fe  Fe202     1.0  0.49363  0.42430  0.01258  1.0000
  S   S438      1.0  0.50995  0.41289  0.01241  1.0000
  C   C1289     1.0  0.45350  0.18670  0.00187  1.0000
  Fe  Fe203     1.0  0.48271  0.41096  0.03393  1.0000
  S   S439      1.0  0.49826  0.39848  0.03589  1.0000
  S   S440      1.0  0.46602  0.40983  0.04479  1.0000
  Fe  Fe204     1.0  0.50600  0.41316  0.03036  1.0000
  S   S441      1.0  0.51998  0.41350  0.03703  1.0000
  Fe  Fe205     1.0  0.50087  0.39930  0.01782  1.0000
  S   S442      1.0  0.50527  0.38517  0.00935  1.0000
  S   S443      1.0  0.49018  0.42566  0.03014  1.0000
  S   S444      1.0  0.48494  0.41074  0.01627  1.0000
  Fe  Fe206     1.0  0.39873  0.27907  0.04091  1.0000
  S   S445      1.0  0.41481  0.26999  0.03274  1.0000
  Fe  Fe207     1.0  0.40289  0.30172  0.02798  1.0000
  S   S446      1.0  0.39158  0.40537  0.04028  1.0000
  H   H1299     1.0  0.42694  0.23867  0.03776  1.0000
  C   C1290     1.0  0.40279  0.27648  0.99772  1.0000
  Fe  Fe208     1.0  0.42137  0.28333  0.03472  1.0000
  S   S447      1.0  0.43720  0.28058  0.03958  1.0000
  S   S448      1.0  0.40565  0.29142  0.04446  1.0000
  H   H1300     1.0  0.43916  0.07419  0.08917  1.0000
  Fe  Fe209     1.0  0.41771  0.20440  0.02935  1.0000
  S   S449      1.0  0.40814  0.19754  0.04585  1.0000
  C   C1291     1.0  0.43047  0.07356  0.23467  1.0000
  S   S450      1.0  0.41266  0.19502  0.02030  1.0000
  S   S451      1.0  0.40506  0.21978  0.02584  1.0000
  H   H1301     1.0  0.45587  0.18476  0.01821  1.0000
  S   S452      1.0  0.39404  0.14315  0.01388  1.0000
  S   S453      1.0  0.47846  0.13970  0.03236  1.0000
  S   S454      1.0  0.47999  0.23032  0.02899  1.0000
  H   H1302     1.0  0.50093  0.09809  0.99653  1.0000
  H   H1303     1.0  0.41981  0.01883  0.19751  1.0000
  C   C1292     1.0  0.51477  0.44391  0.00374  1.0000
  N   N112      1.0  0.41792  0.23744  0.00068  1.0000
  C   C1293     1.0  0.42631  0.00645  0.10566  1.0000
  Fe  Fe210     1.0  0.46178  0.13704  0.03442  1.0000
  S   S455      1.0  0.49036  0.43789  0.99811  1.0000
  Fe  Fe211     1.0  0.48057  0.33537  0.02765  1.0000
  S   S456      1.0  0.47530  0.33975  0.01164  1.0000
  S   S457      1.0  0.47945  0.34810  0.03677  1.0000
  Fe  Fe212     1.0  0.48585  0.31084  0.02896  1.0000
  S   S458      1.0  0.48133  0.31289  0.01301  1.0000
  S   S459      1.0  0.49189  0.29461  0.03967  1.0000
  Fe  Fe213     1.0  0.49002  0.32681  0.00696  1.0000
  Fe  Fe214     1.0  0.46707  0.32554  0.01919  1.0000
  C   C1294     1.0  0.47955  0.02820  0.16271  1.0000
  S   S460      1.0  0.49605  0.32355  0.02235  1.0000
  S   S461      1.0  0.47084  0.32239  0.03573  1.0000
  S   S462      1.0  0.41035  0.11967  1.00000  1.0000
  S   S463      1.0  0.41753  0.11888  0.02259  1.0000
  Fe  Fe215     1.0  0.42500  0.11241  0.00725  1.0000
  C   C1295     1.0  0.44310  0.12746  0.99631  1.0000
  S   S464      1.0  0.42066  0.09606  0.01480  1.0000
  H   H1304     1.0  0.48246  0.36303  0.99495  1.0000
  S   S465      1.0  0.45423  0.15502  0.02929  1.0000
  S   S466      1.0  0.45272  0.12675  0.04965  1.0000
  H   H1305     1.0  0.41360  0.20384  0.99871  1.0000
  C   C1296     1.0  0.40525  0.08549  0.05520  1.0000
  H   H1306     1.0  0.46998  0.43438  0.01239  1.0000
  C   C1297     1.0  0.49064  0.01403  0.18794  1.0000
  C   C1298     1.0  0.49333  0.27219  0.99637  1.0000
  H   H1307     1.0  0.40049  0.05286  0.12845  1.0000
  C   C1299     1.0  0.40182  0.01184  0.22135  1.0000
  S   S467      1.0  0.54607  0.47598  0.04097  1.0000
  H   H1308     1.0  0.45615  0.42597  0.01034  1.0000
  Fe  Fe216     1.0  0.55807  0.46471  0.01444  1.0000
  S   S468      1.0  0.55840  0.45349  0.03111  1.0000
  C   C1300     1.0  0.39597  0.08525  0.05208  1.0000
  Fe  Fe217     1.0  0.54123  0.46299  0.03608  1.0000
  S   S469      1.0  0.52563  0.45737  0.04494  1.0000
  Fe  Fe218     1.0  0.56318  0.46739  0.03453  1.0000
  H   H1309     1.0  0.42746  0.00421  0.09788  1.0000
  S   S470      1.0  0.54048  0.47292  0.01909  1.0000
  S   S471      1.0  0.56421  0.47776  0.01745  1.0000
  C   C1301     1.0  0.47625  0.37017  0.99689  1.0000
  C   C1302     1.0  0.41940  0.00177  0.11508  1.0000
  H   H1310     1.0  0.49802  0.40133  0.99066  1.0000
  H   H1311     1.0  0.47668  0.13528  0.99447  1.0000
  S   S472      1.0  0.46138  0.02260  0.22021  1.0000
  Fe  Fe219     1.0  0.48181  0.22857  0.01174  1.0000
  C   C1303     1.0  0.47876  0.26087  0.05324  1.0000
  H   H1312     1.0  0.42131  0.00455  0.18640  1.0000
  S   S473      1.0  0.38980  0.00953  0.10971  1.0000
  C   C1304     1.0  0.40112  0.27462  0.07218  1.0000
  H   H1313     1.0  0.53481  0.46308  0.99588  1.0000
  H   H1314     1.0  0.43867  0.05758  0.08367  1.0000
  Fe  Fe220     1.0  0.39890  0.20982  0.01836  1.0000
  H   H1315     1.0  0.45441  0.39573  0.00371  1.0000
  C   C1305     1.0  0.40356  0.15176  0.03704  1.0000
  H   H1316     1.0  0.39542  0.42832  0.02322  1.0000
  H   H1317     1.0  0.45673  0.01847  0.18558  1.0000
  H   H1318     1.0  0.46781  0.40211  0.00805  1.0000
  C   C1306     1.0  0.39693  0.39440  0.99782  1.0000
  S   S474      1.0  0.40324  0.00795  0.15411  1.0000
  H   H1319     1.0  0.48292  0.02232  0.14781  1.0000
  S   S475      1.0  0.47545  0.15674  0.00850  1.0000
  S   S476      1.0  0.47681  0.00303  0.14410  1.0000
  C   C1307     1.0  0.44270  0.14021  0.00703  1.0000
  C   C1308     1.0  0.44083  0.13030  0.00648  1.0000
  C   C1309     1.0  0.46329  0.42563  0.99324  1.0000
  S   S477      1.0  0.46822  0.26601  0.98929  1.0000
  H   H1320     1.0  0.44108  0.14228  0.01496  1.0000
  H   H1321     1.0  0.43798  0.12470  0.01399  1.0000
  H   H1322     1.0  0.42949  0.23148  0.01091  1.0000
  H   H1323     1.0  0.46459  0.15428  0.05449  1.0000
  H   H1324     1.0  0.39921  0.01303  0.22970  1.0000
  H   H1325     1.0  0.42062  0.43042  0.00270  1.0000
  C   C1310     1.0  0.42597  0.34479  0.01039  1.0000
  S   S478      1.0  0.40189  0.09346  0.99925  1.0000
  H   H1326     1.0  0.51424  0.27175  0.00713  1.0000
  H   H1327     1.0  0.42942  0.32030  0.02575  1.0000
  S   S479      1.0  0.47078  0.04128  0.10951  1.0000
  C   C1311     1.0  0.49705  0.26242  0.02932  1.0000
  C   C1312     1.0  0.50402  0.26382  0.03496  1.0000
  C   C1313     1.0  0.50239  0.27380  0.03795  1.0000
  C   C1314     1.0  0.49399  0.28259  0.03502  1.0000
  C   C1315     1.0  0.48713  0.28139  0.02907  1.0000
  C   C1316     1.0  0.48858  0.27122  0.02634  1.0000
  C   C1317     1.0  0.47572  0.19111  0.03061  1.0000
  H   H1328     1.0  0.50768  0.27471  0.04257  1.0000
  H   H1329     1.0  0.48056  0.28816  0.02686  1.0000
  H   H1330     1.0  0.48322  0.27024  0.02189  1.0000
  C   C1318     1.0  0.43827  0.21354  0.03144  1.0000
  H   H1331     1.0  0.40129  0.39824  0.00110  1.0000
  H   H1332     1.0  0.39429  0.14359  0.98826  1.0000
  C   C1319     1.0  0.44379  0.23038  0.03692  1.0000
  C   C1320     1.0  0.45169  0.22098  0.03485  1.0000
  C   C1321     1.0  0.44890  0.21255  0.03222  1.0000
  H   H1333     1.0  0.45971  0.22318  0.98885  1.0000
  H   H1334     1.0  0.39925  0.02995  0.15758  1.0000
  H   H1335     1.0  0.46000  0.22021  0.03526  1.0000
  H   H1336     1.0  0.45501  0.20524  0.03082  1.0000
  C   C1322     1.0  0.43408  0.04673  0.06613  1.0000
  H   H1337     1.0  0.43866  0.04094  0.07197  1.0000
  H   H1338     1.0  0.39924  0.25560  0.03862  1.0000
  C   C1323     1.0  0.43190  0.06326  0.05188  1.0000
  C   C1324     1.0  0.44081  0.29340  0.03482  1.0000
  C   C1325     1.0  0.45165  0.29419  0.03278  1.0000
  C   C1326     1.0  0.45450  0.30442  0.02801  1.0000
  C   C1327     1.0  0.44654  0.31380  0.02515  1.0000
  C   C1328     1.0  0.43568  0.31305  0.02758  1.0000
  C   C1329     1.0  0.43283  0.30288  0.03243  1.0000
  H   H1339     1.0  0.45792  0.28690  0.03441  1.0000
  H   H1340     1.0  0.46288  0.30496  0.02633  1.0000
  S   S480      1.0  0.49544  0.12897  0.00473  1.0000
  H   H1341     1.0  0.42442  0.30239  0.03425  1.0000
  C   C1330     1.0  0.52152  0.42604  0.03846  1.0000
  C   C1331     1.0  0.53173  0.42687  0.03912  1.0000
  C   C1332     1.0  0.53314  0.43661  0.04071  1.0000
  C   C1333     1.0  0.52425  0.44547  0.04196  1.0000
  C   C1334     1.0  0.51403  0.44466  0.04126  1.0000
  C   C1335     1.0  0.51270  0.43503  0.03932  1.0000
  H   H1342     1.0  0.53858  0.41992  0.03847  1.0000
  H   H1343     1.0  0.54103  0.43713  0.04133  1.0000
  H   H1344     1.0  0.50713  0.45151  0.04223  1.0000
  H   H1345     1.0  0.50480  0.43447  0.03881  1.0000
  C   C1336     1.0  0.49868  0.37445  0.01716  1.0000
  C   C1337     1.0  0.49228  0.37500  0.02770  1.0000
  C   C1338     1.0  0.48647  0.36684  0.03369  1.0000
  C   C1339     1.0  0.48705  0.35804  0.02916  1.0000
  C   C1340     1.0  0.49357  0.35734  0.01866  1.0000
  C   C1341     1.0  0.49947  0.36551  0.01270  1.0000
  H   H1346     1.0  0.49182  0.38170  0.03129  1.0000
  H   H1347     1.0  0.48149  0.36738  0.04182  1.0000
  H   H1348     1.0  0.49415  0.35048  0.01517  1.0000
  H   H1349     1.0  0.48376  0.01072  0.19393  1.0000
  C   C1342     1.0  0.40715  0.34099  0.04138  1.0000
  C   C1343     1.0  0.40651  0.32302  0.03942  1.0000
  C   C1344     1.0  0.40943  0.32947  0.04476  1.0000
  H   H1350     1.0  0.40826  0.31418  0.04213  1.0000
  H   H1351     1.0  0.41348  0.32552  0.05153  1.0000
  C   C1345     1.0  0.45084  0.38901  0.03253  1.0000
  C   C1346     1.0  0.44416  0.39587  0.03958  1.0000
  C   C1347     1.0  0.44879  0.40217  0.04355  1.0000
  C   C1348     1.0  0.46006  0.40165  0.04040  1.0000
  C   C1349     1.0  0.46664  0.39456  0.03362  1.0000
  C   C1350     1.0  0.46209  0.38822  0.02977  1.0000
  H   H1352     1.0  0.43550  0.39625  0.04197  1.0000
  H   H1353     1.0  0.44367  0.40752  0.04897  1.0000
  H   H1354     1.0  0.47531  0.39387  0.03144  1.0000
  H   H1355     1.0  0.46734  0.38264  0.02465  1.0000
  H   H1356     1.0  0.39628  0.99952  0.20435  1.0000
  C   C1351     1.0  0.40883  0.05583  0.22987  1.0000
  C   C1352     1.0  0.54170  0.48424  0.98688  1.0000
  C   C1353     1.0  0.48241  0.18257  0.01489  1.0000
  C   C1354     1.0  0.46250  0.42816  0.00328  1.0000
  C   C1355     1.0  0.50721  0.29351  0.00523  1.0000
  N   N113      1.0  0.42146  0.16060  0.99537  1.0000
  N   N114      1.0  0.47133  0.38809  0.00103  1.0000
  H   H1357     1.0  0.44995  0.25696  0.00295  1.0000
  C   C1356     1.0  0.49214  0.10078  0.99827  1.0000
  H   H1358     1.0  0.45861  0.14260  0.05835  1.0000
  H   H1359     1.0  0.47767  0.03168  0.17848  1.0000
  H   H1360     1.0  0.38978  0.03782  0.17404  1.0000
  C   C1357     1.0  0.43076  0.04880  0.20291  1.0000
  C   C1358     1.0  0.43612  0.04672  0.21140  1.0000
  C   C1359     1.0  0.44018  0.05501  0.21276  1.0000
  C   C1360     1.0  0.43929  0.06526  0.20538  1.0000
  C   C1361     1.0  0.43381  0.06742  0.19695  1.0000
  C   C1362     1.0  0.42956  0.05916  0.19573  1.0000
  H   H1361     1.0  0.43725  0.03867  0.21684  1.0000
  H   H1362     1.0  0.44435  0.05329  0.21932  1.0000
  H   H1363     1.0  0.43341  0.07521  0.19101  1.0000
  H   H1364     1.0  0.42598  0.06062  0.18879  1.0000
  C   C1363     1.0  0.47064  0.10323  0.07599  1.0000
  C   C1364     1.0  0.47655  0.10838  0.06595  1.0000
  C   C1365     1.0  0.47117  0.11568  0.05784  1.0000
  C   C1366     1.0  0.45980  0.11803  0.05980  1.0000
  C   C1367     1.0  0.45388  0.11315  0.06998  1.0000
  C   C1368     1.0  0.45926  0.10566  0.07799  1.0000
  H   H1365     1.0  0.48535  0.10657  0.06435  1.0000
  H   H1366     1.0  0.47585  0.11936  0.05004  1.0000
  H   H1367     1.0  0.44508  0.11520  0.07172  1.0000
  H   H1368     1.0  0.45461  0.10187  0.08576  1.0000
  C   C1369     1.0  0.46805  0.06955  0.15014  1.0000
  C   C1370     1.0  0.46617  0.07146  0.16071  1.0000
  C   C1371     1.0  0.47284  0.06501  0.16799  1.0000
  C   C1372     1.0  0.48163  0.05673  0.16466  1.0000
  C   C1373     1.0  0.48367  0.05493  0.15399  1.0000
  C   C1374     1.0  0.47681  0.06124  0.14677  1.0000
  H   H1369     1.0  0.45950  0.07796  0.16333  1.0000
  H   H1370     1.0  0.47128  0.06658  0.17613  1.0000
  H   H1371     1.0  0.49050  0.04857  0.15136  1.0000
  H   H1372     1.0  0.47835  0.05975  0.13860  1.0000
  C   C1375     1.0  0.47913  0.37913  0.99846  1.0000
  H   H1373     1.0  0.49582  0.00521  0.15440  1.0000
  H   H1374     1.0  0.40959  0.08430  0.22158  1.0000
  C   C1376     1.0  0.40545  0.08671  0.13196  1.0000
  C   C1377     1.0  0.42680  0.05255  0.09823  1.0000
  C   C1378     1.0  0.42020  0.05502  0.10815  1.0000
  C   C1379     1.0  0.42043  0.06443  0.11125  1.0000
  C   C1380     1.0  0.42720  0.07139  0.10437  1.0000
  C   C1381     1.0  0.43387  0.06886  0.09448  1.0000
  C   C1382     1.0  0.43366  0.05943  0.09139  1.0000
  H   H1375     1.0  0.41504  0.04957  0.11349  1.0000
  H   H1376     1.0  0.41561  0.06610  0.11910  1.0000
  N   N115      1.0  0.44998  0.35524  0.04571  1.0000
  C   C1383     1.0  0.44213  0.35035  0.05326  1.0000
  C   C1384     1.0  0.45305  0.35374  0.03513  1.0000
  C   C1385     1.0  0.43713  0.34372  0.05029  1.0000
  C   C1386     1.0  0.44817  0.34724  0.03187  1.0000
  C   C1387     1.0  0.44017  0.34219  0.03952  1.0000
  C   C1388     1.0  0.45513  0.36203  0.04913  1.0000
  H   H1377     1.0  0.43964  0.35160  0.06161  1.0000
  H   H1378     1.0  0.45923  0.35768  0.02912  1.0000
  H   H1379     1.0  0.43079  0.33997  0.05623  1.0000
  H   H1380     1.0  0.45051  0.34621  0.02345  1.0000
  H   H1381     1.0  0.43622  0.33721  0.03708  1.0000
  H   H1382     1.0  0.46088  0.36601  0.04207  1.0000
  H   H1383     1.0  0.44888  0.36872  0.05255  1.0000
  H   H1384     1.0  0.45992  0.35681  0.05531  1.0000
  C   C1389     1.0  0.46054  0.04229  0.09310  1.0000
  Fe  Fe221     1.0  0.47255  0.25303  0.00386  1.0000
  C   C1390     1.0  0.52343  0.44138  0.00897  1.0000
  H   H1385     1.0  0.41826  0.15881  0.01289  1.0000
  H   H1386     1.0  0.45066  0.17913  0.00390  1.0000
  H   H1387     1.0  0.40371  0.13666  0.03301  1.0000
  N   N116      1.0  0.41275  0.42454  0.01938  1.0000
  C   C1391     1.0  0.41925  0.15059  0.99645  1.0000
  H   H1388     1.0  0.52437  0.43396  0.01542  1.0000
  C   C1392     1.0  0.47915  0.20071  0.02412  1.0000
  H   H1389     1.0  0.43694  0.07088  0.22802  1.0000
  N   N117      1.0  0.50254  0.28616  0.00200  1.0000
  H   H1390     1.0  0.40762  0.23930  0.06725  1.0000
  C   C1393     1.0  0.50269  0.26800  0.00062  1.0000
  C   C1394     1.0  0.42416  0.04513  0.06555  1.0000
  N   N118      1.0  0.44751  0.15814  0.05535  1.0000
  C   C1395     1.0  0.44680  0.16924  0.05154  1.0000
  C   C1396     1.0  0.43913  0.15359  0.05572  1.0000
  C   C1397     1.0  0.43783  0.17597  0.04741  1.0000
  C   C1398     1.0  0.43004  0.16009  0.05161  1.0000
  C   C1399     1.0  0.42948  0.17131  0.04731  1.0000
  H   H1391     1.0  0.45330  0.17292  0.05148  1.0000
  H   H1392     1.0  0.43956  0.14485  0.05897  1.0000
  H   H1393     1.0  0.43741  0.18472  0.04421  1.0000
  H   H1394     1.0  0.42350  0.15648  0.05162  1.0000
  H   H1395     1.0  0.42258  0.17637  0.04392  1.0000
  C   C1400     1.0  0.40927  0.20417  0.99270  1.0000
  H   H1396     1.0  0.47781  0.20769  0.02771  1.0000
  C   C1401     1.0  0.42216  0.06125  0.05132  1.0000
  H   H1397     1.0  0.40334  0.05763  0.05271  1.0000
  H   H1398     1.0  0.46392  0.21923  0.00168  1.0000
  H   H1399     1.0  0.39996  0.35487  0.03005  1.0000
  C   C1402     1.0  0.42637  0.23000  0.00468  1.0000
  C   C1403     1.0  0.47532  0.10792  0.01008  1.0000
  C   C1404     1.0  0.45994  0.19968  0.00723  1.0000
  C   C1405     1.0  0.39429  0.00783  0.08801  1.0000
  S   S481      1.0  0.40528  0.04158  0.18293  1.0000
  C   C1406     1.0  0.47905  0.43511  0.99560  1.0000
  H   H1400     1.0  0.48526  0.24460  0.04981  1.0000
  C   C1407     1.0  0.48473  0.02078  0.15586  1.0000
  H   H1401     1.0  0.46322  0.10151  0.98716  1.0000
  N   N119      1.0  0.50199  0.40202  0.06174  1.0000
  C   C1408     1.0  0.49388  0.39671  0.06311  1.0000
  C   C1409     1.0  0.49980  0.41326  0.06002  1.0000
  C   C1410     1.0  0.48327  0.40268  0.06270  1.0000
  C   C1411     1.0  0.48928  0.41949  0.05952  1.0000
  C   C1412     1.0  0.48099  0.41414  0.06083  1.0000
  C   C1413     1.0  0.51316  0.39559  0.06152  1.0000
  H   H1402     1.0  0.49567  0.38783  0.06418  1.0000
  H   H1403     1.0  0.50626  0.41750  0.05874  1.0000
  H   H1404     1.0  0.47690  0.39850  0.06343  1.0000
  H   H1405     1.0  0.48764  0.42840  0.05788  1.0000
  H   H1406     1.0  0.47284  0.41885  0.06015  1.0000
  H   H1407     1.0  0.48971  0.26679  0.99413  1.0000
  H   H1408     1.0  0.51341  0.38853  0.06874  1.0000
  H   H1409     1.0  0.51642  0.39247  0.05379  1.0000
  Fe  Fe222     1.0  0.45509  0.99499  0.18281  1.0000
  C   C1414     1.0  0.39351  0.16235  0.01936  1.0000
  C   C1415     1.0  0.49404  0.00915  0.17006  1.0000
  H   H1410     1.0  0.48646  0.26145  0.05435  1.0000
  H   H1411     1.0  0.46956  0.28662  0.04896  1.0000
  C   C1416     1.0  0.45727  0.03735  0.08653  1.0000
  H   H1412     1.0  0.43779  0.21447  0.00400  1.0000
  H   H1413     1.0  0.42359  0.08542  0.21570  1.0000
  C   C1417     1.0  0.48659  0.10411  0.00810  1.0000
  S   S482      1.0  0.41908  0.29431  0.01839  1.0000
  C   C1418     1.0  0.47812  0.25128  0.05072  1.0000
  C   C1419     1.0  0.53948  0.44561  0.01173  1.0000
  C   C1420     1.0  0.51644  0.48597  0.04344  1.0000
  H   H1414     1.0  0.44280  0.01292  0.22602  1.0000
  S   S483      1.0  0.44781  0.24125  0.03905  1.0000
  C   C1421     1.0  0.39891  0.21101  0.99277  1.0000
  N   N120      1.0  0.48893  0.01649  0.17672  1.0000
  N   N121      1.0  0.40861  0.00877  0.19988  1.0000
  H   H1415     1.0  0.46775  0.24320  0.04692  1.0000
  C   C1422     1.0  0.44296  0.25279  0.99194  1.0000
  C   C1423     1.0  0.44574  0.01427  0.21718  1.0000
  N   N122      1.0  0.43643  0.04285  0.17085  1.0000
  C   C1424     1.0  0.44361  0.04522  0.17525  1.0000
  C   C1425     1.0  0.43111  0.05083  0.16352  1.0000
  C   C1426     1.0  0.44585  0.05574  0.17213  1.0000
  C   C1427     1.0  0.43309  0.06146  0.16029  1.0000
  C   C1428     1.0  0.44057  0.06388  0.16457  1.0000
  C   C1429     1.0  0.43475  0.03158  0.17382  1.0000
  H   H1416     1.0  0.44745  0.03904  0.18142  1.0000
  H   H1417     1.0  0.42523  0.04907  0.16017  1.0000
  H   H1418     1.0  0.45142  0.05763  0.17578  1.0000
  H   H1419     1.0  0.42880  0.06777  0.15453  1.0000
  H   H1420     1.0  0.44220  0.07209  0.16209  1.0000
  H   H1421     1.0  0.42795  0.03094  0.17069  1.0000
  H   H1422     1.0  0.44228  0.02592  0.17047  1.0000
  H   H1423     1.0  0.43278  0.02872  0.18292  1.0000
  N   N123      1.0  0.42719  0.10881  0.05719  1.0000
  C   C1430     1.0  0.41690  0.10743  0.06254  1.0000
  C   C1431     1.0  0.43576  0.10374  0.06218  1.0000
  C   C1432     1.0  0.41495  0.10102  0.07326  1.0000
  C   C1433     1.0  0.43408  0.09739  0.07297  1.0000
  C   C1434     1.0  0.42358  0.09606  0.07853  1.0000
  C   C1435     1.0  0.42917  0.11513  0.04578  1.0000
  H   H1424     1.0  0.41018  0.11104  0.05839  1.0000
  H   H1425     1.0  0.44396  0.10466  0.05784  1.0000
  H   H1426     1.0  0.40680  0.09977  0.07736  1.0000
  H   H1427     1.0  0.44086  0.09353  0.07699  1.0000
  H   H1428     1.0  0.42216  0.09114  0.08687  1.0000
  H   H1429     1.0  0.43095  0.10955  0.04007  1.0000
  H   H1430     1.0  0.42196  0.12179  0.04418  1.0000
  H   H1431     1.0  0.43615  0.11914  0.04396  1.0000
  S   S484      1.0  0.44058  0.00528  0.19197  1.0000
  C   C1436     1.0  0.47175  0.99850  0.12708  1.0000
  H   H1432     1.0  0.41004  0.05901  0.13899  1.0000
  C   C1437     1.0  0.39561  0.16860  0.02554  1.0000
  H   H1433     1.0  0.39412  0.01656  0.08569  1.0000
  H   H1434     1.0  0.58395  0.45766  0.02268  1.0000
  N   N124      1.0  0.47636  0.09638  0.12202  1.0000
  C   C1438     1.0  0.48116  0.08908  0.13011  1.0000
  C   C1439     1.0  0.48104  0.09639  0.11115  1.0000
  C   C1440     1.0  0.49068  0.08124  0.12743  1.0000
  C   C1441     1.0  0.49061  0.08873  0.10815  1.0000
  C   C1442     1.0  0.49541  0.08107  0.11636  1.0000
  C   C1443     1.0  0.46641  0.10455  0.12505  1.0000
  H   H1435     1.0  0.47747  0.08910  0.13874  1.0000
  H   H1436     1.0  0.47731  0.10222  0.10469  1.0000
  H   H1437     1.0  0.49425  0.07526  0.13391  1.0000
  H   H1438     1.0  0.49412  0.08862  0.09950  1.0000
  H   H1439     1.0  0.50272  0.07496  0.11414  1.0000
  H   H1440     1.0  0.46093  0.10084  0.13262  1.0000
  H   H1441     1.0  0.46850  0.11163  0.12658  1.0000
  H   H1442     1.0  0.46171  0.10758  0.11846  1.0000
  H   H1443     1.0  0.48764  0.37887  0.99767  1.0000
  H   H1444     1.0  0.48422  0.01831  0.12016  1.0000
  S   S485      1.0  0.46496  0.13434  0.01733  1.0000
  N   N125      1.0  0.44216  0.28660  0.99278  1.0000
  H   H1445     1.0  0.44891  0.38023  0.00084  1.0000
  H   H1446     1.0  0.46442  0.28170  0.06355  1.0000
  N   N126      1.0  0.46992  0.26948  0.05396  1.0000
  H   H1447     1.0  0.49789  0.01036  0.12025  1.0000
  C   C1444     1.0  0.41417  0.23564  0.99264  1.0000
  H   H1448     1.0  0.40889  0.09337  0.12562  1.0000
  S   S486      1.0  0.45426  0.41840  0.99227  1.0000
  S   S487      1.0  0.57661  0.46635  0.04252  1.0000
  H   H1449     1.0  0.45965  0.05111  0.09120  1.0000
  H   H1450     1.0  0.50111  0.01109  0.23321  1.0000
  H   H1451     1.0  0.42116  0.03808  0.07107  1.0000
  N   N127      1.0  0.40812  0.26513  0.06776  1.0000
  C   C1445     1.0  0.41818  0.26582  0.06111  1.0000
  C   C1446     1.0  0.40432  0.25575  0.06995  1.0000
  C   C1447     1.0  0.42484  0.25685  0.05674  1.0000
  H   H1452     1.0  0.49048  0.03095  0.09600  1.0000
  C   C1448     1.0  0.42113  0.24718  0.05915  1.0000
  H   H1453     1.0  0.40241  0.06684  0.07977  1.0000
  H   H1454     1.0  0.42109  0.27335  0.05905  1.0000
  H   H1455     1.0  0.49561  0.02475  0.11359  1.0000
  H   H1456     1.0  0.43272  0.25748  0.05130  1.0000
  H   H1457     1.0  0.39324  0.17749  0.02351  1.0000
  H   H1458     1.0  0.50628  0.25924  0.00199  1.0000
  C   C1449     1.0  0.41230  0.00718  0.18854  1.0000
  N   N128      1.0  0.43031  0.01691  0.11612  1.0000
  H   H1459     1.0  0.44037  0.42122  0.02653  1.0000
  C   C1450     1.0  0.43174  0.01404  0.10633  1.0000
  H   H1460     1.0  0.47685  0.40297  0.99466  1.0000
  H   H1461     1.0  0.47095  0.11055  0.01768  1.0000
  C   C1451     1.0  0.47792  0.99468  0.13513  1.0000
  C   C1452     1.0  0.40183  0.05781  0.14255  1.0000
  C   C1453     1.0  0.41189  0.34393  0.00173  1.0000
  H   H1462     1.0  0.43700  0.01772  0.09893  1.0000
  H   H1463     1.0  0.46216  0.20204  0.01353  1.0000
  C   C1454     1.0  0.41346  0.24787  0.00427  1.0000
  C   C1455     1.0  0.49156  0.02240  0.09577  1.0000
  Fe  Fe223     1.0  0.40200  0.18916  0.03652  1.0000
  C   C1456     1.0  0.39572  0.02478  0.16514  1.0000
  H   H1464     1.0  0.45859  0.28805  0.01262  1.0000
  S   S488      1.0  0.48953  0.24311  0.00361  1.0000
  H   H1465     1.0  0.41229  0.17202  0.00528  1.0000
  H   H1466     1.0  0.40734  0.14762  0.04396  1.0000
  C   C1457     1.0  0.39651  0.15080  0.02195  1.0000
  C   C1458     1.0  0.40117  0.32805  0.03074  1.0000
  C   C1459     1.0  0.39873  0.33957  0.02749  1.0000
  H   H1467     1.0  0.41702  0.05136  0.22723  1.0000
  H   H1468     1.0  0.41464  0.07900  0.06775  1.0000
  S   S489      1.0  0.40322  0.17078  0.04255  1.0000
  H   H1469     1.0  0.38956  0.16649  0.01256  1.0000
  Fe  Fe224     1.0  0.40527  0.10384  0.00868  1.0000
  H   H1470     1.0  0.48041  0.02294  0.22881  1.0000
  Fe  Fe225     1.0  0.41165  0.10307  0.02966  1.0000
  C   C1460     1.0  0.47034  0.43293  0.00444  1.0000
  C   C1461     1.0  0.45940  0.25933  0.04977  1.0000
  C   C1462     1.0  0.40061  0.16331  0.03443  1.0000
  C   C1463     1.0  0.40157  0.14554  0.03080  1.0000
  Fe  Fe226     1.0  0.40244  0.12514  0.01592  1.0000
  H   H1471     1.0  0.47034  0.06376  0.23249  1.0000
  H   H1472     1.0  0.39845  0.23659  0.03880  1.0000
  C   C1464     1.0  0.40740  0.07898  0.06533  1.0000
  S   S490      1.0  0.45014  0.15908  0.99846  1.0000
  H   H1473     1.0  0.42466  0.41589  0.04125  1.0000
  H   H1474     1.0  0.39165  0.01212  0.13050  1.0000
  H   H1475     1.0  0.40955  0.04314  0.05417  1.0000
  C   C1465     1.0  0.45715  0.15118  0.05934  1.0000
  C   C1466     1.0  0.41339  0.01503  0.20319  1.0000
  C   C1467     1.0  0.39359  0.24042  0.04553  1.0000
  H   H1476     1.0  0.46854  0.99544  0.11301  1.0000
  H   H1477     1.0  0.52577  0.48726  0.06484  1.0000
  H   H1478     1.0  0.48948  0.29896  0.99699  1.0000
  H   H1479     1.0  0.41880  0.99029  0.07462  1.0000
  C   C1468     1.0  0.41015  0.01659  0.21398  1.0000
  H   H1480     1.0  0.46436  0.01057  0.09929  1.0000
  H   H1481     1.0  0.51059  0.25706  0.03725  1.0000
  H   H1482     1.0  0.44044  0.02867  0.10853  1.0000
  S   S491      1.0  0.41472  0.09326  0.04639  1.0000
  S   S492      1.0  0.40441  0.06402  0.19045  1.0000
  H   H1483     1.0  0.46104  0.11179  0.00354  1.0000
  H   H1484     1.0  0.41993  0.07225  0.21964  1.0000
  H   H1485     1.0  0.46593  0.00629  0.12685  1.0000
  C   C1469     1.0  0.45641  0.18984  0.00990  1.0000
  H   H1486     1.0  0.47942  0.32895  0.98884  1.0000
  C   C1470     1.0  0.39406  0.25118  0.04545  1.0000
  C   C1471     1.0  0.45032  0.25722  0.99445  1.0000
  C   C1472     1.0  0.40800  0.05041  0.05775  1.0000
  C   C1473     1.0  0.44121  0.27988  0.00309  1.0000
  C   C1474     1.0  0.43790  0.05593  0.05934  1.0000
  H   H1487     1.0  0.42486  0.34070  0.01929  1.0000
  C   C1475     1.0  0.43024  0.22280  0.03381  1.0000
  H   H1488     1.0  0.40711  0.41796  0.03650  1.0000
  C   C1476     1.0  0.45371  0.01722  0.19438  1.0000
  H   H1489     1.0  0.41635  0.14575  0.00454  1.0000
  H   H1490     1.0  0.51365  0.48035  0.04060  1.0000
  H   H1491     1.0  0.54699  0.44784  0.00590  1.0000
  C   C1477     1.0  0.42138  0.42737  0.01122  1.0000
  H   H1492     1.0  0.49052  0.00706  0.07882  1.0000
  C   C1478     1.0  0.41304  0.32796  0.99502  1.0000
  H   H1493     1.0  0.47173  0.19077  0.03920  1.0000
  H   H1494     1.0  0.40896  0.00070  0.18739  1.0000
  H   H1495     1.0  0.53703  0.45031  0.01833  1.0000
  C   C1479     1.0  0.49325  0.29027  0.99803  1.0000
  C   C1480     1.0  0.39562  0.99072  0.08285  1.0000
  H   H1496     1.0  0.49826  0.00774  0.18891  1.0000
  C   C1481     1.0  0.46977  0.10862  0.00204  1.0000
  C   C1482     1.0  0.39512  0.10005  0.98842  1.0000
  Fe  Fe227     1.0  0.46381  0.24143  0.02698  1.0000
  H   H1497     1.0  0.40181  0.41733  0.01598  1.0000
  H   H1498     1.0  0.40466  0.08514  0.11221  1.0000
  H   H1499     1.0  0.39225  0.99859  0.17600  1.0000
  C   C1483     1.0  0.39112  0.07185  0.06910  1.0000
  H   H1500     1.0  0.43591  0.27410  0.00569  1.0000
  C   C1484     1.0  0.48425  0.20125  0.01300  1.0000
  H   H1501     1.0  0.41200  0.07910  0.13253  1.0000
  H   H1502     1.0  0.47387  0.03568  0.15994  1.0000
  C   C1485     1.0  0.44524  0.01165  0.19953  1.0000
  C   C1486     1.0  0.48173  0.02588  0.17319  1.0000
  C   C1487     1.0  0.46061  0.38862  0.00168  1.0000
  C   C1488     1.0  0.48853  0.28337  0.99513  1.0000
  C   C1489     1.0  0.46522  0.03573  0.10190  1.0000
  H   H1503     1.0  0.40763  0.24164  0.98931  1.0000
  H   H1504     1.0  0.47882  0.27911  0.05769  1.0000
  S   S493      1.0  0.40086  0.03591  0.08936  1.0000
  N   N129      1.0  0.42167  0.33922  0.00469  1.0000
  S   S494      1.0  0.41370  0.37637  0.99944  1.0000
  Fe  Fe228     1.0  0.45854  0.00110  0.08503  1.0000
  C   C1490     1.0  0.47071  0.27969  0.05619  1.0000
  H   H1505     1.0  0.42673  0.16821  0.00489  1.0000
  C   C1491     1.0  0.41389  0.42039  0.03005  1.0000
  H   H1506     1.0  0.41406  0.02151  0.21653  1.0000
  C   C1492     1.0  0.46836  0.25053  0.04900  1.0000
  H   H1507     1.0  0.43500  0.32532  0.00520  1.0000
  Fe  Fe229     1.0  0.47114  0.15755  0.02633  1.0000
  Fe  Fe230     1.0  0.45923  0.15258  0.01203  1.0000
  H   H1508     1.0  0.46504  0.02517  0.19671  1.0000
  S   S495      1.0  0.39577  0.10979  0.02417  1.0000
  Fe  Fe231     1.0  0.47221  0.99388  0.16155  1.0000
  C   C1493     1.0  0.45831  0.02115  0.20065  1.0000
  C   C1494     1.0  0.44716  0.28024  0.01034  1.0000
  H   H1509     1.0  0.40738  0.35192  0.00337  1.0000
  H   H1510     1.0  0.45186  0.25892  0.04815  1.0000
  H   H1511     1.0  0.49000  0.19250  0.99984  1.0000
  C   C1495     1.0  0.40110  0.38354  0.99652  1.0000
  C   C1496     1.0  0.50717  0.27514  0.00349  1.0000
  S   S496      1.0  0.46989  0.25701  0.02023  1.0000
  C   C1497     1.0  0.43302  0.23128  0.03648  1.0000
  S   S497      1.0  0.45607  0.98912  0.16779  1.0000
  S   S498      1.0  0.45015  0.32637  0.01808  1.0000
  S   S499      1.0  0.50100  0.32838  0.99018  1.0000
  C   C1498     1.0  0.45453  0.01940  0.21209  1.0000
  H   H1512     1.0  0.42176  0.35359  0.00973  1.0000
  C   C1499     1.0  0.39042  0.02923  0.17448  1.0000
  S   S500      1.0  0.47205  0.17056  0.03425  1.0000
  Fe  Fe232     1.0  0.41081  0.28182  0.01740  1.0000
  C   C1500     1.0  0.49067  0.01995  0.08624  1.0000
  C   C1501     1.0  0.44104  0.01046  0.21089  1.0000
  N   N130      1.0  0.49309  0.01421  0.10490  1.0000
  H   H1513     1.0  0.45381  0.04241  0.07963  1.0000
  C   C1502     1.0  0.46029  0.26877  0.05236  1.0000
  S   S501      1.0  0.49920  0.24949  0.02635  1.0000
  C   C1503     1.0  0.47719  0.18209  0.02599  1.0000
  Fe  Fe233     1.0  0.48626  0.24577  0.02070  1.0000
  C   C1504     1.0  0.43614  0.02475  0.11682  1.0000
  C   C1505     1.0  0.42306  0.32328  0.99794  1.0000
  C   C1506     1.0  0.49402  0.00348  0.10472  1.0000
  H   H1514     1.0  0.45328  0.27559  0.05293  1.0000
  C   C1507     1.0  0.42757  0.21859  0.99235  1.0000
  C   C1508     1.0  0.46632  0.02431  0.10423  1.0000
  C   C1509     1.0  0.40045  0.07207  0.07218  1.0000
  C   C1510     1.0  0.40237  0.42548  0.01667  1.0000
  H   H1515     1.0  0.44232  0.02051  0.12185  1.0000
  C   C1511     1.0  0.46314  0.01940  0.09764  1.0000
  N   N131      1.0  0.41831  0.05238  0.05826  1.0000
  S   S502      1.0  0.39484  0.04320  0.20853  1.0000
  C   C1512     1.0  0.45862  0.02588  0.08875  1.0000
  H   H1516     1.0  0.46994  0.01921  0.11097  1.0000
  C   C1513     1.0  0.43135  0.42640  0.01370  1.0000
  C   C1514     1.0  0.49204  0.01119  0.15953  1.0000
  H   H1517     1.0  0.50353  0.29392  0.01399  1.0000
  C   C1515     1.0  0.40187  0.34602  0.03265  1.0000
  C   C1516     1.0  0.41820  0.08028  0.22194  1.0000
  C   C1517     1.0  0.55021  0.47843  0.99213  1.0000
  S   S503      1.0  0.43545  0.20342  0.02679  1.0000
  H   H1518     1.0  0.41523  0.24741  0.01231  1.0000
  S   S504      1.0  0.39949  0.37770  0.02952  1.0000
  H   H1519     1.0  0.43451  0.00615  0.21491  1.0000
  C   C1518     1.0  0.42727  0.32906  0.00281  1.0000
  H   H1520     1.0  0.50456  0.36494  0.00461  1.0000
  S   S505      1.0  0.46506  0.23830  0.01050  1.0000
  Fe  Fe234     1.0  0.48098  0.13859  0.01471  1.0000
  H   H1521     1.0  0.42198  0.22356  0.03334  1.0000
  H   H1522     1.0  0.43467  0.07055  0.04664  1.0000
  H   H1523     1.0  0.40467  0.05779  0.21443  1.0000
  C   C1519     1.0  0.43259  0.42220  0.02454  1.0000
  C   C1520     1.0  0.40741  0.33836  0.99689  1.0000
  H   H1524     1.0  0.39613  0.25540  0.07476  1.0000
  H   H1525     1.0  0.39705  0.27194  0.08094  1.0000
  H   H1526     1.0  0.48370  0.17560  0.01130  1.0000
  S   S506      1.0  0.45475  0.01969  0.08040  1.0000
  C   C1521     1.0  0.48600  0.19212  0.00843  1.0000
  H   H1527     1.0  0.51870  0.40066  0.06162  1.0000
  C   C1522     1.0  0.40179  0.05951  0.22257  1.0000
  S   S507      1.0  0.47025  0.00136  0.17571  1.0000
  H   H1528     1.0  0.43705  0.24907  0.99852  1.0000
  H   H1529     1.0  0.43808  0.42884  0.00722  1.0000
  H   H1530     1.0  0.49947  0.00151  0.17300  1.0000
  C   C1523     1.0  0.39301  0.27557  0.00545  1.0000
  C   C1524     1.0  0.47457  0.39732  0.00271  1.0000
  C   C1525     1.0  0.49274  0.01703  0.11521  1.0000
  C   C1526     1.0  0.41075  0.24664  0.06568  1.0000
  H   H1531     1.0  0.40959  0.32345  0.99145  1.0000
  H   H1532     1.0  0.50308  0.41788  0.99170  1.0000
  H   H1533     1.0  0.40450  0.25032  0.00515  1.0000
  S   S508      1.0  0.44093  0.11493  0.99577  1.0000
  C   C1527     1.0  0.41802  0.00471  0.12504  1.0000
  H   H1534     1.0  0.39271  0.27437  0.01411  1.0000
  C   C1528     1.0  0.48633  0.10153  0.99044  1.0000
  N   N132      1.0  0.53062  0.44814  0.00599  1.0000
  C   C1529     1.0  0.51348  0.45341  0.99542  1.0000
  H   H1535     1.0  0.42627  0.24017  0.05585  1.0000
  H   H1536     1.0  0.41754  0.06703  0.04553  1.0000
  H   H1537     1.0  0.50571  0.30200  0.00006  1.0000
  H   H1538     1.0  0.51617  0.29060  0.00424  1.0000
  H   H1539     1.0  0.54163  0.43669  0.01551  1.0000
  C   C1530     1.0  0.45444  0.29492  0.99676  1.0000
  H   H1540     1.0  0.43033  0.03154  0.12046  1.0000
  C   C1531     1.0  0.45388  0.28775  0.00710  1.0000
  C   C1532     1.0  0.46532  0.37055  0.99773  1.0000
  H   H1541     1.0  0.44546  0.05736  0.05991  1.0000
  C   C1533     1.0  0.39122  0.06558  0.22570  1.0000
  H   H1542     1.0  0.44657  0.27470  0.01840  1.0000
  H   H1543     1.0  0.49374  0.99223  0.09531  1.0000
  H   H1544     1.0  0.49106  0.10405  0.01402  1.0000
  C   C1534     1.0  0.40031  0.00422  0.20702  1.0000
  H   H1545     1.0  0.43478  0.34447  0.00683  1.0000
  C   C1535     1.0  0.39162  0.00718  0.17540  1.0000
  H   H1546     1.0  0.45954  0.30089  0.99419  1.0000
  C   C1536     1.0  0.41958  0.16512  0.00509  1.0000
  H   H1547     1.0  0.41716  0.25441  0.99799  1.0000
  C   C1537     1.0  0.39685  0.00561  0.21788  1.0000
  H   H1548     1.0  0.42232  0.01467  0.13318  1.0000
  C   C1538     1.0  0.49381  0.12777  0.99210  1.0000
  C   C1539     1.0  0.44681  0.14733  0.99740  1.0000
  C   C1540     1.0  0.42380  0.41919  0.03279  1.0000
  C   C1541     1.0  0.43122  0.22040  0.00067  1.0000
  C   C1542     1.0  0.42357  0.01234  0.12542  1.0000
  H   H1549     1.0  0.40267  0.04899  0.06614  1.0000
  H   H1550     1.0  0.48150  0.39429  0.00689  1.0000
  H   H1551     1.0  0.49514  0.99700  0.11197  1.0000
  H   H1552     1.0  0.39021  0.07984  0.10730  1.0000
  S   S509      1.0  0.40262  0.06579  0.15978  1.0000
  H   H1553     1.0  0.39433  0.34353  0.02101  1.0000
  C   C1543     1.0  0.45744  0.37985  0.00008  1.0000
  S   S510      1.0  0.40060  0.03064  0.11586  1.0000
  S   S511      1.0  0.56492  0.45978  0.99818  1.0000
  H   H1554     1.0  0.51868  0.47464  0.05876  1.0000
  H   H1555     1.0  0.49128  0.02157  0.18998  1.0000
  H   H1556     1.0  0.40970  0.01499  0.18274  1.0000
  N   N133      1.0  0.46058  0.20622  0.99686  1.0000
  H   H1557     1.0  0.55140  0.48129  0.99866  1.0000
  H   H1558     1.0  0.50904  0.43858  0.00615  1.0000
  H   H1559     1.0  0.42321  0.03154  0.23178  1.0000
  C   C1544     1.0  0.39538  0.37852  0.99250  1.0000
  S   S512      1.0  0.39425  0.29019  0.02539  1.0000
  S   S513      1.0  0.39593  0.05640  0.10223  1.0000
  H   H1560     1.0  0.40582  0.28069  0.07179  1.0000
  H   H1561     1.0  0.46448  0.99494  0.21015  1.0000
  C   C1545     1.0  0.49323  0.00073  0.09531  1.0000
  C   C1546     1.0  0.49146  0.00905  0.08606  1.0000
  H   H1562     1.0  0.50716  0.06197  0.23476  1.0000
  H   H1563     1.0  0.48898  0.02652  0.07921  1.0000
  C   C1547     1.0  0.39651  0.05995  0.15300  1.0000
  C   C1548     1.0  0.45428  0.19336  0.99126  1.0000
  Fe  Fe235     1.0  0.39811  0.05960  0.17823  1.0000
  C   C1549     1.0  0.46453  0.21640  0.99414  1.0000
  C   C1550     1.0  0.44898  0.14459  0.98717  1.0000
  H   H1564     1.0  0.46989  0.99865  0.22543  1.0000
  C   C1551     1.0  0.39575  0.00197  0.07988  1.0000
  H   H1565     1.0  0.39476  0.27884  0.06734  1.0000
  N   N134      1.0  0.42024  0.07856  0.23293  1.0000
  C   C1552     1.0  0.49943  0.01977  0.23397  1.0000
  C   C1553     1.0  0.51926  0.48278  0.05367  1.0000
  H   H1566     1.0  0.49996  0.02537  0.22568  1.0000
  H   H1567     1.0  0.42742  0.31517  0.99657  1.0000
  H   H1568     1.0  0.39846  0.37005  0.99173  1.0000
  S   S514      1.0  0.39274  0.21865  0.00298  1.0000
  H   H1569     1.0  0.39683  0.00618  0.07128  1.0000
  H   H1570     1.0  0.39040  0.00182  0.22357  1.0000
  H   H1571     1.0  0.39425  0.09020  0.04426  1.0000
  H   H1572     1.0  0.39950  0.34196  0.99487  1.0000
  C   C1554     1.0  0.39643  0.01370  0.16564  1.0000
  H   H1573     1.0  0.48124  0.28666  0.99184  1.0000
  Fe  Fe236     1.0  0.54673  0.48511  0.02346  1.0000
  Fe  Fe237     1.0  0.39492  0.21220  0.04165  1.0000
  C   C1555     1.0  0.39276  0.00243  0.09914  1.0000
  C   C1556     1.0  0.44842  0.29426  0.98969  1.0000
  C   C1557     1.0  0.39648  0.05428  0.13660  1.0000
  H   H1574     1.0  0.49772  0.99031  0.20946  1.0000
  C   C1558     1.0  0.45794  0.20312  0.98886  1.0000
  S   S515      1.0  0.39745  0.32026  0.02375  1.0000
  H   H1575     1.0  0.40145  0.43151  0.00879  1.0000
  C   C1559     1.0  0.41898  0.22624  0.98830  1.0000
  H   H1576     1.0  0.40299  0.08908  0.14007  1.0000
  C   C1560     1.0  0.58601  0.48329  0.99591  1.0000
  C   C1561     1.0  0.46479  0.99280  0.22717  1.0000
  H   H1577     1.0  0.42774  0.29120  0.98677  1.0000
  H   H1578     1.0  0.41949  0.13832  0.98802  1.0000
  H   H1579     1.0  0.50680  0.45542  0.99129  1.0000
  C   C1562     1.0  0.52928  0.45760  0.99802  1.0000
  C   C1563     1.0  0.52078  0.46033  0.99253  1.0000
  C   C1564     1.0  0.55681  0.46869  0.98929  1.0000
  Fe  Fe238     1.0  0.39176  0.02708  0.10519  1.0000
  Fe  Fe239     1.0  0.38918  0.04113  0.19469  1.0000
  C   C1565     1.0  0.38889  0.07851  0.05905  1.0000
  H   H1580     1.0  0.47325  0.21495  0.98979  1.0000
  C   C1566     1.0  0.42091  0.14636  0.98715  1.0000
  C   C1567     1.0  0.47308  0.99227  0.11935  1.0000
  C   C1568     1.0  0.39284  0.99118  0.10208  1.0000
  S   S516      1.0  0.45514  0.99165  0.10254  1.0000
  S   S517      1.0  0.45081  0.99114  0.07906  1.0000
  H   H1581     1.0  0.57335  0.48094  0.98970  1.0000
  C   C1569     1.0  0.48368  0.13128  0.98914  1.0000
  C   C1570     1.0  0.58189  0.47855  0.98994  1.0000
  S   S518      1.0  0.47547  0.99113  0.08048  1.0000
  Fe  Fe240     1.0  0.40022  0.99094  0.15849  1.0000
  Fe  Fe241     1.0  0.38889  0.06125  0.20247  1.0000
  H   H1582     1.0  0.51062  0.11977  0.98742  1.0000
  C   C1571     1.0  0.46175  0.99071  0.21860  1.0000
  C   C1572     1.0  0.38920  0.08087  0.11559  1.0000
  C   C1573     1.0  0.44724  0.13457  0.98664  1.0000
  C   C1574     1.0  0.40324  0.27780  0.98653  1.0000
  Fe  Fe242     1.0  0.48498  0.03606  0.39173  1.0000
  S   S519      1.0  0.50217  0.03827  0.38588  1.0000
  S   S520      1.0  0.48181  0.01921  0.39985  1.0000
  Fe  Fe243     1.0  0.47549  0.05998  0.38219  1.0000
  S   S521      1.0  0.49190  0.06425  0.37571  1.0000
  S   S522      1.0  0.46037  0.07194  0.37791  1.0000
  Fe  Fe244     1.0  0.49688  0.04820  0.37024  1.0000
  S   S523      1.0  0.50516  0.04491  0.35334  1.0000
  Fe  Fe245     1.0  0.49554  0.05395  0.39207  1.0000
  S   S524      1.0  0.50134  0.05919  0.40445  1.0000
  S   S525      1.0  0.48026  0.04467  0.37572  1.0000
  S   S526      1.0  0.47850  0.05100  0.39895  1.0000
  Fe  Fe246     1.0  0.40160  0.06670  0.35494  1.0000
  S   S527      1.0  0.39616  0.06571  0.37333  1.0000
  Fe  Fe247     1.0  0.40862  0.04244  0.35719  1.0000
  S   S528      1.0  0.40378  0.03858  0.37558  1.0000
  S   S529      1.0  0.41647  0.03144  0.34534  1.0000
  Fe  Fe248     1.0  0.41143  0.05248  0.37426  1.0000
  S   S530      1.0  0.42199  0.04848  0.38639  1.0000
  S   S531      1.0  0.41764  0.05508  0.35600  1.0000
  N   N135      1.0  0.42739  0.02819  0.24734  1.0000
  Fe  Fe249     1.0  0.46924  0.99732  0.26013  1.0000
  C   C1575     1.0  0.46799  0.02792  0.25421  1.0000
  Fe  Fe250     1.0  0.41061  0.03678  0.28951  1.0000
  S   S532      1.0  0.41881  0.02025  0.29802  1.0000
  C   C1576     1.0  0.40764  0.00994  0.37306  1.0000
  Fe  Fe251     1.0  0.47486  0.05184  0.30830  1.0000
  S   S533      1.0  0.48216  0.03378  0.31155  1.0000
  S   S534      1.0  0.47277  0.06173  0.32081  1.0000
  S   S535      1.0  0.47569  0.03349  0.28880  1.0000
  Fe  Fe252     1.0  0.46760  0.03240  0.30667  1.0000
  S   S536      1.0  0.45772  0.02021  0.31745  1.0000
  Fe  Fe253     1.0  0.48956  0.03681  0.29339  1.0000
  S   S537      1.0  0.50705  0.03063  0.28561  1.0000
  S   S538      1.0  0.45971  0.05030  0.30458  1.0000
  S   S539      1.0  0.48347  0.05514  0.29046  1.0000
  S   S540      1.0  0.52762  0.00946  0.42836  1.0000
  H   H1583     1.0  0.45994  0.02987  0.25938  1.0000
  C   C1577     1.0  0.40917  0.00719  0.36296  1.0000
  Fe  Fe254     1.0  0.54909  0.04563  0.43436  1.0000
  S   S541      1.0  0.53668  0.05120  0.44878  1.0000
  S   S542      1.0  0.54727  0.04711  0.41705  1.0000
  Fe  Fe255     1.0  0.56674  0.03530  0.44774  1.0000
  S   S543      1.0  0.55585  0.03951  0.46338  1.0000
  H   H1584     1.0  0.47778  0.01289  0.33131  1.0000
  Fe  Fe256     1.0  0.54318  0.03453  0.45855  1.0000
  S   S544      1.0  0.53351  0.02222  0.46914  1.0000
  Fe  Fe257     1.0  0.55042  0.05577  0.45243  1.0000
  S   S545      1.0  0.54874  0.07201  0.45644  1.0000
  S   S546      1.0  0.55462  0.02865  0.44395  1.0000
  S   S547      1.0  0.56231  0.05193  0.43698  1.0000
  H   H1585     1.0  0.40735  0.08240  0.25863  1.0000
  H   H1586     1.0  0.48456  0.99038  0.29262  1.0000
  N   N136      1.0  0.48861  0.02264  0.24098  1.0000
  H   H1587     1.0  0.50463  0.00583  0.39929  1.0000
  C   C1578     1.0  0.51670  0.01963  0.26895  1.0000
  S   S548      1.0  0.40526  0.99420  0.24770  1.0000
  H   H1588     1.0  0.44839  0.00373  0.29657  1.0000
  C   C1579     1.0  0.55384  0.06255  0.47704  1.0000
  C   C1580     1.0  0.55142  0.07217  0.46901  1.0000
  C   C1581     1.0  0.55160  0.08229  0.47073  1.0000
  H   H1589     1.0  0.49513  0.04319  0.24949  1.0000
  S   S549      1.0  0.39635  0.04699  0.29913  1.0000
  H   H1590     1.0  0.55360  0.05472  0.47590  1.0000
  H   H1591     1.0  0.54972  0.08976  0.46462  1.0000
  H   H1592     1.0  0.48897  0.99801  0.30595  1.0000
  C   C1582     1.0  0.52771  0.01257  0.44061  1.0000
  C   C1583     1.0  0.53021  0.00434  0.44976  1.0000
  C   C1584     1.0  0.53138  0.00725  0.45897  1.0000
  C   C1585     1.0  0.52982  0.01835  0.45905  1.0000
  C   C1586     1.0  0.52688  0.02650  0.45009  1.0000
  C   C1587     1.0  0.52589  0.02363  0.44088  1.0000
  H   H1593     1.0  0.44035  0.03419  0.24894  1.0000
  H   H1594     1.0  0.53386  0.00095  0.46583  1.0000
  H   H1595     1.0  0.52556  0.03507  0.45015  1.0000
  H   H1596     1.0  0.52401  0.03000  0.43383  1.0000
  C   C1588     1.0  0.50814  0.02088  0.27814  1.0000
  C   C1589     1.0  0.43103  0.07014  0.31165  1.0000
  C   C1590     1.0  0.43267  0.07165  0.24508  1.0000
  H   H1597     1.0  0.54101  0.06917  0.40099  1.0000
  H   H1598     1.0  0.42864  0.07944  0.29126  1.0000
  C   C1591     1.0  0.51377  0.05036  0.25962  1.0000
  H   H1599     1.0  0.49703  0.01290  0.36618  1.0000
  H   H1600     1.0  0.40210  0.00712  0.36024  1.0000
  H   H1601     1.0  0.47560  0.02109  0.36185  1.0000
  C   C1592     1.0  0.42931  0.02085  0.30351  1.0000
  C   C1593     1.0  0.43075  0.01398  0.31369  1.0000
  C   C1594     1.0  0.43923  0.01420  0.31814  1.0000
  C   C1595     1.0  0.44659  0.02089  0.31220  1.0000
  C   C1596     1.0  0.44520  0.02775  0.30198  1.0000
  C   C1597     1.0  0.43648  0.02781  0.29769  1.0000
  H   H1602     1.0  0.42520  0.00862  0.31821  1.0000
  H   H1603     1.0  0.44022  0.00901  0.32610  1.0000
  H   H1604     1.0  0.45091  0.03290  0.29733  1.0000
  H   H1605     1.0  0.43551  0.03295  0.28971  1.0000
  C   C1598     1.0  0.48051  0.05086  0.25965  1.0000
  C   C1599     1.0  0.40317  0.06881  0.32574  1.0000
  C   C1600     1.0  0.40393  0.06759  0.31502  1.0000
  H   H1606     1.0  0.40324  0.06172  0.33253  1.0000
  H   H1607     1.0  0.40442  0.05959  0.31365  1.0000
  C   C1601     1.0  0.51409  0.05443  0.40820  1.0000
  C   C1602     1.0  0.51470  0.05514  0.41863  1.0000
  C   C1603     1.0  0.52477  0.05223  0.42171  1.0000
  C   C1604     1.0  0.53437  0.04887  0.41425  1.0000
  C   C1605     1.0  0.53376  0.04796  0.40389  1.0000
  C   C1606     1.0  0.52364  0.05062  0.40090  1.0000
  H   H1608     1.0  0.50733  0.05802  0.42435  1.0000
  H   H1609     1.0  0.52513  0.05292  0.42973  1.0000
  H   H1610     1.0  0.54116  0.04543  0.39803  1.0000
  H   H1611     1.0  0.52327  0.05013  0.39282  1.0000
  C   C1607     1.0  0.45050  0.06474  0.37908  1.0000
  C   C1608     1.0  0.44274  0.06903  0.37256  1.0000
  C   C1609     1.0  0.43426  0.06369  0.37423  1.0000
  C   C1610     1.0  0.43341  0.05426  0.38266  1.0000
  C   C1611     1.0  0.44136  0.04983  0.38893  1.0000
  C   C1612     1.0  0.44996  0.05499  0.38707  1.0000
  H   H1612     1.0  0.44321  0.07657  0.36633  1.0000
  H   H1613     1.0  0.42815  0.06712  0.36934  1.0000
  H   H1614     1.0  0.44072  0.04252  0.39545  1.0000
  H   H1615     1.0  0.45589  0.05173  0.39217  1.0000
  C   C1613     1.0  0.49619  0.04958  0.34427  1.0000
  C   C1614     1.0  0.48658  0.05749  0.34643  1.0000
  C   C1615     1.0  0.47955  0.06125  0.33910  1.0000
  C   C1616     1.0  0.48195  0.05697  0.32967  1.0000
  C   C1617     1.0  0.49145  0.04889  0.32760  1.0000
  C   C1618     1.0  0.49860  0.04529  0.33483  1.0000
  H   H1616     1.0  0.48470  0.06096  0.35361  1.0000
  H   H1617     1.0  0.47226  0.06754  0.34073  1.0000
  H   H1618     1.0  0.49345  0.04564  0.32028  1.0000
  H   H1619     1.0  0.50606  0.03924  0.33306  1.0000
  C   C1619     1.0  0.48713  0.04852  0.24962  1.0000
  H   H1620     1.0  0.49463  0.02254  0.25466  1.0000
  C   C1620     1.0  0.39570  0.02916  0.34874  1.0000
  C   C1621     1.0  0.40563  0.02970  0.34117  1.0000
  C   C1622     1.0  0.40686  0.02874  0.33038  1.0000
  C   C1623     1.0  0.50544  0.05684  0.26596  1.0000
  H   H1621     1.0  0.55206  0.00568  0.47469  1.0000
  C   C1624     1.0  0.49781  0.06513  0.26093  1.0000
  H   H1622     1.0  0.41447  0.02928  0.32448  1.0000
  C   C1625     1.0  0.46652  0.06237  0.25009  1.0000
  C   C1626     1.0  0.46142  0.01264  0.38021  1.0000
  C   C1627     1.0  0.45871  0.02270  0.38336  1.0000
  C   C1628     1.0  0.46490  0.02469  0.38953  1.0000
  C   C1629     1.0  0.47366  0.01655  0.39272  1.0000
  C   C1630     1.0  0.47615  0.00637  0.38987  1.0000
  C   C1631     1.0  0.41668  0.00988  0.37674  1.0000
  H   H1623     1.0  0.45191  0.02899  0.38097  1.0000
  H   H1624     1.0  0.46288  0.03250  0.39189  1.0000
  C   C1632     1.0  0.43772  0.00050  0.25452  1.0000
  N   N137      1.0  0.57298  0.01500  0.42632  1.0000
  C   C1633     1.0  0.47018  0.05780  0.25991  1.0000
  N   N138      1.0  0.43143  0.06487  0.30370  1.0000
  C   C1634     1.0  0.49654  0.02028  0.35930  1.0000
  H   H1625     1.0  0.43160  0.07870  0.30946  1.0000
  C   C1635     1.0  0.50026  0.01461  0.28107  1.0000
  H   H1626     1.0  0.58272  0.03717  0.46650  1.0000
  C   C1636     1.0  0.56694  0.01044  0.47313  1.0000
  H   H1627     1.0  0.47203  0.99652  0.38143  1.0000
  H   H1628     1.0  0.58609  0.04662  0.43492  1.0000
  C   C1637     1.0  0.58202  0.02062  0.42318  1.0000
  C   C1638     1.0  0.44394  0.00118  0.26137  1.0000
  C   C1639     1.0  0.58320  0.06610  0.46857  1.0000
  H   H1629     1.0  0.52391  0.00445  0.38933  1.0000
  C   C1640     1.0  0.58293  0.04529  0.46708  1.0000
  S   S550      1.0  0.40182  0.03721  0.27696  1.0000
  N   N139      1.0  0.41832  0.07541  0.39466  1.0000
  C   C1641     1.0  0.42383  0.08366  0.38945  1.0000
  C   C1642     1.0  0.42181  0.06727  0.40306  1.0000
  C   C1643     1.0  0.43325  0.08375  0.39244  1.0000
  C   C1644     1.0  0.43117  0.06714  0.40630  1.0000
  C   C1645     1.0  0.43695  0.07540  0.40089  1.0000
  C   C1646     1.0  0.40863  0.07540  0.39115  1.0000
  H   H1630     1.0  0.42117  0.09001  0.38268  1.0000
  H   H1631     1.0  0.41764  0.06055  0.40698  1.0000
  H   H1632     1.0  0.43797  0.08993  0.38790  1.0000
  H   H1633     1.0  0.43419  0.06043  0.41264  1.0000
  H   H1634     1.0  0.44455  0.07511  0.40289  1.0000
  H   H1635     1.0  0.40609  0.06738  0.39460  1.0000
  H   H1636     1.0  0.40175  0.08203  0.39384  1.0000
  H   H1637     1.0  0.41036  0.07664  0.38203  1.0000
  N   N140      1.0  0.45395  0.04251  0.35336  1.0000
  C   C1647     1.0  0.44495  0.03834  0.35907  1.0000
  C   C1648     1.0  0.45823  0.04199  0.34255  1.0000
  C   C1649     1.0  0.44032  0.03305  0.35407  1.0000
  C   C1650     1.0  0.45373  0.03689  0.33726  1.0000
  C   C1651     1.0  0.44481  0.03226  0.34312  1.0000
  C   C1652     1.0  0.45889  0.04793  0.35861  1.0000
  H   H1638     1.0  0.44134  0.03895  0.36757  1.0000
  H   H1639     1.0  0.46526  0.04541  0.33799  1.0000
  H   H1640     1.0  0.43330  0.02958  0.35869  1.0000
  H   H1641     1.0  0.45725  0.03644  0.32871  1.0000
  H   H1642     1.0  0.44134  0.02813  0.33915  1.0000
  H   H1643     1.0  0.45643  0.05701  0.35588  1.0000
  H   H1644     1.0  0.45644  0.04567  0.36774  1.0000
  H   H1645     1.0  0.46792  0.04549  0.35637  1.0000
  H   H1646     1.0  0.48299  0.00012  0.39222  1.0000
  C   C1653     1.0  0.41393  0.08004  0.25189  1.0000
  H   H1647     1.0  0.48350  0.04741  0.26715  1.0000
  C   C1654     1.0  0.41177  0.02377  0.24488  1.0000
  H   H1648     1.0  0.49153  0.99404  0.40903  1.0000
  S   S551      1.0  0.46194  0.06116  0.27235  1.0000
  C   C1655     1.0  0.40540  0.05808  0.24041  1.0000
  H   H1649     1.0  0.55421  0.09075  0.48155  1.0000
  H   H1650     1.0  0.39924  0.02619  0.31890  1.0000
  C   C1656     1.0  0.38841  0.02609  0.33492  1.0000
  C   C1657     1.0  0.40281  0.08822  0.31861  1.0000
  H   H1651     1.0  0.48215  0.07611  0.25037  1.0000
  S   S552      1.0  0.45402  0.00881  0.25610  1.0000
  H   H1652     1.0  0.45863  0.06791  0.25021  1.0000
  C   C1658     1.0  0.47722  0.02618  0.25831  1.0000
  C   C1659     1.0  0.43725  0.03257  0.24254  1.0000
  H   H1653     1.0  0.43418  0.00694  0.37311  1.0000
  C   C1660     1.0  0.39819  0.02707  0.32721  1.0000
  C   C1661     1.0  0.57955  0.98980  0.41629  1.0000
  H   H1654     1.0  0.38852  0.04217  0.24863  1.0000
  H   H1655     1.0  0.51960  0.04381  0.26354  1.0000
  C   C1662     1.0  0.47002  0.00439  0.38365  1.0000
  S   S553      1.0  0.39283  0.05417  0.35524  1.0000
  H   H1656     1.0  0.40238  0.09624  0.31991  1.0000
  S   S554      1.0  0.41477  0.05371  0.24906  1.0000
  C   C1663     1.0  0.40360  0.08701  0.30800  1.0000
  S   S555      1.0  0.45482  0.01081  0.37106  1.0000
  H   H1657     1.0  0.54955  0.99984  0.43370  1.0000
  Fe  Fe258     1.0  0.40804  0.05223  0.26733  1.0000
  C   C1664     1.0  0.42710  0.00711  0.37028  1.0000
  H   H1658     1.0  0.52335  0.01207  0.25491  1.0000
  C   C1665     1.0  0.48158  0.01469  0.33687  1.0000
  C   C1666     1.0  0.55420  0.08284  0.48030  1.0000
  H   H1659     1.0  0.42995  0.02351  0.26374  1.0000
  C   C1667     1.0  0.56482  0.01894  0.42065  1.0000
  C   C1668     1.0  0.57257  0.01469  0.47803  1.0000
  H   H1660     1.0  0.47642  0.02696  0.26663  1.0000
  C   C1669     1.0  0.38869  0.01628  0.30569  1.0000
  H   H1661     1.0  0.56488  0.02630  0.41410  1.0000
  C   C1670     1.0  0.50875  0.00684  0.26489  1.0000
  H   H1662     1.0  0.44368  0.02654  0.23832  1.0000
  C   C1671     1.0  0.57266  0.00598  0.43489  1.0000
  C   C1672     1.0  0.40913  0.01911  0.25613  1.0000
  C   C1673     1.0  0.42753  0.98926  0.27001  1.0000
  C   C1674     1.0  0.39741  0.00738  0.30752  1.0000
  S   S556      1.0  0.47822  0.99781  0.27218  1.0000
  C   C1675     1.0  0.55651  0.00875  0.47866  1.0000
  H   H1663     1.0  0.40196  0.01564  0.25959  1.0000
  H   H1664     1.0  0.42810  0.99488  0.34470  1.0000
  H   H1665     1.0  0.39219  0.06621  0.25161  1.0000
  H   H1666     1.0  0.49122  0.06999  0.26598  1.0000
  C   C1676     1.0  0.46918  0.02686  0.24349  1.0000
  H   H1667     1.0  0.39345  0.99050  0.29425  1.0000
  C   C1677     1.0  0.41577  0.01892  0.26292  1.0000
  H   H1668     1.0  0.53154  0.99578  0.44962  1.0000
  H   H1669     1.0  0.41395  0.01507  0.27163  1.0000
  H   H1670     1.0  0.49178  0.02760  0.36271  1.0000
  C   C1678     1.0  0.48044  0.01928  0.35402  1.0000
  H   H1671     1.0  0.42588  0.07332  0.26191  1.0000
  H   H1672     1.0  0.42742  0.04938  0.33422  1.0000
  H   H1673     1.0  0.40663  0.02405  0.23954  1.0000
  H   H1674     1.0  0.49395  0.01511  0.28848  1.0000
  H   H1675     1.0  0.40281  0.00781  0.31228  1.0000
  H   H1676     1.0  0.41563  0.01196  0.38458  1.0000
  S   S557      1.0  0.58351  0.02507  0.44841  1.0000
  N   N141      1.0  0.51137  0.02274  0.41070  1.0000
  C   C1679     1.0  0.52189  0.02243  0.40490  1.0000
  C   C1680     1.0  0.50519  0.01689  0.40874  1.0000
  C   C1681     1.0  0.52659  0.01585  0.39713  1.0000
  C   C1682     1.0  0.50957  0.01041  0.40088  1.0000
  C   C1683     1.0  0.52037  0.00977  0.39516  1.0000
  C   C1684     1.0  0.50654  0.02935  0.41909  1.0000
  H   H1677     1.0  0.52684  0.02693  0.40659  1.0000
  H   H1678     1.0  0.49682  0.01724  0.41324  1.0000
  H   H1679     1.0  0.53504  0.01533  0.39282  1.0000
  S   S558      1.0  0.40162  0.08133  0.34070  1.0000
  H   H1680     1.0  0.45887  0.99663  0.31890  1.0000
  H   H1681     1.0  0.50005  0.03635  0.41634  1.0000
  H   H1682     1.0  0.50312  0.02415  0.42704  1.0000
  H   H1683     1.0  0.51271  0.03268  0.42073  1.0000
  H   H1684     1.0  0.43643  0.00232  0.35520  1.0000
  C   C1685     1.0  0.42932  0.04831  0.31748  1.0000
  N   N142      1.0  0.39913  0.99834  0.30328  1.0000
  H   H1685     1.0  0.58311  0.07421  0.46938  1.0000
  H   H1686     1.0  0.44199  0.07036  0.28859  1.0000
  C   C1686     1.0  0.55619  0.01363  0.42334  1.0000
  H   H1687     1.0  0.50627  0.01576  0.33939  1.0000
  C   C1687     1.0  0.51694  0.01271  0.26225  1.0000
  S   S559      1.0  0.41832  0.05081  0.27915  1.0000
  C   C1688     1.0  0.43316  0.07071  0.29210  1.0000
  H   H1688     1.0  0.42861  0.03979  0.31970  1.0000
  C   C1689     1.0  0.40256  0.07919  0.32755  1.0000
  H   H1689     1.0  0.43004  0.06704  0.28714  1.0000
  C   C1690     1.0  0.47312  0.05995  0.24006  1.0000
  H   H1690     1.0  0.54963  0.01683  0.41895  1.0000
  C   C1691     1.0  0.42832  0.00447  0.36018  1.0000
  C   C1692     1.0  0.47538  0.01722  0.34686  1.0000
  H   H1691     1.0  0.40373  0.09413  0.30120  1.0000
  H   H1692     1.0  0.44074  0.06751  0.24645  1.0000
  C   C1693     1.0  0.48499  0.99132  0.41602  1.0000
  C   C1694     1.0  0.50062  0.00754  0.27449  1.0000
  C   C1695     1.0  0.39213  0.99772  0.29752  1.0000
  H   H1693     1.0  0.57912  0.00291  0.43941  1.0000
  C   C1696     1.0  0.48577  0.99061  0.30877  1.0000
  H   H1694     1.0  0.42892  0.06895  0.32908  1.0000
  S   S560      1.0  0.40493  0.07602  0.29253  1.0000
  C   C1697     1.0  0.53367  0.07547  0.40357  1.0000
  C   C1698     1.0  0.42110  0.02812  0.24057  1.0000
  H   H1695     1.0  0.50486  0.05527  0.27478  1.0000
  N   N143      1.0  0.53259  0.07614  0.41496  1.0000
  C   C1699     1.0  0.52247  0.07842  0.42164  1.0000
  C   C1700     1.0  0.54171  0.07507  0.41866  1.0000
  C   C1701     1.0  0.52131  0.07954  0.43238  1.0000
  C   C1702     1.0  0.54084  0.07631  0.42929  1.0000
  C   C1703     1.0  0.53057  0.07855  0.43618  1.0000
  C   C1704     1.0  0.42874  0.05367  0.32564  1.0000
  H   H1696     1.0  0.51524  0.07919  0.41874  1.0000
  H   H1697     1.0  0.54974  0.07310  0.41342  1.0000
  H   H1698     1.0  0.51329  0.08113  0.43773  1.0000
  H   H1699     1.0  0.54806  0.07543  0.43225  1.0000
  H   H1700     1.0  0.52984  0.07933  0.44451  1.0000
  H   H1701     1.0  0.46676  0.01728  0.34916  1.0000
  C   C1705     1.0  0.49757  0.01626  0.34152  1.0000
  C   C1706     1.0  0.49275  0.01422  0.33414  1.0000
  H   H1702     1.0  0.52302  0.02420  0.26683  1.0000
  Fe  Fe259     1.0  0.46912  0.05163  0.28703  1.0000
  C   C1707     1.0  0.39487  0.06424  0.24357  1.0000
  H   H1703     1.0  0.43104  0.04991  0.30017  1.0000
  C   C1708     1.0  0.43068  0.05408  0.30647  1.0000
  H   H1704     1.0  0.50487  0.02178  0.35544  1.0000
  C   C1709     1.0  0.42962  0.06464  0.32275  1.0000
  C   C1710     1.0  0.57772  0.05456  0.46038  1.0000
  C   C1711     1.0  0.56424  0.00038  0.43768  1.0000
  H   H1705     1.0  0.51656  0.99306  0.28673  1.0000
  H   H1706     1.0  0.52658  0.07292  0.40270  1.0000
  H   H1707     1.0  0.49764  0.01206  0.32645  1.0000
  Fe  Fe260     1.0  0.38870  0.00409  0.25351  1.0000
  C   C1712     1.0  0.40407  0.07676  0.30614  1.0000
  N   N144      1.0  0.49845  0.06689  0.24986  1.0000
  Fe  Fe261     1.0  0.38879  0.05188  0.37367  1.0000
  C   C1713     1.0  0.42087  0.00169  0.34607  1.0000
  H   H1708     1.0  0.53430  0.08358  0.39792  1.0000
  C   C1714     1.0  0.51445  0.05228  0.24832  1.0000
  C   C1715     1.0  0.48752  0.02357  0.25152  1.0000
  H   H1709     1.0  0.39471  0.02991  0.35709  1.0000
  C   C1716     1.0  0.49036  0.07562  0.24475  1.0000
  H   H1710     1.0  0.49464  0.00264  0.27693  1.0000
  H   H1711     1.0  0.41372  0.99891  0.34571  1.0000
  C   C1717     1.0  0.42482  0.02371  0.25840  1.0000
  H   H1712     1.0  0.43922  0.00462  0.24591  1.0000
  H   H1713     1.0  0.46098  0.00348  0.29983  1.0000
  Fe  Fe262     1.0  0.40339  0.06115  0.28788  1.0000
  H   H1714     1.0  0.39949  0.01200  0.37802  1.0000
  N   N145      1.0  0.49139  0.01877  0.35131  1.0000
  N   N146      1.0  0.41941  0.00438  0.35672  1.0000
  Fe  Fe263     1.0  0.38818  0.04871  0.28546  1.0000
  C   C1718     1.0  0.55602  0.00419  0.43178  1.0000
  H   H1715     1.0  0.42191  0.00907  0.33936  1.0000
  C   C1719     1.0  0.42433  0.07492  0.25374  1.0000
  C   C1720     1.0  0.45606  0.99831  0.29870  1.0000
  S   S561      1.0  0.46106  0.99221  0.35036  1.0000
  S   S562      1.0  0.50836  0.99937  0.25567  1.0000
  S   S563      1.0  0.39379  0.06393  0.27503  1.0000
  Fe  Fe264     1.0  0.46356  0.99507  0.36559  1.0000
  C   C1721     1.0  0.41201  0.08179  0.24137  1.0000
  H   H1716     1.0  0.47738  0.99776  0.41562  1.0000
  C   C1722     1.0  0.42948  0.99455  0.25886  1.0000
  H   H1717     1.0  0.46208  0.02789  0.24030  1.0000
  H   H1718     1.0  0.57852  0.99836  0.41205  1.0000
  H   H1719     1.0  0.40384  0.08549  0.24007  1.0000
  H   H1720     1.0  0.52082  0.04718  0.24334  1.0000
  H   H1721     1.0  0.57349  0.05366  0.45473  1.0000
  H   H1722     1.0  0.57377  0.07226  0.45603  1.0000
  H   H1723     1.0  0.56422  0.99302  0.44419  1.0000
  H   H1724     1.0  0.49268  0.08367  0.24280  1.0000
  S   S564      1.0  0.39188  0.99296  0.34150  1.0000
  S   S565      1.0  0.38919  0.99735  0.27117  1.0000
  C   C1723     1.0  0.57794  0.06502  0.46108  1.0000
  H   H1725     1.0  0.58066  0.01601  0.47377  1.0000
  H   H1726     1.0  0.57900  0.02910  0.42466  1.0000
  H   H1727     1.0  0.42466  0.99406  0.25358  1.0000
  H   H1728     1.0  0.41537  0.99192  0.30548  1.0000
  C   C1724     1.0  0.50673  0.06070  0.24351  1.0000
  S   S566      1.0  0.48407  0.99438  0.24676  1.0000
  C   C1725     1.0  0.48344  0.05297  0.23981  1.0000
  H   H1729     1.0  0.57065  0.00859  0.46506  1.0000
  H   H1730     1.0  0.50593  0.02057  0.23747  1.0000
  H   H1731     1.0  0.46085  0.99441  0.29170  1.0000
  H   H1732     1.0  0.50212  0.99231  0.38796  1.0000
  H   H1733     1.0  0.44707  0.99612  0.27771  1.0000
  C   C1726     1.0  0.44220  0.99566  0.27244  1.0000
  Fe  Fe265     1.0  0.49326  0.99279  0.25957  1.0000
  H   H1734     1.0  0.57551  0.08832  0.48622  1.0000
  Fe  Fe266     1.0  0.53081  0.99167  0.42820  1.0000
  H   H1735     1.0  0.48961  0.07397  0.23704  1.0000
  C   C1727     1.0  0.45531  0.99020  0.31842  1.0000
  H   H1736     1.0  0.52027  0.99013  0.47203  1.0000
  H   H1737     1.0  0.58606  0.02088  0.41437  1.0000
  H   H1738     1.0  0.48727  0.99071  0.42383  1.0000
  S   S567      1.0  0.48177  0.99001  0.36089  1.0000
  S   S568      1.0  0.48832  0.99017  0.32916  1.0000
  C   C1728     1.0  0.43399  0.98969  0.27676  1.0000
  N   N147      1.0  0.45357  0.98980  0.30863  1.0000
  C   C1729     1.0  0.47960  0.02405  0.23701  1.0000
  C   C1730     1.0  0.40818  0.98900  0.30547  1.0000
  H   H1739     1.0  0.43554  0.04049  0.23652  1.0000
  C   C1731     1.0  0.41136  0.09334  0.62608  1.0000
  Fe  Fe267     1.0  0.48018  0.04143  0.60021  1.0000
  S   S569      1.0  0.48217  0.03123  0.61688  1.0000
  S   S570      1.0  0.46861  0.03863  0.59181  1.0000
  Fe  Fe268     1.0  0.50009  0.05098  0.59668  1.0000
  S   S571      1.0  0.50348  0.04180  0.61337  1.0000
  S   S572      1.0  0.51094  0.06154  0.58381  1.0000
  Fe  Fe269     1.0  0.49997  0.02763  0.60929  1.0000
  S   S573      1.0  0.50987  0.01037  0.61061  1.0000
  Fe  Fe270     1.0  0.48528  0.04636  0.61961  1.0000
  S   S574      1.0  0.47522  0.05107  0.63566  1.0000
  S   S575      1.0  0.49777  0.03648  0.59233  1.0000
  S   S576      1.0  0.48210  0.05693  0.60320  1.0000
  Fe  Fe271     1.0  0.48284  0.04820  0.69396  1.0000
  S   S577      1.0  0.46535  0.04772  0.69743  1.0000
  S   S578      1.0  0.49388  0.04743  0.67710  1.0000
  Fe  Fe272     1.0  0.48176  0.04775  0.71797  1.0000
  S   S579      1.0  0.46413  0.04723  0.72346  1.0000
  S   S580      1.0  0.49146  0.04528  0.73065  1.0000
  Fe  Fe273     1.0  0.46825  0.03518  0.71273  1.0000
  S   S581      1.0  0.46137  0.02005  0.71954  1.0000
  Fe  Fe274     1.0  0.46245  0.05986  0.70785  1.0000
  S   S582      1.0  0.44699  0.07282  0.70748  1.0000
  S   S583      1.0  0.48614  0.03446  0.70850  1.0000
  S   S584      1.0  0.47986  0.06163  0.70311  1.0000
  S   S585      1.0  0.44041  0.00832  0.68745  1.0000
  C   C1732     1.0  0.39409  0.01284  0.70912  1.0000
  H   H1740     1.0  0.57408  0.08461  0.50637  1.0000
  C   C1733     1.0  0.43276  0.99625  0.61230  1.0000
  H   H1741     1.0  0.48783  0.02780  0.57725  1.0000
  H   H1742     1.0  0.45136  0.01290  0.56706  1.0000
  S   S586      1.0  0.56778  0.06179  0.52842  1.0000
  C   C1734     1.0  0.41097  0.01677  0.69104  1.0000
  Fe  Fe275     1.0  0.57723  0.03549  0.51685  1.0000
  S   S587      1.0  0.55969  0.04435  0.51994  1.0000
  C   C1735     1.0  0.50043  0.06945  0.71639  1.0000
  Fe  Fe276     1.0  0.56274  0.04553  0.53580  1.0000
  S   S588      1.0  0.55191  0.03856  0.55193  1.0000
  H   H1743     1.0  0.43461  0.03989  0.71066  1.0000
  S   S589      1.0  0.58008  0.03571  0.53299  1.0000
  H   H1744     1.0  0.48664  0.02199  0.73348  1.0000
  C   C1736     1.0  0.53107  0.02576  0.60191  1.0000
  H   H1745     1.0  0.52631  0.04720  0.60163  1.0000
  C   C1737     1.0  0.44422  0.06601  0.59258  1.0000
  Fe  Fe277     1.0  0.39370  0.06031  0.57966  1.0000
  H   H1746     1.0  0.39216  0.08765  0.60299  1.0000
  H   H1747     1.0  0.51616  0.01579  0.58695  1.0000
  S   S590      1.0  0.41137  0.05176  0.57893  1.0000
  Fe  Fe278     1.0  0.40514  0.04257  0.59592  1.0000
  Fe  Fe279     1.0  0.40387  0.05671  0.69127  1.0000
  C   C1738     1.0  0.42158  0.06589  0.70089  1.0000
  C   C1739     1.0  0.55253  0.03859  0.58041  1.0000
  H   H1748     1.0  0.40478  0.08895  0.59327  1.0000
  C   C1740     1.0  0.56540  0.99694  0.51684  1.0000
  C   C1741     1.0  0.57378  0.00273  0.51265  1.0000
  C   C1742     1.0  0.57320  0.01194  0.51659  1.0000
  C   C1743     1.0  0.56454  0.01495  0.52512  1.0000
  C   C1744     1.0  0.55607  0.00929  0.52918  1.0000
  S   S591      1.0  0.56006  0.07458  0.50001  1.0000
  H   H1749     1.0  0.42866  0.99798  0.60560  1.0000
  H   H1750     1.0  0.56428  0.02169  0.52860  1.0000
  H   H1751     1.0  0.54922  0.01190  0.53555  1.0000
  C   C1745     1.0  0.45511  0.01708  0.71075  1.0000
  C   C1746     1.0  0.45332  0.00650  0.71273  1.0000
  C   C1747     1.0  0.44864  0.00385  0.70563  1.0000
  C   C1748     1.0  0.44517  0.01196  0.69690  1.0000
  C   C1749     1.0  0.44642  0.02269  0.69522  1.0000
  C   C1750     1.0  0.45162  0.02517  0.70200  1.0000
  C   C1751     1.0  0.41401  0.09009  0.60795  1.0000
  H   H1752     1.0  0.41250  0.06858  0.62990  1.0000
  H   H1753     1.0  0.44373  0.02897  0.68845  1.0000
  H   H1754     1.0  0.45266  0.03341  0.70060  1.0000
  H   H1755     1.0  0.41455  0.09306  0.63305  1.0000
  H   H1756     1.0  0.45076  0.06520  0.68565  1.0000
  S   S592      1.0  0.39978  0.05083  0.67857  1.0000
  H   H1757     1.0  0.49173  0.07027  0.71654  1.0000
  N   N148      1.0  0.40300  0.09302  0.60872  1.0000
  C   C1752     1.0  0.39917  0.00873  0.60470  1.0000
  H   H1758     1.0  0.47493  0.06542  0.73275  1.0000
  H   H1759     1.0  0.43240  0.01810  0.57037  1.0000
  S   S593      1.0  0.41709  0.04661  0.69989  1.0000
  C   C1753     1.0  0.42801  0.05895  0.66603  1.0000
  C   C1754     1.0  0.43279  0.04876  0.70844  1.0000
  C   C1755     1.0  0.43929  0.05453  0.71042  1.0000
  C   C1756     1.0  0.43736  0.06599  0.70709  1.0000
  C   C1757     1.0  0.42827  0.07173  0.70264  1.0000
  H   H1760     1.0  0.44598  0.05001  0.71428  1.0000
  Fe  Fe280     1.0  0.39062  0.06328  0.60312  1.0000
  C   C1758     1.0  0.52176  0.05532  0.57424  1.0000
  C   C1759     1.0  0.52412  0.04397  0.57500  1.0000
  C   C1760     1.0  0.53312  0.03908  0.56775  1.0000
  C   C1761     1.0  0.53986  0.04546  0.55962  1.0000
  C   C1762     1.0  0.53730  0.05688  0.55855  1.0000
  C   C1763     1.0  0.52828  0.06179  0.56588  1.0000
  H   H1761     1.0  0.51918  0.03890  0.58134  1.0000
  H   H1762     1.0  0.53506  0.03024  0.56861  1.0000
  H   H1763     1.0  0.54247  0.06187  0.55234  1.0000
  H   H1764     1.0  0.52649  0.07059  0.56521  1.0000
  C   C1764     1.0  0.48063  0.05018  0.64698  1.0000
  C   C1765     1.0  0.49184  0.04820  0.64616  1.0000
  C   C1766     1.0  0.49579  0.04759  0.65540  1.0000
  C   C1767     1.0  0.48859  0.04882  0.66554  1.0000
  C   C1768     1.0  0.47739  0.05077  0.66633  1.0000
  C   C1769     1.0  0.47343  0.05148  0.65708  1.0000
  H   H1765     1.0  0.49745  0.04725  0.63839  1.0000
  H   H1766     1.0  0.50447  0.04610  0.65472  1.0000
  H   H1767     1.0  0.47177  0.05179  0.67403  1.0000
  H   H1768     1.0  0.46476  0.05302  0.65775  1.0000
  C   C1770     1.0  0.45685  0.04881  0.58978  1.0000
  C   C1771     1.0  0.46124  0.01432  0.57705  1.0000
  C   C1772     1.0  0.55673  0.07327  0.48826  1.0000
  H   H1769     1.0  0.39464  0.09852  0.63422  1.0000
  H   H1770     1.0  0.40450  0.03890  0.63880  1.0000
  C   C1773     1.0  0.49794  0.00293  0.58443  1.0000
  C   C1774     1.0  0.49450  0.99806  0.59552  1.0000
  C   C1775     1.0  0.49867  0.99982  0.60357  1.0000
  C   C1776     1.0  0.50649  0.00620  0.60051  1.0000
  C   C1777     1.0  0.51026  0.01068  0.58934  1.0000
  C   C1778     1.0  0.50596  0.00908  0.58130  1.0000
  S   S594      1.0  0.49183  0.00183  0.57450  1.0000
  C   C1779     1.0  0.38899  0.03514  0.62370  1.0000
  H   H1771     1.0  0.49543  0.99673  0.61219  1.0000
  Fe  Fe281     1.0  0.39737  0.06856  0.66965  1.0000
  Fe  Fe282     1.0  0.45081  0.99170  0.68583  1.0000
  N   N149      1.0  0.47795  0.02032  0.67219  1.0000
  C   C1780     1.0  0.48577  0.02280  0.66291  1.0000
  C   C1781     1.0  0.46973  0.01599  0.67176  1.0000
  C   C1782     1.0  0.48551  0.02091  0.65288  1.0000
  C   C1783     1.0  0.46934  0.01379  0.66193  1.0000
  C   C1784     1.0  0.47728  0.01628  0.65243  1.0000
  C   C1785     1.0  0.47805  0.02268  0.68260  1.0000
  H   H1772     1.0  0.49223  0.02633  0.66320  1.0000
  H   H1773     1.0  0.46351  0.01407  0.67908  1.0000
  H   H1774     1.0  0.49160  0.02308  0.64549  1.0000
  H   H1775     1.0  0.46297  0.01007  0.66171  1.0000
  H   H1776     1.0  0.47709  0.01457  0.64476  1.0000
  H   H1777     1.0  0.47671  0.01552  0.68957  1.0000
  H   H1778     1.0  0.48592  0.02450  0.68236  1.0000
  H   H1779     1.0  0.47150  0.02995  0.68426  1.0000
  S   S595      1.0  0.46865  0.98920  0.68482  1.0000
  H   H1780     1.0  0.42622  0.02841  0.57847  1.0000
  C   C1786     1.0  0.39806  0.07125  0.64268  1.0000
  C   C1787     1.0  0.43339  0.02110  0.73118  1.0000
  H   H1781     1.0  0.54016  0.00637  0.50345  1.0000
  N   N150      1.0  0.43200  0.02978  0.73585  1.0000
  C   C1788     1.0  0.39609  0.09623  0.61792  1.0000
  C   C1789     1.0  0.42971  0.06961  0.66168  1.0000
  N   N151      1.0  0.55190  0.01110  0.48886  1.0000
  H   H1782     1.0  0.52429  0.02625  0.59811  1.0000
  H   H1783     1.0  0.41463  0.07033  0.69741  1.0000
  H   H1784     1.0  0.45902  0.05953  0.59867  1.0000
  H   H1785     1.0  0.48826  0.99337  0.59795  1.0000
  S   S596      1.0  0.58351  0.05066  0.50767  1.0000
  C   C1790     1.0  0.43666  0.07323  0.66566  1.0000
  H   H1786     1.0  0.40638  0.08828  0.73189  1.0000
  H   H1787     1.0  0.46892  0.01625  0.58888  1.0000
  H   H1788     1.0  0.42557  0.07505  0.65535  1.0000
  H   H1789     1.0  0.38828  0.03557  0.67678  1.0000
  C   C1791     1.0  0.58283  0.08633  0.48939  1.0000
  Fe  Fe283     1.0  0.41206  0.06454  0.58718  1.0000
  H   H1790     1.0  0.47779  0.01375  0.73330  1.0000
  H   H1791     1.0  0.42673  0.01403  0.58477  1.0000
  H   H1792     1.0  0.53636  0.06122  0.58951  1.0000
  H   H1793     1.0  0.40026  0.01600  0.68159  1.0000
  C   C1792     1.0  0.41551  0.03846  0.72940  1.0000
  C   C1793     1.0  0.42409  0.05436  0.70343  1.0000
  H   H1794     1.0  0.40904  0.98964  0.70772  1.0000
  H   H1795     1.0  0.40257  0.06896  0.61627  1.0000
  C   C1794     1.0  0.43127  0.01995  0.57854  1.0000
  C   C1795     1.0  0.42603  0.02105  0.72522  1.0000
  H   H1796     1.0  0.44412  0.05051  0.68451  1.0000
  C   C1796     1.0  0.45391  0.05825  0.59410  1.0000
  H   H1797     1.0  0.45691  0.07048  0.67150  1.0000
  S   S597      1.0  0.42501  0.07352  0.58557  1.0000
  H   H1798     1.0  0.50865  0.01286  0.57273  1.0000
  C   C1797     1.0  0.45022  0.04728  0.58379  1.0000
  C   C1798     1.0  0.50302  0.05901  0.56045  1.0000
  H   H1799     1.0  0.43944  0.06177  0.73158  1.0000
  S   S598      1.0  0.41077  0.02435  0.60190  1.0000
  S   S599      1.0  0.40309  0.07405  0.68156  1.0000
  C   C1799     1.0  0.53386  0.04464  0.59594  1.0000
  C   C1800     1.0  0.48712  0.03246  0.56876  1.0000
  H   H1800     1.0  0.40486  0.01305  0.71893  1.0000
  Fe  Fe284     1.0  0.56624  0.05962  0.51231  1.0000
  H   H1801     1.0  0.44533  0.07886  0.67914  1.0000
  H   H1802     1.0  0.41911  0.99774  0.58665  1.0000
  H   H1803     1.0  0.47832  0.03541  0.56869  1.0000
  C   C1801     1.0  0.54668  0.03080  0.58741  1.0000
  C   C1802     1.0  0.39823  0.03433  0.62741  1.0000
  C   C1803     1.0  0.40384  0.01391  0.71069  1.0000
  H   H1804     1.0  0.45269  0.04032  0.57996  1.0000
  Fe  Fe285     1.0  0.58483  0.05179  0.52418  1.0000
  S   S600      1.0  0.40767  0.05427  0.60410  1.0000
  H   H1805     1.0  0.55314  0.05575  0.57559  1.0000
  C   C1804     1.0  0.42317  0.03836  0.73508  1.0000
  C   C1805     1.0  0.58200  0.08430  0.50072  1.0000
  H   H1806     1.0  0.44193  0.07330  0.59592  1.0000
  C   C1806     1.0  0.39570  0.02542  0.59079  1.0000
  H   H1807     1.0  0.49075  0.02672  0.56307  1.0000
  H   H1808     1.0  0.43795  0.08154  0.66224  1.0000
  H   H1809     1.0  0.45138  0.02266  0.60128  1.0000
  N   N152      1.0  0.53751  0.03386  0.59510  1.0000
  S   S601      1.0  0.40152  0.99004  0.68909  1.0000
  H   H1810     1.0  0.50766  0.03269  0.55786  1.0000
  H   H1811     1.0  0.50717  0.06568  0.55865  1.0000
  C   C1807     1.0  0.45140  0.02040  0.59382  1.0000
  C   C1808     1.0  0.39813  0.06952  0.62449  1.0000
  H   H1812     1.0  0.43307  0.00695  0.63323  1.0000
  H   H1813     1.0  0.45606  0.99231  0.63582  1.0000
  C   C1809     1.0  0.43737  0.06416  0.58702  1.0000
  C   C1810     1.0  0.41836  0.09018  0.61661  1.0000
  C   C1811     1.0  0.56777  0.01719  0.48836  1.0000
  H   H1814     1.0  0.46888  0.01140  0.57165  1.0000
  C   C1812     1.0  0.40374  0.06957  0.63219  1.0000
  S   S602      1.0  0.38862  0.06093  0.56408  1.0000
  H   H1815     1.0  0.53606  0.01722  0.60279  1.0000
  H   H1816     1.0  0.42661  0.08063  0.70020  1.0000
  C   C1813     1.0  0.44038  0.05478  0.58264  1.0000
  H   H1817     1.0  0.51706  0.04810  0.55296  1.0000
  H   H1818     1.0  0.43396  0.02438  0.59625  1.0000
  H   H1819     1.0  0.41117  0.02984  0.71990  1.0000
  C   C1814     1.0  0.44019  0.05591  0.67802  1.0000
  C   C1815     1.0  0.40158  0.01889  0.59868  1.0000
  H   H1820     1.0  0.52755  0.02729  0.61036  1.0000
  H   H1821     1.0  0.55847  0.05566  0.49278  1.0000
  S   S603      1.0  0.40012  0.00221  0.66038  1.0000
  C   C1816     1.0  0.44161  0.02144  0.59088  1.0000
  H   H1822     1.0  0.58055  0.00020  0.50622  1.0000
  C   C1817     1.0  0.48704  0.05140  0.56876  1.0000
  H   H1823     1.0  0.42252  0.05611  0.66309  1.0000
  C   C1818     1.0  0.41230  0.01596  0.70156  1.0000
  C   C1819     1.0  0.42239  0.07841  0.73356  1.0000
  C   C1820     1.0  0.49222  0.06015  0.56630  1.0000
  C   C1821     1.0  0.44906  0.07043  0.67767  1.0000
  H   H1824     1.0  0.53845  0.00373  0.49122  1.0000
  H   H1825     1.0  0.43523  0.05344  0.57814  1.0000
  S   S604      1.0  0.58296  0.01998  0.51047  1.0000
  H   H1826     1.0  0.47865  0.05237  0.57334  1.0000
  H   H1827     1.0  0.40372  0.00364  0.61081  1.0000
  H   H1828     1.0  0.45572  0.00028  0.71964  1.0000
  C   C1822     1.0  0.41699  0.02975  0.72443  1.0000
  C   C1823     1.0  0.54891  0.04957  0.58126  1.0000
  H   H1829     1.0  0.53361  0.99436  0.55120  1.0000
  N   N153      1.0  0.44170  0.06644  0.67380  1.0000
  H   H1830     1.0  0.38834  0.99777  0.60809  1.0000
  C   C1824     1.0  0.50857  0.04912  0.55729  1.0000
  C   C1825     1.0  0.43532  0.00125  0.62783  1.0000
  N   N154      1.0  0.44167  0.01891  0.58130  1.0000
  H   H1831     1.0  0.42707  0.08759  0.61607  1.0000
  H   H1832     1.0  0.48795  0.06769  0.56909  1.0000
  H   H1833     1.0  0.44018  0.01414  0.73207  1.0000
  H   H1834     1.0  0.44779  0.99551  0.70687  1.0000
  H   H1835     1.0  0.41761  0.01809  0.68394  1.0000
  H   H1836     1.0  0.42724  0.01416  0.72148  1.0000
  H   H1837     1.0  0.43182  0.04379  0.67782  1.0000
  H   H1838     1.0  0.42446  0.07677  0.72536  1.0000
  C   C1826     1.0  0.43328  0.05203  0.67423  1.0000
  S   S605      1.0  0.40533  0.07242  0.65163  1.0000
  C   C1827     1.0  0.45131  0.01528  0.57446  1.0000
  C   C1828     1.0  0.46126  0.01693  0.58678  1.0000
  N   N155      1.0  0.49252  0.04173  0.56559  1.0000
  C   C1829     1.0  0.50320  0.04045  0.56008  1.0000
  H   H1839     1.0  0.56586  0.98989  0.51372  1.0000
  H   H1840     1.0  0.40608  0.02990  0.62358  1.0000
  H   H1841     1.0  0.39785  0.03302  0.58574  1.0000
  C   C1830     1.0  0.53953  0.05264  0.58908  1.0000
  H   H1842     1.0  0.41993  0.01680  0.70260  1.0000
  H   H1843     1.0  0.39355  0.07301  0.73047  1.0000
  C   C1831     1.0  0.40113  0.01562  0.68977  1.0000
  H   H1844     1.0  0.40856  0.04531  0.72868  1.0000
  H   H1845     1.0  0.51465  0.99674  0.56239  1.0000
  C   C1832     1.0  0.55639  0.00044  0.52487  1.0000
  H   H1846     1.0  0.47407  0.99646  0.72122  1.0000
  C   C1833     1.0  0.44839  0.98932  0.63884  1.0000
  H   H1847     1.0  0.55954  0.03623  0.57401  1.0000
  C   C1834     1.0  0.40015  0.09643  0.62674  1.0000
  S   S606      1.0  0.44213  0.99215  0.58539  1.0000
  C   C1835     1.0  0.39735  0.03934  0.63593  1.0000
  H   H1848     1.0  0.54933  0.02237  0.58638  1.0000
  H   H1849     1.0  0.44313  0.99328  0.64567  1.0000
  H   H1850     1.0  0.50379  0.07577  0.70950  1.0000
  S   S607      1.0  0.39505  0.07406  0.58635  1.0000
  H   H1851     1.0  0.39470  0.10116  0.59578  1.0000
  H   H1852     1.0  0.42174  0.98899  0.65941  1.0000
  C   C1836     1.0  0.38813  0.08010  0.72681  1.0000
  C   C1837     1.0  0.39045  0.00545  0.60320  1.0000
  C   C1838     1.0  0.43008  0.00365  0.61914  1.0000
  C   C1839     1.0  0.54083  0.00962  0.49442  1.0000
  H   H1853     1.0  0.55368  0.01727  0.50175  1.0000
  H   H1854     1.0  0.53494  0.01764  0.49295  1.0000
  C   C1840     1.0  0.50812  0.06267  0.73296  1.0000
  S   S608      1.0  0.46729  0.98960  0.59584  1.0000
  C   C1841     1.0  0.42235  0.98985  0.58436  1.0000
  Fe  Fe286     1.0  0.48185  0.98895  0.58172  1.0000
  C   C1842     1.0  0.44027  0.06733  0.73630  1.0000
  H   H1855     1.0  0.50476  0.06116  0.71477  1.0000
  H   H1856     1.0  0.38953  0.02608  0.66215  1.0000
  Fe  Fe287     1.0  0.39424  0.98979  0.67534  1.0000
  H   H1857     1.0  0.57211  0.02043  0.49228  1.0000
  H   H1858     1.0  0.41950  0.08748  0.60068  1.0000
  C   C1843     1.0  0.39845  0.09270  0.59974  1.0000
  H   H1859     1.0  0.48273  0.99387  0.62945  1.0000
  H   H1860     1.0  0.42382  0.01108  0.61783  1.0000
  N   N156      1.0  0.44291  0.99165  0.62975  1.0000
  N   N157      1.0  0.39286  0.01364  0.69876  1.0000
  H   H1861     1.0  0.51251  0.05518  0.73013  1.0000
  C   C1844     1.0  0.49562  0.07996  0.73072  1.0000
  C   C1845     1.0  0.55735  0.01534  0.49369  1.0000
  H   H1862     1.0  0.44581  0.07272  0.73083  1.0000
  H   H1863     1.0  0.39136  0.07466  0.71169  1.0000
  S   S609      1.0  0.54526  0.99416  0.52930  1.0000
  N   N158      1.0  0.50147  0.07071  0.72693  1.0000
  H   H1864     1.0  0.49018  0.08622  0.72606  1.0000
  H   H1865     1.0  0.38961  0.03131  0.61703  1.0000
  C   C1846     1.0  0.55660  0.06308  0.48662  1.0000
  Fe  Fe288     1.0  0.40371  0.98879  0.65135  1.0000
  S   S610      1.0  0.46803  0.99793  0.86101  1.0000
  H   H1866     1.0  0.42380  0.01764  0.86461  1.0000
  S   S611      1.0  0.41009  0.39024  0.93967  1.0000
  C   C1847     1.0  0.42308  0.26884  0.95818  1.0000
  H   H1867     1.0  0.39455  0.09653  0.96349  1.0000
  H   H1868     1.0  0.49705  0.35971  0.96758  1.0000
  C   C1848     1.0  0.39171  0.01757  0.74512  1.0000
  C   C1849     1.0  0.47810  0.06232  0.74016  1.0000
  H   H1869     1.0  0.42558  0.00575  0.85930  1.0000
  S   S612      1.0  0.48139  0.99140  0.77068  1.0000
  H   H1870     1.0  0.42691  0.17456  0.98428  1.0000
  C   C1850     1.0  0.39672  0.01241  0.88724  1.0000
  Fe  Fe289     1.0  0.45112  0.41383  0.95623  1.0000
  S   S613      1.0  0.46742  0.40479  0.94805  1.0000
  S   S614      1.0  0.43485  0.41976  0.95131  1.0000
  Fe  Fe290     1.0  0.45929  0.41364  0.97593  1.0000
  S   S615      1.0  0.47606  0.40425  0.96982  1.0000
  S   S616      1.0  0.39479  0.04847  0.87944  1.0000
  Fe  Fe291     1.0  0.47462  0.41586  0.95349  1.0000
  S   S617      1.0  0.48950  0.42266  0.94309  1.0000
  Fe  Fe292     1.0  0.46758  0.39408  0.96502  1.0000
  S   S618      1.0  0.47211  0.37550  0.96980  1.0000
  S   S619      1.0  0.45827  0.42593  0.96003  1.0000
  S   S620      1.0  0.45093  0.40239  0.97280  1.0000
  H   H1871     1.0  0.46365  0.00909  0.74943  1.0000
  Fe  Fe293     1.0  0.51922  0.46687  0.94993  1.0000
  C   C1851     1.0  0.41706  0.08293  0.75437  1.0000
  H   H1872     1.0  0.39478  0.35529  0.94649  1.0000
  H   H1873     1.0  0.42988  0.00426  0.87183  1.0000
  H   H1874     1.0  0.50547  0.30130  0.96882  1.0000
  Fe  Fe294     1.0  0.39403  0.10207  0.92344  1.0000
  S   S621      1.0  0.41016  0.29469  0.94228  1.0000
  S   S622      1.0  0.39839  0.14248  0.91187  1.0000
  H   H1875     1.0  0.39414  0.20613  0.97034  1.0000
  H   H1876     1.0  0.42802  0.28471  0.92454  1.0000
  C   C1852     1.0  0.46930  0.10677  0.98392  1.0000
  Fe  Fe295     1.0  0.40369  0.19544  0.95489  1.0000
  S   S623      1.0  0.41464  0.19047  0.96675  1.0000
  Fe  Fe296     1.0  0.40325  0.20591  0.93119  1.0000
  N   N159      1.0  0.41281  0.00714  0.87370  1.0000
  S   S624      1.0  0.41345  0.21367  0.91542  1.0000
  N   N160      1.0  0.58029  0.48844  0.91494  1.0000
  H   H1877     1.0  0.40961  0.25211  0.93377  1.0000
  H   H1878     1.0  0.41897  0.09003  0.96077  1.0000
  C   C1853     1.0  0.39384  0.27860  0.98301  1.0000
  S   S625      1.0  0.40055  0.21301  0.94586  1.0000
  S   S626      1.0  0.40784  0.18830  0.93998  1.0000
  Fe  Fe297     1.0  0.44430  0.24036  0.96243  1.0000
  S   S627      1.0  0.46134  0.23041  0.96148  1.0000
  S   S628      1.0  0.43524  0.24628  0.97784  1.0000
  Fe  Fe298     1.0  0.44385  0.23914  0.93958  1.0000
  S   S629      1.0  0.46084  0.22884  0.93663  1.0000
  S   S630      1.0  0.43428  0.24648  0.92637  1.0000
  Fe  Fe299     1.0  0.45584  0.21968  0.95415  1.0000
  S   S631      1.0  0.45812  0.20149  0.96183  1.0000
  Fe  Fe300     1.0  0.46468  0.24057  0.94421  1.0000
  S   S632      1.0  0.47853  0.24928  0.93638  1.0000
  S   S633      1.0  0.43843  0.22902  0.95640  1.0000
  S   S634      1.0  0.44809  0.25139  0.94587  1.0000
  Fe  Fe301     1.0  0.46296  0.31011  0.94131  1.0000
  S   S635      1.0  0.45956  0.30037  0.95860  1.0000
  S   S636      1.0  0.46756  0.30143  0.92726  1.0000
  Fe  Fe302     1.0  0.45971  0.33154  0.94898  1.0000
  S   S637      1.0  0.45616  0.32319  0.96688  1.0000
  S   S638      1.0  0.45761  0.34994  0.94342  1.0000
  Fe  Fe303     1.0  0.47002  0.30966  0.96159  1.0000
  S   S639      1.0  0.48380  0.30011  0.96958  1.0000
  Fe  Fe304     1.0  0.44614  0.31494  0.96172  1.0000
  S   S640      1.0  0.42962  0.31256  0.97150  1.0000
  S   S641      1.0  0.47444  0.31859  0.94403  1.0000
  S   S642      1.0  0.44870  0.32422  0.94411  1.0000
  H   H1879     1.0  0.45494  0.02767  0.77454  1.0000
  C   C1854     1.0  0.48942  0.34117  0.94661  1.0000
  Fe  Fe305     1.0  0.41125  0.10559  0.93276  1.0000
  S   S643      1.0  0.40817  0.11038  0.91577  1.0000
  S   S644      1.0  0.42825  0.09989  0.93533  1.0000
  S   S645      1.0  0.40103  0.12108  0.93759  1.0000
  H   H1880     1.0  0.51179  0.99530  0.79239  1.0000
  Fe  Fe306     1.0  0.46949  0.15062  0.93765  1.0000
  S   S646      1.0  0.48377  0.13692  0.93367  1.0000
  S   S647      1.0  0.47153  0.16809  0.93052  1.0000
  Fe  Fe307     1.0  0.45469  0.13476  0.94960  1.0000
  S   S648      1.0  0.46781  0.11976  0.94698  1.0000
  S   S649      1.0  0.43751  0.13306  0.95716  1.0000
  Fe  Fe308     1.0  0.47805  0.12852  0.95130  1.0000
  S   S650      1.0  0.49028  0.11908  0.96164  1.0000
  Fe  Fe309     1.0  0.47210  0.12955  0.92968  1.0000
  S   S651      1.0  0.47423  0.12443  0.91364  1.0000
  S   S652      1.0  0.46449  0.14267  0.95556  1.0000
  S   S653      1.0  0.45833  0.14409  0.93216  1.0000
  H   H1881     1.0  0.50766  0.10550  0.89863  1.0000
  H   H1882     1.0  0.42970  0.16759  0.96762  1.0000
  H   H1883     1.0  0.39882  0.06228  0.79339  1.0000
  C   C1855     1.0  0.50894  0.06375  0.74313  1.0000
  S   S654      1.0  0.42538  0.03494  0.87462  1.0000
  Fe  Fe310     1.0  0.47893  0.07081  0.87158  1.0000
  S   S655      1.0  0.46817  0.05960  0.87315  1.0000
  S   S656      1.0  0.48899  0.07525  0.85449  1.0000
  Fe  Fe311     1.0  0.47176  0.07169  0.89582  1.0000
  S   S657      1.0  0.46036  0.06039  0.89938  1.0000
  S   S658      1.0  0.47289  0.07691  0.91073  1.0000
  Fe  Fe312     1.0  0.47375  0.05052  0.88864  1.0000
  S   S659      1.0  0.47706  0.03207  0.89246  1.0000
  Fe  Fe313     1.0  0.45582  0.07034  0.88360  1.0000
  S   S660      1.0  0.43861  0.07501  0.88179  1.0000
  S   S661      1.0  0.48572  0.06080  0.88635  1.0000
  S   S662      1.0  0.46601  0.08261  0.88076  1.0000
  S   S663      1.0  0.45479  0.00476  0.78979  1.0000
  Fe  Fe314     1.0  0.46598  0.06556  0.80880  1.0000
  S   S664      1.0  0.46077  0.04956  0.81357  1.0000
  S   S665      1.0  0.46037  0.07426  0.82288  1.0000
  Fe  Fe315     1.0  0.45346  0.05584  0.79880  1.0000
  S   S666      1.0  0.43695  0.05297  0.80086  1.0000
  Fe  Fe316     1.0  0.47596  0.04383  0.80170  1.0000
  S   S667      1.0  0.48400  0.02594  0.80558  1.0000
  S   S668      1.0  0.45716  0.07244  0.79496  1.0000
  H   H1884     1.0  0.48140  0.14854  0.96342  1.0000
  H   H1885     1.0  0.47182  0.03487  0.76622  1.0000
  C   C1856     1.0  0.38873  0.23653  0.92183  1.0000
  C   C1857     1.0  0.43246  0.38328  0.97329  1.0000
  C   C1858     1.0  0.44279  0.19676  0.92320  1.0000
  C   C1859     1.0  0.39639  0.05937  0.80220  1.0000
  S   S669      1.0  0.48353  0.99399  0.83690  1.0000
  H   H1886     1.0  0.43283  0.07288  0.75592  1.0000
  H   H1887     1.0  0.40554  0.12962  0.97735  1.0000
  H   H1888     1.0  0.38974  0.10362  0.89668  1.0000
  H   H1889     1.0  0.44541  0.08949  0.95291  1.0000
  H   H1890     1.0  0.43454  0.18337  0.92747  1.0000
  H   H1891     1.0  0.42362  0.33240  0.95365  1.0000
  H   H1892     1.0  0.42611  0.03672  0.83710  1.0000
  C   C1860     1.0  0.38870  0.01117  0.79970  1.0000
  C   C1861     1.0  0.42996  0.04922  0.76977  1.0000
  C   C1862     1.0  0.44018  0.05086  0.76937  1.0000
  C   C1863     1.0  0.44244  0.05205  0.77889  1.0000
  C   C1864     1.0  0.43462  0.05124  0.78884  1.0000
  C   C1865     1.0  0.42462  0.04919  0.78923  1.0000
  C   C1866     1.0  0.42224  0.04831  0.77972  1.0000
  H   H1893     1.0  0.44620  0.05157  0.76170  1.0000
  H   H1894     1.0  0.45010  0.05384  0.77844  1.0000
  H   H1895     1.0  0.41859  0.04850  0.79686  1.0000
  H   H1896     1.0  0.41434  0.04702  0.78013  1.0000
  C   C1867     1.0  0.46283  0.01009  0.79486  1.0000
  C   C1868     1.0  0.45853  0.02008  0.79816  1.0000
  C   C1869     1.0  0.46486  0.02450  0.80212  1.0000
  C   C1870     1.0  0.47569  0.01924  0.80237  1.0000
  C   C1871     1.0  0.47996  0.00909  0.79927  1.0000
  C   C1872     1.0  0.47352  0.00453  0.79550  1.0000
  H   H1897     1.0  0.45033  0.02453  0.79754  1.0000
  H   H1898     1.0  0.46130  0.03211  0.80480  1.0000
  H   H1899     1.0  0.41500  0.08449  0.76260  1.0000
  H   H1900     1.0  0.47688  0.99680  0.79296  1.0000
  C   C1873     1.0  0.48134  0.07535  0.84525  1.0000
  C   C1874     1.0  0.46998  0.07814  0.84821  1.0000
  C   C1875     1.0  0.46374  0.07787  0.84118  1.0000
  C   C1876     1.0  0.46876  0.07466  0.83115  1.0000
  C   C1877     1.0  0.48015  0.07188  0.82809  1.0000
  C   C1878     1.0  0.48644  0.07230  0.83511  1.0000
  H   H1901     1.0  0.46597  0.08067  0.85591  1.0000
  H   H1902     1.0  0.45496  0.08017  0.84355  1.0000
  H   H1903     1.0  0.48408  0.06957  0.82027  1.0000
  H   H1904     1.0  0.49523  0.07017  0.83277  1.0000
  C   C1879     1.0  0.42847  0.04544  0.87858  1.0000
  C   C1880     1.0  0.42115  0.05566  0.87837  1.0000
  C   C1881     1.0  0.42416  0.06462  0.87977  1.0000
  C   C1882     1.0  0.43444  0.06336  0.88164  1.0000
  C   C1883     1.0  0.44142  0.05292  0.88285  1.0000
  C   C1884     1.0  0.43847  0.04396  0.88126  1.0000
  H   H1905     1.0  0.41317  0.05679  0.87702  1.0000
  H   H1906     1.0  0.41856  0.07258  0.87919  1.0000
  H   H1907     1.0  0.44917  0.05173  0.88486  1.0000
  H   H1908     1.0  0.44402  0.03599  0.88188  1.0000
  C   C1885     1.0  0.48779  0.01874  0.86108  1.0000
  C   C1886     1.0  0.48277  0.01264  0.87102  1.0000
  C   C1887     1.0  0.47954  0.01677  0.88063  1.0000
  C   C1888     1.0  0.48123  0.02705  0.88033  1.0000
  C   C1889     1.0  0.48626  0.03316  0.87040  1.0000
  C   C1890     1.0  0.48962  0.02896  0.86080  1.0000
  C   C1891     1.0  0.40038  0.00872  0.74293  1.0000
  H   H1909     1.0  0.47556  0.01214  0.88828  1.0000
  H   H1910     1.0  0.48777  0.04102  0.87016  1.0000
  H   H1911     1.0  0.49364  0.03364  0.85319  1.0000
  H   H1912     1.0  0.50770  0.41009  0.95528  1.0000
  C   C1892     1.0  0.47226  0.11159  0.91339  1.0000
  C   C1893     1.0  0.47151  0.10984  0.90342  1.0000
  C   C1894     1.0  0.47118  0.09935  0.90258  1.0000
  C   C1895     1.0  0.47179  0.09051  0.91168  1.0000
  C   C1896     1.0  0.47222  0.09233  0.92172  1.0000
  C   C1897     1.0  0.47239  0.10285  0.92260  1.0000
  H   H1913     1.0  0.47148  0.11656  0.89623  1.0000
  H   H1914     1.0  0.47088  0.09802  0.89480  1.0000
  H   H1915     1.0  0.47269  0.08552  0.92880  1.0000
  H   H1916     1.0  0.47304  0.10408  0.93029  1.0000
  C   C1898     1.0  0.49151  0.12362  0.97274  1.0000
  C   C1899     1.0  0.50163  0.12038  0.97561  1.0000
  S   S670      1.0  0.42088  0.99640  0.74347  1.0000
  H   H1917     1.0  0.41359  0.99314  0.86770  1.0000
  C   C1900     1.0  0.39232  0.08635  0.90433  1.0000
  C   C1901     1.0  0.48252  0.12921  0.97944  1.0000
  H   H1918     1.0  0.50858  0.11597  0.97054  1.0000
  C   C1902     1.0  0.49507  0.09772  0.87585  1.0000
  H   H1919     1.0  0.50330  0.47506  0.91861  1.0000
  H   H1920     1.0  0.47461  0.13154  0.97742  1.0000
  S   S671      1.0  0.53199  0.46187  0.95997  1.0000
  H   H1921     1.0  0.43271  0.38746  0.93962  1.0000
  C   C1903     1.0  0.48755  0.36084  0.94060  1.0000
  C   C1904     1.0  0.47943  0.06485  0.75766  1.0000
  C   C1905     1.0  0.43054  0.10948  0.94109  1.0000
  C   C1906     1.0  0.42271  0.11351  0.94973  1.0000
  C   C1907     1.0  0.42481  0.12086  0.95459  1.0000
  C   C1908     1.0  0.43464  0.12435  0.95068  1.0000
  C   C1909     1.0  0.44230  0.12056  0.94182  1.0000
  C   C1910     1.0  0.44036  0.11296  0.93718  1.0000
  H   H1922     1.0  0.41519  0.11064  0.95295  1.0000
  H   H1923     1.0  0.41895  0.12367  0.96151  1.0000
  H   H1924     1.0  0.44974  0.12346  0.93847  1.0000
  H   H1925     1.0  0.44642  0.10990  0.93047  1.0000
  S   S672      1.0  0.39813  0.09619  0.94026  1.0000
  H   H1926     1.0  0.40166  0.09225  0.75054  1.0000
  H   H1927     1.0  0.39182  0.01812  0.89241  1.0000
  H   H1928     1.0  0.42979  0.04637  0.82440  1.0000
  H   H1929     1.0  0.40999  0.02071  0.88117  1.0000
  C   C1911     1.0  0.39770  0.09527  0.97930  1.0000
  H   H1930     1.0  0.39618  0.33546  0.94998  1.0000
  Fe  Fe317     1.0  0.38823  0.04676  0.75999  1.0000
  H   H1931     1.0  0.41129  0.40522  0.97457  1.0000
  H   H1932     1.0  0.41900  0.26695  0.94399  1.0000
  H   H1933     1.0  0.43602  0.02769  0.75113  1.0000
  C   C1912     1.0  0.46180  0.19232  0.95304  1.0000
  C   C1913     1.0  0.45892  0.18206  0.95704  1.0000
  C   C1914     1.0  0.46174  0.17459  0.95015  1.0000
  C   C1915     1.0  0.46752  0.17735  0.93928  1.0000
  C   C1916     1.0  0.47041  0.18760  0.93530  1.0000
  C   C1917     1.0  0.46758  0.19508  0.94217  1.0000
  H   H1934     1.0  0.45442  0.17990  0.96545  1.0000
  H   H1935     1.0  0.45942  0.16673  0.95325  1.0000
  H   H1936     1.0  0.47493  0.18972  0.92689  1.0000
  H   H1937     1.0  0.46990  0.20296  0.93907  1.0000
  H   H1938     1.0  0.45219  0.15008  0.97971  1.0000
  C   C1918     1.0  0.45128  0.25764  0.97256  1.0000
  C   C1919     1.0  0.45830  0.26253  0.97503  1.0000
  C   C1920     1.0  0.40898  0.99851  0.87327  1.0000
  C   C1921     1.0  0.46534  0.01493  0.75296  1.0000
  C   C1922     1.0  0.51204  0.99481  0.80082  1.0000
  H   H1939     1.0  0.45179  0.25760  0.96412  1.0000
  H   H1940     1.0  0.46416  0.26634  0.96848  1.0000
  N   N161      1.0  0.50880  0.42281  0.97433  1.0000
  S   S673      1.0  0.48215  0.05933  0.79801  1.0000
  C   C1923     1.0  0.47423  0.26375  0.93371  1.0000
  C   C1924     1.0  0.46803  0.26912  0.94218  1.0000
  C   C1925     1.0  0.46588  0.28068  0.94035  1.0000
  C   C1926     1.0  0.46961  0.28695  0.92990  1.0000
  C   C1927     1.0  0.47546  0.28156  0.92133  1.0000
  C   C1928     1.0  0.47796  0.27002  0.92328  1.0000
  H   H1941     1.0  0.46534  0.26430  0.95027  1.0000
  H   H1942     1.0  0.46131  0.28469  0.94699  1.0000
  H   H1943     1.0  0.47834  0.28633  0.91322  1.0000
  H   H1944     1.0  0.48280  0.26594  0.91669  1.0000
  H   H1945     1.0  0.48037  0.99435  0.90248  1.0000
  C   C1929     1.0  0.51139  0.43285  0.97504  1.0000
  H   H1946     1.0  0.41833  0.02736  0.80552  1.0000
  N   N162      1.0  0.42631  0.13968  0.92414  1.0000
  H   H1947     1.0  0.43742  0.14807  0.92571  1.0000
  C   C1930     1.0  0.41024  0.00763  0.74571  1.0000
  H   H1948     1.0  0.56245  0.47273  0.91806  1.0000
  C   C1931     1.0  0.48512  0.32309  0.98426  1.0000
  H   H1949     1.0  0.47435  0.99224  0.89244  1.0000
  C   C1932     1.0  0.42006  0.22232  0.91812  1.0000
  C   C1933     1.0  0.42281  0.22004  0.92832  1.0000
  C   C1934     1.0  0.42731  0.22738  0.93085  1.0000
  C   C1935     1.0  0.42918  0.23698  0.92311  1.0000
  C   C1936     1.0  0.42659  0.23922  0.91282  1.0000
  C   C1937     1.0  0.42212  0.23184  0.91029  1.0000
  H   H1950     1.0  0.42156  0.21253  0.93424  1.0000
  H   H1951     1.0  0.42915  0.22570  0.93886  1.0000
  H   H1952     1.0  0.42800  0.24668  0.90682  1.0000
  H   H1953     1.0  0.42000  0.23364  0.90238  1.0000
  H   H1954     1.0  0.49079  0.09935  0.98263  1.0000
  H   H1955     1.0  0.58311  0.47617  0.94436  1.0000
  C   C1938     1.0  0.41522  0.38660  0.96904  1.0000
  H   H1956     1.0  0.49486  0.33388  0.96171  1.0000
  H   H1957     1.0  0.47260  0.31788  0.98057  1.0000
  H   H1958     1.0  0.44881  0.29988  0.98171  1.0000
  C   C1939     1.0  0.50368  0.31398  0.97738  1.0000
  H   H1959     1.0  0.43224  0.12107  0.90835  1.0000
  C   C1940     1.0  0.43783  0.19601  0.94563  1.0000
  C   C1941     1.0  0.39380  0.07572  0.90268  1.0000
  H   H1960     1.0  0.46964  0.07668  0.74693  1.0000
  C   C1942     1.0  0.56548  0.48009  0.91675  1.0000
  C   C1943     1.0  0.42712  0.07634  0.75055  1.0000
  C   C1944     1.0  0.39202  0.08315  0.88367  1.0000
  N   N163      1.0  0.50792  0.00344  0.81614  1.0000
  H   H1961     1.0  0.43184  0.00938  0.80636  1.0000
  C   C1945     1.0  0.39248  0.10026  0.97050  1.0000
  C   C1946     1.0  0.41530  0.29959  0.95066  1.0000
  C   C1947     1.0  0.42512  0.30303  0.94630  1.0000
  C   C1948     1.0  0.42970  0.30648  0.95291  1.0000
  C   C1949     1.0  0.42420  0.30719  0.96371  1.0000
  C   C1950     1.0  0.41439  0.30372  0.96815  1.0000
  C   C1951     1.0  0.41004  0.29973  0.96167  1.0000
  H   H1962     1.0  0.42930  0.30284  0.93784  1.0000
  H   H1963     1.0  0.43752  0.30852  0.94956  1.0000
  H   H1964     1.0  0.41019  0.30396  0.97660  1.0000
  H   H1965     1.0  0.40274  0.29662  0.96528  1.0000
  C   C1952     1.0  0.49310  0.43363  0.94593  1.0000
  C   C1953     1.0  0.50294  0.43679  0.93998  1.0000
  C   C1954     1.0  0.50643  0.44486  0.94270  1.0000
  C   C1955     1.0  0.50002  0.44992  0.95133  1.0000
  C   C1956     1.0  0.49000  0.44709  0.95692  1.0000
  C   C1957     1.0  0.48659  0.43896  0.95430  1.0000
  H   H1966     1.0  0.50801  0.43276  0.93343  1.0000
  H   H1967     1.0  0.51417  0.44696  0.93829  1.0000
  H   H1968     1.0  0.48489  0.45107  0.96350  1.0000
  H   H1969     1.0  0.47891  0.43678  0.95878  1.0000
  C   C1958     1.0  0.41150  0.01537  0.75059  1.0000
  C   C1959     1.0  0.43166  0.01504  0.81123  1.0000
  C   C1960     1.0  0.45811  0.26192  0.98601  1.0000
  C   C1961     1.0  0.42518  0.16664  0.98516  1.0000
  H   H1970     1.0  0.45055  0.12533  0.90432  1.0000
  H   H1971     1.0  0.43124  0.36261  0.96269  1.0000
  H   H1972     1.0  0.47242  0.42619  0.97652  1.0000
  H   H1973     1.0  0.39771  0.17577  0.92348  1.0000
  C   C1962     1.0  0.46040  0.02534  0.76711  1.0000
  C   C1963     1.0  0.39030  0.05181  0.82510  1.0000
  C   C1964     1.0  0.46670  0.36869  0.96332  1.0000
  C   C1965     1.0  0.46739  0.35731  0.96704  1.0000
  C   C1966     1.0  0.46428  0.35151  0.96120  1.0000
  C   C1967     1.0  0.46043  0.35708  0.95163  1.0000
  C   C1968     1.0  0.45929  0.36853  0.94821  1.0000
  C   C1969     1.0  0.46241  0.37433  0.95404  1.0000
  H   H1974     1.0  0.47061  0.35292  0.97428  1.0000
  H   H1975     1.0  0.46521  0.34268  0.96389  1.0000
  H   H1976     1.0  0.45624  0.37290  0.94086  1.0000
  H   H1977     1.0  0.46178  0.38311  0.95115  1.0000
  S   S674      1.0  0.50411  0.45961  0.95574  1.0000
  H   H1978     1.0  0.39896  0.12703  0.96218  1.0000
  H   H1979     1.0  0.48510  0.36853  0.93494  1.0000
  C   C1970     1.0  0.39298  0.02532  0.75002  1.0000
  H   H1980     1.0  0.45863  0.20823  0.98059  1.0000
  Fe  Fe318     1.0  0.46723  0.99145  0.84707  1.0000
  C   C1971     1.0  0.43626  0.14222  0.92182  1.0000
  C   C1972     1.0  0.43605  0.28591  0.98521  1.0000
  C   C1973     1.0  0.47694  0.02601  0.75308  1.0000
  C   C1974     1.0  0.57647  0.47925  0.91623  1.0000
  S   S675      1.0  0.39940  0.05715  0.74822  1.0000
  H   H1981     1.0  0.56110  0.45812  0.97781  1.0000
  H   H1982     1.0  0.41520  0.08047  0.91863  1.0000
  C   C1975     1.0  0.54773  0.47178  0.97445  1.0000
  C   C1976     1.0  0.38894  0.00580  0.79161  1.0000
  H   H1983     1.0  0.40407  0.03037  0.75610  1.0000
  C   C1977     1.0  0.51014  0.42063  0.96425  1.0000
  H   H1984     1.0  0.50012  0.39744  0.97231  1.0000
  C   C1978     1.0  0.47486  0.15878  0.97525  1.0000
  C   C1979     1.0  0.42480  0.13236  0.91919  1.0000
  S   S676      1.0  0.39834  0.06718  0.76938  1.0000
  H   H1985     1.0  0.50919  0.46795  0.93045  1.0000
  C   C1980     1.0  0.42865  0.37015  0.96570  1.0000
  C   C1981     1.0  0.44511  0.13716  0.91459  1.0000
  H   H1986     1.0  0.50297  0.07380  0.75526  1.0000
  C   C1982     1.0  0.44726  0.09926  0.96289  1.0000
  H   H1987     1.0  0.43388  0.34735  0.94653  1.0000
  C   C1983     1.0  0.41698  0.39837  0.94302  1.0000
  C   C1984     1.0  0.41131  0.40808  0.94655  1.0000
  C   C1985     1.0  0.41694  0.41453  0.94901  1.0000
  C   C1986     1.0  0.42822  0.41119  0.94829  1.0000
  C   C1987     1.0  0.43386  0.40128  0.94512  1.0000
  C   C1988     1.0  0.42827  0.39498  0.94231  1.0000
  H   H1988     1.0  0.40263  0.41078  0.94711  1.0000
  H   H1989     1.0  0.41254  0.42219  0.95144  1.0000
  H   H1990     1.0  0.44255  0.39865  0.94451  1.0000
  S   S677      1.0  0.39045  0.08157  0.87109  1.0000
  H   H1991     1.0  0.43528  0.27733  0.98636  1.0000
  H   H1992     1.0  0.38939  0.10085  0.87855  1.0000
  C   C1989     1.0  0.39910  0.05700  0.82066  1.0000
  N   N164      1.0  0.49803  0.48302  0.93216  1.0000
  H   H1993     1.0  0.42185  0.09375  0.88869  1.0000
  C   C1990     1.0  0.49980  0.30750  0.97298  1.0000
  H   H1994     1.0  0.49441  0.01360  0.82456  1.0000
  H   H1995     1.0  0.42882  0.10541  0.98587  1.0000
  S   S678      1.0  0.56010  0.45420  0.93924  1.0000
  H   H1996     1.0  0.49155  0.16905  0.93972  1.0000
  N   N165      1.0  0.48570  0.16415  0.95712  1.0000
  C   C1991     1.0  0.40343  0.25342  0.92919  1.0000
  H   H1997     1.0  0.49570  0.10235  0.90890  1.0000
  H   H1998     1.0  0.49578  0.04071  0.75208  1.0000
  C   C1992     1.0  0.45813  0.01802  0.76240  1.0000
  H   H1999     1.0  0.48117  0.04918  0.82471  1.0000
  H   H2000     1.0  0.41077  0.27857  0.98055  1.0000
  H   H2001     1.0  0.40338  0.16338  0.91024  1.0000
  C   C1993     1.0  0.43928  0.01999  0.82360  1.0000
  C   C1994     1.0  0.42616  0.08442  0.96378  1.0000
  Fe  Fe319     1.0  0.52890  0.48628  0.93491  1.0000
  S   S679      1.0  0.42640  0.04914  0.75778  1.0000
  C   C1995     1.0  0.49052  0.48325  0.94193  1.0000
  C   C1996     1.0  0.48860  0.30892  0.97411  1.0000
  H   H2002     1.0  0.39483  0.06588  0.89129  1.0000
  H   H2003     1.0  0.41970  0.09368  0.98108  1.0000
  C   C1997     1.0  0.43918  0.01239  0.81784  1.0000
  C   C1998     1.0  0.50260  0.40452  0.97289  1.0000
  H   H2004     1.0  0.44891  0.13243  0.97873  1.0000
  C   C1999     1.0  0.43209  0.03777  0.82909  1.0000
  Fe  Fe320     1.0  0.38993  0.18880  0.94365  1.0000
  S   S680      1.0  0.49170  0.01369  0.84898  1.0000
  C   C2000     1.0  0.49620  0.08127  0.74089  1.0000
  H   H2005     1.0  0.39942  0.00271  0.73913  1.0000
  H   H2006     1.0  0.44633  0.10944  0.97390  1.0000
  C   C2001     1.0  0.44365  0.25274  0.98100  1.0000
  C   C2002     1.0  0.49632  0.32157  0.98323  1.0000
  H   H2007     1.0  0.51359  0.42599  0.95682  1.0000
  H   H2008     1.0  0.48443  0.02892  0.74964  1.0000
  C   C2003     1.0  0.41829  0.37676  0.96537  1.0000
  H   H2009     1.0  0.44518  0.00465  0.81818  1.0000
  C   C2004     1.0  0.50442  0.41603  0.98372  1.0000
  H   H2010     1.0  0.40804  0.32595  0.95368  1.0000
  H   H2011     1.0  0.40367  0.08763  0.97908  1.0000
  Fe  Fe321     1.0  0.39395  0.06467  0.86728  1.0000
  H   H2012     1.0  0.39466  0.23268  0.91520  1.0000
  Fe  Fe322     1.0  0.48504  0.99879  0.85162  1.0000
  H   H2013     1.0  0.40137  0.27109  0.92473  1.0000
  C   C2005     1.0  0.46936  0.04679  0.84848  1.0000
  C   C2006     1.0  0.40292  0.02430  0.75259  1.0000
  H   H2014     1.0  0.41275  0.37446  0.96205  1.0000
  H   H2015     1.0  0.44018  0.28857  0.97648  1.0000
  H   H2016     1.0  0.43589  0.19583  0.95439  1.0000
  C   C2007     1.0  0.44370  0.12945  0.90976  1.0000
  C   C2008     1.0  0.49532  0.08651  0.87992  1.0000
  N   N166      1.0  0.49741  0.09907  0.89315  1.0000
  H   H2017     1.0  0.45304  0.13907  0.91286  1.0000
  S   S681      1.0  0.39807  0.04097  0.77295  1.0000
  H   H2018     1.0  0.45482  0.10110  0.95751  1.0000
  C   C2009     1.0  0.39161  0.14246  0.98152  1.0000
  C   C2010     1.0  0.57234  0.45755  0.93895  1.0000
  N   N167      1.0  0.43224  0.27499  0.93944  1.0000
  C   C2011     1.0  0.42440  0.26994  0.94685  1.0000
  C   C2012     1.0  0.43885  0.27909  0.94301  1.0000
  H   H2019     1.0  0.45098  0.01455  0.76625  1.0000
  C   C2013     1.0  0.43779  0.27806  0.95429  1.0000
  C   C2014     1.0  0.42981  0.27296  0.96188  1.0000
  C   C2015     1.0  0.43317  0.27660  0.92757  1.0000
  C   C2016     1.0  0.42468  0.15249  0.97671  1.0000
  H   H2020     1.0  0.44485  0.28335  0.93712  1.0000
  C   C2017     1.0  0.48127  0.31688  0.97954  1.0000
  H   H2021     1.0  0.44298  0.28138  0.95710  1.0000
  S   S682      1.0  0.46828  0.04899  0.78718  1.0000
  H   H2022     1.0  0.44176  0.27632  0.92297  1.0000
  H   H2023     1.0  0.43052  0.27000  0.92576  1.0000
  C   C2018     1.0  0.41422  0.19804  0.98457  1.0000
  Fe  Fe323     1.0  0.52964  0.47994  0.95879  1.0000
  H   H2024     1.0  0.41860  0.04032  0.81621  1.0000
  H   H2025     1.0  0.42542  0.40529  0.97198  1.0000
  C   C2019     1.0  0.48664  0.35094  0.93904  1.0000
  H   H2026     1.0  0.48907  0.18018  0.95296  1.0000
  H   H2027     1.0  0.44888  0.03350  0.86240  1.0000
  H   H2028     1.0  0.50052  0.15768  0.94689  1.0000
  C   C2020     1.0  0.39073  0.09379  0.88524  1.0000
  H   H2029     1.0  0.51233  0.31276  0.97666  1.0000
  S   S683      1.0  0.45264  0.99566  0.83993  1.0000
  C   C2021     1.0  0.48648  0.05452  0.75927  1.0000
  H   H2030     1.0  0.43128  0.08023  0.95706  1.0000
  C   C2022     1.0  0.49890  0.10560  0.89999  1.0000
  H   H2031     1.0  0.46497  0.11549  0.98167  1.0000
  H   H2032     1.0  0.51793  0.43547  0.96795  1.0000
  N   N168      1.0  0.49241  0.27713  0.94238  1.0000
  C   C2023     1.0  0.49393  0.26613  0.94288  1.0000
  C   C2024     1.0  0.49097  0.25890  0.95294  1.0000
  C   C2025     1.0  0.48668  0.26295  0.96254  1.0000
  S   S684      1.0  0.47752  0.98949  0.74307  1.0000
  H   H2033     1.0  0.49710  0.26291  0.93545  1.0000
  H   H2034     1.0  0.49178  0.25027  0.95320  1.0000
  H   H2035     1.0  0.48425  0.25746  0.97039  1.0000
  H   H2036     1.0  0.48978  0.29265  0.93113  1.0000
  N   N169      1.0  0.42237  0.38983  0.97275  1.0000
  H   H2037     1.0  0.50410  0.02087  0.81454  1.0000
  H   H2038     1.0  0.39316  0.99724  0.79220  1.0000
  C   C2026     1.0  0.47959  0.43298  0.98544  1.0000
  H   H2039     1.0  0.40887  0.06485  0.80575  1.0000
  H   H2040     1.0  0.51389  0.05720  0.74808  1.0000
  C   C2027     1.0  0.43348  0.07422  0.84130  1.0000
  C   C2028     1.0  0.42855  0.07842  0.85081  1.0000
  H   H2041     1.0  0.44201  0.07009  0.84008  1.0000
  H   H2042     1.0  0.43316  0.07742  0.85693  1.0000
  H   H2043     1.0  0.43703  0.07720  0.81729  1.0000
  N   N170      1.0  0.42626  0.08711  0.90439  1.0000
  C   C2029     1.0  0.42326  0.08222  0.91528  1.0000
  C   C2030     1.0  0.43639  0.08941  0.90016  1.0000
  C   C2031     1.0  0.43050  0.07949  0.92224  1.0000
  C   C2032     1.0  0.44383  0.08678  0.90689  1.0000
  C   C2033     1.0  0.44086  0.08178  0.91799  1.0000
  C   C2034     1.0  0.41847  0.08985  0.89734  1.0000
  C   C2035     1.0  0.43573  0.37334  0.96983  1.0000
  H   H2044     1.0  0.43883  0.09311  0.89148  1.0000
  H   H2045     1.0  0.42804  0.07580  0.93091  1.0000
  H   H2046     1.0  0.45188  0.08851  0.90353  1.0000
  H   H2047     1.0  0.44656  0.07978  0.92328  1.0000
  H   H2048     1.0  0.41098  0.09561  0.90055  1.0000
  S   S685      1.0  0.51585  0.48480  0.95029  1.0000
  H   H2049     1.0  0.41630  0.08222  0.89714  1.0000
  N   N171      1.0  0.40868  0.34294  0.95023  1.0000
  C   C2036     1.0  0.41946  0.34072  0.95047  1.0000
  C   C2037     1.0  0.40337  0.35347  0.94646  1.0000
  C   C2038     1.0  0.42528  0.34913  0.94653  1.0000
  C   C2039     1.0  0.40893  0.36205  0.94247  1.0000
  C   C2040     1.0  0.41996  0.35985  0.94248  1.0000
  C   C2041     1.0  0.40263  0.33411  0.95455  1.0000
  H   H2050     1.0  0.48711  0.47610  0.94641  1.0000
  H   H2051     1.0  0.42336  0.07804  0.97101  1.0000
  H   H2052     1.0  0.50456  0.01187  0.80035  1.0000
  H   H2053     1.0  0.50728  0.01296  0.82746  1.0000
  H   H2054     1.0  0.42434  0.36648  0.93934  1.0000
  C   C2042     1.0  0.42354  0.00877  0.86703  1.0000
  C   C2043     1.0  0.39897  0.99655  0.87990  1.0000
  H   H2055     1.0  0.39423  0.27991  0.97432  1.0000
  N   N172      1.0  0.43209  0.09075  0.96684  1.0000
  C   C2044     1.0  0.42747  0.09516  0.97596  1.0000
  C   C2045     1.0  0.44189  0.09268  0.96035  1.0000
  C   C2046     1.0  0.39091  0.09539  0.89552  1.0000
  C   C2047     1.0  0.50791  0.00412  0.80540  1.0000
  C   C2048     1.0  0.44250  0.10394  0.97208  1.0000
  N   N173      1.0  0.49362  0.35123  0.95732  1.0000
  C   C2049     1.0  0.58281  0.46917  0.94157  1.0000
  C   C2050     1.0  0.48080  0.15647  0.96504  1.0000
  C   C2051     1.0  0.41925  0.40024  0.97637  1.0000
  S   S686      1.0  0.52902  0.48755  0.97245  1.0000
  H   H2056     1.0  0.49539  0.46793  0.93081  1.0000
  C   C2052     1.0  0.47418  0.16891  0.97744  1.0000
  H   H2057     1.0  0.49445  0.08164  0.87475  1.0000
  C   C2053     1.0  0.50287  0.07309  0.74713  1.0000
  H   H2058     1.0  0.48857  0.33346  0.94558  1.0000
  S   S687      1.0  0.54246  0.48292  0.94341  1.0000
  H   H2059     1.0  0.40340  0.23626  0.93252  1.0000
  C   C2054     1.0  0.48524  0.27416  0.96196  1.0000
  H   H2060     1.0  0.50474  0.34574  0.96794  1.0000
  H   H2061     1.0  0.41607  0.22491  0.98183  1.0000
  C   C2055     1.0  0.40871  0.19858  0.97658  1.0000
  Fe  Fe324     1.0  0.54379  0.46532  0.94369  1.0000
  H   H2062     1.0  0.49113  0.08833  0.74419  1.0000
  H   H2063     1.0  0.48177  0.27743  0.96936  1.0000
  C   C2056     1.0  0.47510  0.06868  0.74818  1.0000
  C   C2057     1.0  0.46988  0.02935  0.76247  1.0000
  C   C2058     1.0  0.48819  0.28117  0.95175  1.0000
  H   H2064     1.0  0.41358  0.08688  0.85989  1.0000
  C   C2059     1.0  0.39792  0.13466  0.97540  1.0000
  H   H2065     1.0  0.48142  0.00472  0.87132  1.0000
  N   N174      1.0  0.42763  0.07523  0.83370  1.0000
  C   C2060     1.0  0.43302  0.07096  0.82369  1.0000
  H   H2066     1.0  0.38832  0.23028  0.92973  1.0000
  C   C2061     1.0  0.49576  0.28461  0.93185  1.0000
  H   H2067     1.0  0.48701  0.28988  0.95136  1.0000
  C   C2062     1.0  0.49292  0.34147  0.95575  1.0000
  H   H2068     1.0  0.47078  0.15278  0.98146  1.0000
  C   C2063     1.0  0.40691  0.01395  0.88071  1.0000
  H   H2069     1.0  0.47398  0.02763  0.83382  1.0000
  H   H2070     1.0  0.41866  0.39855  0.98538  1.0000
  C   C2064     1.0  0.41760  0.08382  0.85242  1.0000
  N   N175      1.0  0.47451  0.01908  0.74832  1.0000
  H   H2071     1.0  0.43934  0.06336  0.82541  1.0000
  C   C2065     1.0  0.44353  0.20363  0.93808  1.0000
  C   C2066     1.0  0.40205  0.06085  0.80922  1.0000
  C   C2067     1.0  0.46016  0.04428  0.85643  1.0000
  H   H2072     1.0  0.45782  0.02274  0.84784  1.0000
  H   H2073     1.0  0.44745  0.02364  0.74031  1.0000
  H   H2074     1.0  0.42714  0.06882  0.82032  1.0000
  H   H2075     1.0  0.49610  0.28124  0.92473  1.0000
  C   C2068     1.0  0.42415  0.02511  0.81071  1.0000
  C   C2069     1.0  0.50138  0.40672  0.98316  1.0000
  H   H2076     1.0  0.48990  0.05156  0.76653  1.0000
  H   H2077     1.0  0.49055  0.34846  0.97474  1.0000
  H   H2078     1.0  0.44458  0.19707  0.91443  1.0000
  Fe  Fe325     1.0  0.46526  0.99063  0.78240  1.0000
  Fe  Fe326     1.0  0.41040  0.04292  0.86793  1.0000
  H   H2079     1.0  0.48844  0.15579  0.94420  1.0000
  Fe  Fe327     1.0  0.47280  0.06504  0.78442  1.0000
  C   C2070     1.0  0.39844  0.20559  0.97650  1.0000
  C   C2071     1.0  0.43259  0.10180  0.97872  1.0000
  C   C2072     1.0  0.41692  0.08064  0.83514  1.0000
  C   C2073     1.0  0.41175  0.08503  0.84451  1.0000
  Fe  Fe328     1.0  0.40815  0.05285  0.76182  1.0000
  H   H2080     1.0  0.50388  0.28603  0.93123  1.0000
  H   H2081     1.0  0.40982  0.14182  0.93354  1.0000
  C   C2074     1.0  0.49773  0.08806  0.89719  1.0000
  C   C2075     1.0  0.47175  0.42819  0.98427  1.0000
  H   H2082     1.0  0.51131  0.99291  0.83127  1.0000
  H   H2083     1.0  0.44804  0.21583  0.91186  1.0000
  H   H2084     1.0  0.41535  0.15393  0.92881  1.0000
  H   H2085     1.0  0.49599  0.11263  0.87937  1.0000
  H   H2086     1.0  0.58188  0.44405  0.93141  1.0000
  C   C2076     1.0  0.49191  0.16154  0.94648  1.0000
  H   H2087     1.0  0.49670  0.07297  0.89404  1.0000
  C   C2077     1.0  0.41733  0.14489  0.93203  1.0000
  H   H2088     1.0  0.41225  0.08135  0.82916  1.0000
  H   H2089     1.0  0.40317  0.08900  0.84584  1.0000
  C   C2078     1.0  0.47009  0.03237  0.84015  1.0000
  Fe  Fe329     1.0  0.39192  0.39234  0.94677  1.0000
  C   C2079     1.0  0.39890  0.26404  0.92402  1.0000
  H   H2090     1.0  0.46955  0.17076  0.98533  1.0000
  H   H2091     1.0  0.56522  0.47159  0.94645  1.0000
  C   C2080     1.0  0.39991  0.24448  0.92843  1.0000
  H   H2092     1.0  0.47263  0.05350  0.84877  1.0000
  H   H2093     1.0  0.54689  0.46924  0.96753  1.0000
  H   H2094     1.0  0.40472  0.37036  0.93937  1.0000
  C   C2081     1.0  0.50323  0.01319  0.82091  1.0000
  C   C2082     1.0  0.43711  0.18898  0.93053  1.0000
  S   S688      1.0  0.41005  0.05929  0.85634  1.0000
  H   H2095     1.0  0.41908  0.01445  0.75287  1.0000
  C   C2083     1.0  0.39429  0.13324  0.96685  1.0000
  H   H2096     1.0  0.49133  0.36865  0.95119  1.0000
  H   H2097     1.0  0.44536  0.01795  0.82847  1.0000
  H   H2098     1.0  0.48827  0.00488  0.79948  1.0000
  Fe  Fe330     1.0  0.39668  0.12532  0.92125  1.0000
  S   S689      1.0  0.39209  0.08778  0.91761  1.0000
  S   S690      1.0  0.53123  0.46881  0.93363  1.0000
  C   C2084     1.0  0.42436  0.03244  0.81674  1.0000
  C   C2085     1.0  0.46094  0.02959  0.84802  1.0000
  C   C2086     1.0  0.49109  0.36084  0.94982  1.0000
  H   H2099     1.0  0.49430  0.11428  0.89808  1.0000
  C   C2087     1.0  0.50696  0.41154  0.96335  1.0000
  H   H2100     1.0  0.48345  0.35090  0.93217  1.0000
  C   C2088     1.0  0.49668  0.35133  0.96734  1.0000
  H   H2101     1.0  0.46043  0.20800  0.91642  1.0000
  C   C2089     1.0  0.48381  0.04358  0.83216  1.0000
  H   H2102     1.0  0.48957  0.03604  0.82991  1.0000
  C   C2090     1.0  0.48980  0.04839  0.75108  1.0000
  Fe  Fe331     1.0  0.39264  0.29396  0.94882  1.0000
  C   C2091     1.0  0.42684  0.16270  0.97569  1.0000
  H   H2103     1.0  0.44374  0.36819  0.97027  1.0000
  H   H2104     1.0  0.44599  0.20932  0.94114  1.0000
  Fe  Fe332     1.0  0.40103  0.05364  0.84748  1.0000
  H   H2105     1.0  0.43015  0.18272  0.94760  1.0000
  H   H2106     1.0  0.39500  0.06866  0.90941  1.0000
  C   C2092     1.0  0.54037  0.48086  0.97812  1.0000
  H   H2107     1.0  0.45638  0.04900  0.86276  1.0000
  S   S691      1.0  0.40308  0.03645  0.85802  1.0000
  H   H2108     1.0  0.42887  0.27215  0.97064  1.0000
  C   C2093     1.0  0.49619  0.10391  0.88260  1.0000
  H   H2109     1.0  0.50402  0.43967  0.97499  1.0000
  C   C2094     1.0  0.43464  0.18862  0.94182  1.0000
  N   N176      1.0  0.44585  0.20401  0.92701  1.0000
  H   H2110     1.0  0.45148  0.21897  0.92281  1.0000
  C   C2095     1.0  0.45179  0.21207  0.91914  1.0000
  C   C2096     1.0  0.48519  0.17407  0.95923  1.0000
  N   N177      1.0  0.47428  0.04076  0.84056  1.0000
  H   H2111     1.0  0.40718  0.39174  0.96866  1.0000
  H   H2112     1.0  0.49399  0.10156  0.86751  1.0000
  H   H2113     1.0  0.42600  0.14930  0.96944  1.0000
  H   H2114     1.0  0.41961  0.14316  0.94007  1.0000
  H   H2115     1.0  0.41689  0.13052  0.92078  1.0000
  H   H2116     1.0  0.49854  0.08422  0.90560  1.0000
  H   H2117     1.0  0.43805  0.38575  0.97640  1.0000
  H   H2118     1.0  0.48637  0.43447  0.97864  1.0000
  C   C2097     1.0  0.51174  0.99356  0.82263  1.0000
  C   C2098     1.0  0.39375  0.07411  0.89239  1.0000
  H   H2119     1.0  0.48833  0.04773  0.83525  1.0000
  H   H2120     1.0  0.41684  0.26490  0.96406  1.0000
  C   C2099     1.0  0.47942  0.17661  0.96941  1.0000
  H   H2121     1.0  0.44033  0.03674  0.83047  1.0000
  S   S692      1.0  0.40691  0.05833  0.82909  1.0000
  C   C2100     1.0  0.43347  0.12706  0.91202  1.0000
  H   H2122     1.0  0.58188  0.47117  0.91705  1.0000
  C   C2101     1.0  0.45596  0.03559  0.85621  1.0000
  C   C2102     1.0  0.49667  0.08164  0.89066  1.0000
  C   C2103     1.0  0.57269  0.46659  0.94271  1.0000
  S   S693      1.0  0.47735  0.07363  0.76660  1.0000
  N   N178      1.0  0.43202  0.02993  0.82288  1.0000
  C   C2104     1.0  0.50165  0.47301  0.92777  1.0000
  C   C2105     1.0  0.39277  0.00361  0.88686  1.0000
  H   H2123     1.0  0.39870  0.33381  0.96340  1.0000
  C   C2106     1.0  0.39449  0.16846  0.92547  1.0000
  C   C2107     1.0  0.58206  0.45106  0.93428  1.0000
  C   C2108     1.0  0.55587  0.46556  0.98017  1.0000
  C   C2109     1.0  0.39767  0.16146  0.91799  1.0000
  H   H2124     1.0  0.47879  0.18460  0.97095  1.0000
  N   N179      1.0  0.42962  0.07407  0.74030  1.0000
  C   C2110     1.0  0.39366  0.15183  0.92066  1.0000
  H   H2125     1.0  0.42231  0.19298  0.98447  1.0000
  H   H2126     1.0  0.39269  0.00680  0.80647  1.0000
  C   C2111     1.0  0.41223  0.08500  0.73714  1.0000
  H   H2127     1.0  0.44403  0.06200  0.74321  1.0000
  H   H2128     1.0  0.51985  0.46779  0.98612  1.0000
  N   N180      1.0  0.39211  0.24607  0.92268  1.0000
  H   H2129     1.0  0.44503  0.99179  0.73890  1.0000
  H   H2130     1.0  0.39592  0.98978  0.87940  1.0000
  C   C2112     1.0  0.39107  0.26557  0.91805  1.0000
  C   C2113     1.0  0.43970  0.02971  0.74216  1.0000
  H   H2131     1.0  0.39318  0.00354  0.76988  1.0000
  C   C2114     1.0  0.50279  0.12250  0.98519  1.0000
  H   H2132     1.0  0.42204  0.04519  0.73886  1.0000
  H   H2133     1.0  0.48805  0.00786  0.74129  1.0000
  H   H2134     1.0  0.45210  0.19095  0.98493  1.0000
  C   C2115     1.0  0.39357  0.21183  0.98455  1.0000
  H   H2135     1.0  0.47479  0.10455  0.97622  1.0000
  H   H2136     1.0  0.58566  0.46660  0.98000  1.0000
  C   C2116     1.0  0.48214  0.01552  0.73863  1.0000
  H   H2137     1.0  0.51413  0.43162  0.98275  1.0000
  H   H2138     1.0  0.44175  0.03792  0.74003  1.0000
  C   C2117     1.0  0.48576  0.05234  0.74144  1.0000
  C   C2118     1.0  0.40957  0.08726  0.74761  1.0000
  Fe  Fe333     1.0  0.38866  0.07053  0.75650  1.0000
  S   S694      1.0  0.38890  0.38263  0.96406  1.0000
  H   H2139     1.0  0.48018  0.96837  0.20623  1.0000
  C   C2119     1.0  0.46158  0.69444  0.02789  1.0000
  N   N181      1.0  0.50339  0.91058  0.99306  1.0000
  C   C2120     1.0  0.45952  0.59115  0.00007  1.0000
  Fe  Fe334     1.0  0.44931  0.98061  0.09614  1.0000
  S   S695      1.0  0.46550  0.96907  0.09265  1.0000
  S   S696      1.0  0.43429  0.97465  0.10605  1.0000
  Fe  Fe335     1.0  0.47161  0.98101  0.09772  1.0000
  S   S697      1.0  0.48283  0.97459  0.10956  1.0000
  Fe  Fe336     1.0  0.46751  0.98026  0.07579  1.0000
  S   S698      1.0  0.47314  0.97555  0.05913  1.0000
  S   S699      1.0  0.47539  0.74033  0.99237  1.0000
  C   C2121     1.0  0.39832  0.65220  0.05046  1.0000
  C   C2122     1.0  0.39576  0.93791  0.13896  1.0000
  C   C2123     1.0  0.42561  0.61785  0.99127  1.0000
  H   H2140     1.0  0.55260  0.49781  0.03449  1.0000
  H   H2141     1.0  0.41810  0.97807  0.08540  1.0000
  Fe  Fe337     1.0  0.41226  0.94316  0.08515  1.0000
  S   S700      1.0  0.42929  0.93673  0.08772  1.0000
  C   C2124     1.0  0.40348  0.97642  0.21137  1.0000
  H   H2142     1.0  0.57162  0.57734  0.03794  1.0000
  N   N182      1.0  0.56841  0.59237  0.02630  1.0000
  C   C2125     1.0  0.46974  0.95343  0.12510  1.0000
  C   C2126     1.0  0.42851  0.96633  0.07101  1.0000
  Fe  Fe338     1.0  0.47861  0.98473  0.18376  1.0000
  S   S701      1.0  0.46320  0.97874  0.19188  1.0000
  S   S702      1.0  0.49084  0.98595  0.19230  1.0000
  Fe  Fe339     1.0  0.46562  0.97332  0.17616  1.0000
  S   S703      1.0  0.46376  0.95678  0.17558  1.0000
  C   C2127     1.0  0.46395  0.88372  0.00367  1.0000
  C   C2128     1.0  0.48612  0.97085  0.22933  1.0000
  S   S704      1.0  0.48198  0.97772  0.16881  1.0000
  S   S705      1.0  0.40225  0.95640  0.09384  1.0000
  H   H2143     1.0  0.45256  0.97680  0.04952  1.0000
  H   H2144     1.0  0.47872  0.95197  0.12395  1.0000
  Fe  Fe340     1.0  0.40997  0.96687  0.16038  1.0000
  C   C2129     1.0  0.49325  0.98383  0.21313  1.0000
  N   N183      1.0  0.47081  0.69287  0.03157  1.0000
  H   H2145     1.0  0.39239  0.75315  0.04131  1.0000
  C   C2130     1.0  0.44052  0.70532  0.04935  1.0000
  C   C2131     1.0  0.52900  0.50718  0.05398  1.0000
  Fe  Fe341     1.0  0.49186  0.63016  0.99951  1.0000
  S   S706      1.0  0.49099  0.61934  0.01640  1.0000
  C   C2132     1.0  0.58059  0.50252  0.02312  1.0000
  Fe  Fe342     1.0  0.48719  0.65125  0.00777  1.0000
  S   S707      1.0  0.48617  0.64200  0.02543  1.0000
  S   S708      1.0  0.48074  0.66944  0.00150  1.0000
  Fe  Fe343     1.0  0.50085  0.62985  0.01852  1.0000
  S   S709      1.0  0.51490  0.62045  0.02665  1.0000
  Fe  Fe344     1.0  0.47649  0.63221  0.02171  1.0000
  S   S710      1.0  0.46110  0.62810  0.03351  1.0000
  S   S711      1.0  0.50271  0.63998  0.00111  1.0000
  S   S712      1.0  0.47648  0.64220  0.00459  1.0000
  Fe  Fe345     1.0  0.44814  0.83233  0.01387  1.0000
  S   S713      1.0  0.45673  0.82566  0.02775  1.0000
  S   S714      1.0  0.43143  0.83065  0.01496  1.0000
  Fe  Fe346     1.0  0.46654  0.84211  0.99834  1.0000
  S   S715      1.0  0.47730  0.83600  0.01057  1.0000
  H   H2146     1.0  0.46336  0.88254  0.01244  1.0000
  Fe  Fe347     1.0  0.47121  0.82031  0.01476  1.0000
  S   S716      1.0  0.48110  0.80287  0.01832  1.0000
  Fe  Fe348     1.0  0.46190  0.84179  0.02253  1.0000
  S   S717      1.0  0.45868  0.85196  0.03504  1.0000
  S   S718      1.0  0.46212  0.82598  0.00128  1.0000
  S   S719      1.0  0.45174  0.84903  0.00991  1.0000
  Fe  Fe349     1.0  0.47923  0.72680  0.00688  1.0000
  S   S720      1.0  0.46207  0.72475  0.01333  1.0000
  S   S721      1.0  0.49309  0.71175  0.00587  1.0000
  Fe  Fe350     1.0  0.47235  0.75187  0.00350  1.0000
  S   S722      1.0  0.45463  0.75180  0.00984  1.0000
  S   S723      1.0  0.40122  0.77006  0.02674  1.0000
  Fe  Fe351     1.0  0.46012  0.73742  0.02280  1.0000
  S   S724      1.0  0.45015  0.73422  0.04000  1.0000
  Fe  Fe352     1.0  0.45803  0.73926  0.99987  1.0000
  C   C2133     1.0  0.40702  0.95039  0.19868  1.0000
  S   S725      1.0  0.47772  0.73849  0.01753  1.0000
  S   S726      1.0  0.47637  0.76838  0.99506  1.0000
  Fe  Fe353     1.0  0.46725  0.92527  0.03659  1.0000
  S   S727      1.0  0.45475  0.93259  0.02617  1.0000
  S   S728      1.0  0.46670  0.93155  0.05152  1.0000
  Fe  Fe354     1.0  0.47493  0.90406  0.02776  1.0000
  S   S729      1.0  0.46273  0.90955  0.01728  1.0000
  S   S730      1.0  0.48622  0.88797  0.02511  1.0000
  Fe  Fe355     1.0  0.46775  0.92561  0.01275  1.0000
  C   C2134     1.0  0.41539  0.95060  0.21265  1.0000
  Fe  Fe356     1.0  0.45100  0.91583  0.03145  1.0000
  S   S731      1.0  0.43387  0.91345  0.03760  1.0000
  S   S732      1.0  0.48073  0.91986  0.02258  1.0000
  S   S733      1.0  0.46266  0.90872  0.04259  1.0000
  Fe  Fe357     1.0  0.40280  0.88993  0.01717  1.0000
  S   S734      1.0  0.41639  0.89742  0.00577  1.0000
  Fe  Fe358     1.0  0.57588  0.55022  0.00260  1.0000
  S   S735      1.0  0.55794  0.55318  0.00918  1.0000
  H   H2147     1.0  0.39784  0.66939  0.04883  1.0000
  C   C2135     1.0  0.39872  0.97617  0.20302  1.0000
  S   S736      1.0  0.56198  0.56383  0.02754  1.0000
  H   H2148     1.0  0.46695  0.94576  0.12981  1.0000
  Fe  Fe359     1.0  0.56223  0.54698  0.02569  1.0000
  Fe  Fe360     1.0  0.55929  0.56967  0.01023  1.0000
  S   S737      1.0  0.54803  0.58435  0.00204  1.0000
  C   C2136     1.0  0.42375  0.98269  0.07885  1.0000
  S   S738      1.0  0.57712  0.56722  0.00213  1.0000
  H   H2149     1.0  0.46815  0.95560  0.11668  1.0000
  H   H2150     1.0  0.42863  0.74986  0.04568  1.0000
  C   C2137     1.0  0.43432  0.87202  0.03782  1.0000
  H   H2151     1.0  0.55608  0.60252  0.03618  1.0000
  Fe  Fe361     1.0  0.40025  0.71606  0.02277  1.0000
  H   H2152     1.0  0.53834  0.52648  0.01272  1.0000
  C   C2138     1.0  0.58471  0.51180  0.01711  1.0000
  Fe  Fe362     1.0  0.39463  0.94435  0.07369  1.0000
  H   H2153     1.0  0.45392  0.59907  0.99735  1.0000
  H   H2154     1.0  0.43757  0.88787  0.03643  1.0000
  C   C2139     1.0  0.41537  0.74182  0.03174  1.0000
  H   H2155     1.0  0.55825  0.50977  0.04287  1.0000
  S   S739      1.0  0.39605  0.87786  0.01317  1.0000
  H   H2156     1.0  0.39355  0.97693  0.09649  1.0000
  H   H2157     1.0  0.41091  0.73662  0.03857  1.0000
  H   H2158     1.0  0.56396  0.53422  0.99980  1.0000
  C   C2140     1.0  0.42847  0.91082  0.02792  1.0000
  C   C2141     1.0  0.43445  0.91057  0.01714  1.0000
  C   C2142     1.0  0.43056  0.90686  0.01009  1.0000
  C   C2143     1.0  0.42068  0.90347  0.01385  1.0000
  C   C2144     1.0  0.41441  0.90445  0.02436  1.0000
  C   C2145     1.0  0.41827  0.90815  0.03136  1.0000
  H   H2159     1.0  0.44206  0.91317  0.01425  1.0000
  H   H2160     1.0  0.43528  0.90641  0.00185  1.0000
  H   H2161     1.0  0.40662  0.90220  0.02724  1.0000
  H   H2162     1.0  0.41348  0.90863  0.03959  1.0000
  H   H2163     1.0  0.41712  0.95152  0.18216  1.0000
  C   C2146     1.0  0.39652  0.64449  0.04581  1.0000
  C   C2147     1.0  0.45900  0.68572  0.02552  1.0000
  H   H2164     1.0  0.39199  0.67761  0.00666  1.0000
  C   C2148     1.0  0.39512  0.82297  0.03397  1.0000
  H   H2165     1.0  0.53000  0.51486  0.04761  1.0000
  C   C2149     1.0  0.43766  0.65361  0.04569  1.0000
  H   H2166     1.0  0.40495  0.61908  0.99163  1.0000
  C   C2150     1.0  0.45200  0.97760  0.23186  1.0000
  C   C2151     1.0  0.44384  0.72365  0.04080  1.0000
  C   C2152     1.0  0.43912  0.72404  0.03222  1.0000
  C   C2153     1.0  0.55847  0.60452  0.00899  1.0000
  C   C2154     1.0  0.42128  0.74756  0.04514  1.0000
  S   S740      1.0  0.40421  0.98007  0.14651  1.0000
  H   H2167     1.0  0.47774  0.59853  0.99426  1.0000
  H   H2168     1.0  0.43891  0.73110  0.02537  1.0000
  H   H2169     1.0  0.42142  0.93217  0.12358  1.0000
  H   H2170     1.0  0.43143  0.75957  0.02669  1.0000
  H   H2171     1.0  0.48138  0.66605  0.03065  1.0000
  H   H2172     1.0  0.53676  0.51278  0.99394  1.0000
  C   C2155     1.0  0.52147  0.50329  0.04045  1.0000
  H   H2173     1.0  0.43833  0.63765  0.04347  1.0000
  H   H2174     1.0  0.42883  0.78281  0.03733  1.0000
  H   H2175     1.0  0.44994  0.98576  0.14654  1.0000
  H   H2176     1.0  0.39160  0.98696  0.11067  1.0000
  H   H2177     1.0  0.44713  0.97155  0.23359  1.0000
  C   C2156     1.0  0.46655  0.86181  0.03210  1.0000
  C   C2157     1.0  0.47669  0.86094  0.02471  1.0000
  C   C2158     1.0  0.48282  0.86892  0.02266  1.0000
  C   C2159     1.0  0.47869  0.87789  0.02780  1.0000
  C   C2160     1.0  0.46846  0.87883  0.03501  1.0000
  C   C2161     1.0  0.46251  0.87070  0.03732  1.0000
  H   H2178     1.0  0.47992  0.85399  0.02080  1.0000
  H   H2179     1.0  0.49075  0.86813  0.01712  1.0000
  H   H2180     1.0  0.46527  0.88567  0.03908  1.0000
  H   H2181     1.0  0.45482  0.87126  0.04326  1.0000
  C   C2162     1.0  0.47844  0.79290  0.01316  1.0000
  C   C2163     1.0  0.47156  0.79592  0.00582  1.0000
  C   C2164     1.0  0.47048  0.78816  0.00079  1.0000
  C   C2165     1.0  0.47601  0.77719  0.00330  1.0000
  C   C2166     1.0  0.48240  0.77392  0.01117  1.0000
  C   C2167     1.0  0.48369  0.78180  0.01601  1.0000
  H   H2182     1.0  0.46742  0.80431  0.00357  1.0000
  H   H2183     1.0  0.42610  0.95385  0.13259  1.0000
  H   H2184     1.0  0.48685  0.76547  0.01302  1.0000
  H   H2185     1.0  0.48903  0.77936  0.02171  1.0000
  C   C2168     1.0  0.45517  0.98320  0.22096  1.0000
  H   H2186     1.0  0.53721  0.50286  0.05553  1.0000
  H   H2187     1.0  0.47925  0.70579  0.02690  1.0000
  C   C2169     1.0  0.43861  0.61341  0.03110  1.0000
  Fe  Fe363     1.0  0.39195  0.77671  0.04165  1.0000
  C   C2170     1.0  0.44573  0.97383  0.05546  1.0000
  C   C2171     1.0  0.42826  0.79727  0.01290  1.0000
  Fe  Fe364     1.0  0.39572  0.60194  0.03289  1.0000
  S   S741      1.0  0.40065  0.79055  0.03744  1.0000
  H   H2188     1.0  0.41128  0.71140  0.99342  1.0000
  C   C2172     1.0  0.41670  0.95124  0.19073  1.0000
  H   H2189     1.0  0.58074  0.51776  0.01088  1.0000
  C   C2173     1.0  0.42026  0.81608  0.01481  1.0000
  C   C2174     1.0  0.43057  0.81804  0.01319  1.0000
  C   C2175     1.0  0.43982  0.80976  0.01083  1.0000
  C   C2176     1.0  0.43867  0.79939  0.01055  1.0000
  C   C2177     1.0  0.41910  0.80570  0.01484  1.0000
  H   H2190     1.0  0.41311  0.82250  0.01642  1.0000
  H   H2191     1.0  0.44781  0.81121  0.00959  1.0000
  H   H2192     1.0  0.44580  0.79291  0.00900  1.0000
  C   C2178     1.0  0.52340  0.60980  0.02019  1.0000
  C   C2179     1.0  0.52391  0.61033  0.00913  1.0000
  C   C2180     1.0  0.53133  0.60230  0.00377  1.0000
  C   C2181     1.0  0.53814  0.59355  0.00947  1.0000
  C   C2182     1.0  0.53734  0.59273  0.02067  1.0000
  C   C2183     1.0  0.53006  0.60092  0.02598  1.0000
  H   H2193     1.0  0.51880  0.61712  0.00460  1.0000
  C   C2184     1.0  0.44110  0.80267  0.03717  1.0000
  H   H2194     1.0  0.54252  0.58597  0.02514  1.0000
  H   H2195     1.0  0.52960  0.60042  0.03457  1.0000
  C   C2185     1.0  0.45369  0.62215  0.02826  1.0000
  C   C2186     1.0  0.45672  0.62134  0.01722  1.0000
  C   C2187     1.0  0.39026  0.67430  0.00067  1.0000
  H   H2196     1.0  0.45851  0.80131  0.03282  1.0000
  H   H2197     1.0  0.46372  0.62432  0.01184  1.0000
  H   H2198     1.0  0.41210  0.97623  0.20956  1.0000
  C   C2188     1.0  0.48460  0.68082  0.00298  1.0000
  C   C2189     1.0  0.49436  0.67997  0.00587  1.0000
  C   C2190     1.0  0.49700  0.68948  0.00673  1.0000
  C   C2191     1.0  0.48977  0.69978  0.00498  1.0000
  C   C2192     1.0  0.47997  0.70049  0.00235  1.0000
  C   C2193     1.0  0.47748  0.69112  0.00117  1.0000
  H   H2199     1.0  0.49994  0.67205  0.00724  1.0000
  H   H2200     1.0  0.50463  0.68886  0.00877  1.0000
  H   H2201     1.0  0.47436  0.70829  0.00105  1.0000
  H   H2202     1.0  0.41648  0.64599  0.02765  1.0000
  H   H2203     1.0  0.46256  0.59202  0.03441  1.0000
  S   S742      1.0  0.58021  0.54280  0.01895  1.0000
  S   S743      1.0  0.40910  0.60309  0.04006  1.0000
  H   H2204     1.0  0.40781  0.82689  0.03877  1.0000
  H   H2205     1.0  0.43124  0.85387  0.00275  1.0000
  C   C2194     1.0  0.45302  0.95637  0.17024  1.0000
  C   C2195     1.0  0.45304  0.94661  0.16761  1.0000
  C   C2196     1.0  0.44456  0.94598  0.16339  1.0000
  C   C2197     1.0  0.43597  0.95509  0.16183  1.0000
  C   C2198     1.0  0.43603  0.96493  0.16428  1.0000
  C   C2199     1.0  0.44449  0.96554  0.16859  1.0000
  H   H2206     1.0  0.45961  0.93950  0.16890  1.0000
  H   H2207     1.0  0.44457  0.93835  0.16152  1.0000
  H   H2208     1.0  0.42963  0.97210  0.16278  1.0000
  H   H2209     1.0  0.44431  0.97304  0.17075  1.0000
  C   C2200     1.0  0.43246  0.88202  0.04089  1.0000
  H   H2210     1.0  0.45329  0.61555  0.00478  1.0000
  H   H2211     1.0  0.48678  0.60300  0.00624  1.0000
  H   H2212     1.0  0.45162  0.68702  0.02267  1.0000
  C   C2201     1.0  0.44465  0.61812  0.03520  1.0000
  S   S744      1.0  0.40629  0.71699  0.03685  1.0000
  H   H2213     1.0  0.40339  0.77412  0.00367  1.0000
  C   C2202     1.0  0.38978  0.91457  0.04746  1.0000
  H   H2214     1.0  0.45263  0.98167  0.21437  1.0000
  N   N184      1.0  0.42679  0.65006  0.03545  1.0000
  Fe  Fe365     1.0  0.39648  0.62379  0.01660  1.0000
  N   N185      1.0  0.42136  0.74787  0.03372  1.0000
  Fe  Fe366     1.0  0.41505  0.69958  0.03690  1.0000
  H   H2215     1.0  0.43396  0.85470  0.03142  1.0000
  S   S745      1.0  0.40749  0.97812  0.17161  1.0000
  S   S746      1.0  0.40982  0.62676  0.02211  1.0000
  N   N186      1.0  0.44600  0.78151  0.03349  1.0000
  C   C2203     1.0  0.50117  0.92128  0.99592  1.0000
  H   H2216     1.0  0.41022  0.73744  0.01942  1.0000
  C   C2204     1.0  0.41498  0.74222  0.02095  1.0000
  H   H2217     1.0  0.39849  0.81422  0.03562  1.0000
  C   C2205     1.0  0.39814  0.85857  0.99234  1.0000
  H   H2218     1.0  0.46600  0.70861  0.03585  1.0000
  C   C2206     1.0  0.39738  0.94459  0.14486  1.0000
  C   C2207     1.0  0.47175  0.96309  0.05712  1.0000
  C   C2208     1.0  0.47418  0.96141  0.04634  1.0000
  C   C2209     1.0  0.47275  0.95178  0.04441  1.0000
  C   C2210     1.0  0.46901  0.94370  0.05329  1.0000
  C   C2211     1.0  0.46667  0.94536  0.06406  1.0000
  C   C2212     1.0  0.46794  0.95503  0.06598  1.0000
  H   H2219     1.0  0.47713  0.96761  0.03944  1.0000
  H   H2220     1.0  0.47460  0.95059  0.03608  1.0000
  H   H2221     1.0  0.46381  0.93911  0.07097  1.0000
  H   H2222     1.0  0.46604  0.95621  0.07430  1.0000
  C   C2213     1.0  0.43360  0.96325  0.10174  1.0000
  C   C2214     1.0  0.44160  0.95943  0.09308  1.0000
  C   C2215     1.0  0.44079  0.95057  0.08941  1.0000
  C   C2216     1.0  0.43178  0.94576  0.09411  1.0000
  C   C2217     1.0  0.42400  0.94933  0.10300  1.0000
  C   C2218     1.0  0.42484  0.95812  0.10676  1.0000
  H   H2223     1.0  0.44821  0.96353  0.08889  1.0000
  H   H2224     1.0  0.44679  0.94791  0.08246  1.0000
  H   H2225     1.0  0.41713  0.94549  0.10676  1.0000
  H   H2226     1.0  0.41855  0.96113  0.11336  1.0000
  H   H2227     1.0  0.44765  0.84689  0.98911  1.0000
  C   C2219     1.0  0.48525  0.98447  0.13562  1.0000
  C   C2220     1.0  0.48665  0.97827  0.12781  1.0000
  C   C2221     1.0  0.48059  0.98219  0.11961  1.0000
  C   C2222     1.0  0.39123  0.92463  0.04827  1.0000
  H   H2228     1.0  0.57043  0.59370  0.99934  1.0000
  H   H2229     1.0  0.49005  0.98147  0.14185  1.0000
  H   H2230     1.0  0.49250  0.97048  0.12806  1.0000
  C   C2223     1.0  0.39050  0.92668  0.05858  1.0000
  H   H2231     1.0  0.39105  0.64219  0.03260  1.0000
  H   H2232     1.0  0.43144  0.71549  0.02555  1.0000
  H   H2233     1.0  0.42052  0.74925  0.00373  1.0000
  H   H2234     1.0  0.44381  0.65055  0.05057  1.0000
  S   S747      1.0  0.39386  0.96200  0.16797  1.0000
  C   C2224     1.0  0.42335  0.85832  0.00700  1.0000
  C   C2225     1.0  0.43491  0.71520  0.03230  1.0000
  C   C2226     1.0  0.42073  0.74890  0.01215  1.0000
  C   C2227     1.0  0.54612  0.52952  0.02383  1.0000
  H   H2235     1.0  0.53465  0.58377  0.98828  1.0000
  H   H2236     1.0  0.44238  0.61848  0.04382  1.0000
  C   C2228     1.0  0.42688  0.75458  0.02515  1.0000
  C   C2229     1.0  0.45390  0.97917  0.14218  1.0000
  H   H2237     1.0  0.49323  0.80781  0.99319  1.0000
  S   S748      1.0  0.39001  0.63613  0.00264  1.0000
  H   H2238     1.0  0.44716  0.77186  0.02232  1.0000
  H   H2239     1.0  0.43172  0.61023  0.03653  1.0000
  H   H2240     1.0  0.46991  0.69187  0.99892  1.0000
  Fe  Fe367     1.0  0.39639  0.86852  0.03052  1.0000
  C   C2230     1.0  0.41972  0.86680  0.05232  1.0000
  C   C2231     1.0  0.44179  0.61244  0.02011  1.0000
  C   C2232     1.0  0.55948  0.60073  0.02805  1.0000
  H   H2241     1.0  0.41104  0.80425  0.01666  1.0000
  H   H2242     1.0  0.42431  0.80164  0.04060  1.0000
  N   N187      1.0  0.42484  0.93071  0.05372  1.0000
  C   C2233     1.0  0.43456  0.93204  0.05450  1.0000
  C   C2234     1.0  0.41936  0.92363  0.06188  1.0000
  C   C2235     1.0  0.43905  0.92614  0.06360  1.0000
  C   C2236     1.0  0.42361  0.91762  0.07110  1.0000
  C   C2237     1.0  0.43354  0.91890  0.07193  1.0000
  C   C2238     1.0  0.41998  0.93729  0.04437  1.0000
  H   H2243     1.0  0.43893  0.93764  0.04806  1.0000
  H   H2244     1.0  0.41169  0.92256  0.06125  1.0000
  H   H2245     1.0  0.44670  0.92726  0.06431  1.0000
  H   H2246     1.0  0.41919  0.91211  0.07759  1.0000
  H   H2247     1.0  0.43688  0.91448  0.07912  1.0000
  H   H2248     1.0  0.42638  0.93890  0.03676  1.0000
  H   H2249     1.0  0.41484  0.93280  0.04253  1.0000
  H   H2250     1.0  0.41477  0.94517  0.04631  1.0000
  N   N188      1.0  0.46424  0.96235  0.13096  1.0000
  C   C2239     1.0  0.45526  0.96978  0.12802  1.0000
  C   C2240     1.0  0.46795  0.96294  0.13960  1.0000
  C   C2241     1.0  0.44997  0.97832  0.13356  1.0000
  C   C2242     1.0  0.46292  0.97142  0.14525  1.0000
  S   S749      1.0  0.38967  0.76511  0.05825  1.0000
  H   H2251     1.0  0.39558  0.84410  0.00515  1.0000
  H   H2252     1.0  0.45217  0.96919  0.12131  1.0000
  H   H2253     1.0  0.47494  0.95694  0.14208  1.0000
  C   C2243     1.0  0.57352  0.58565  0.03544  1.0000
  C   C2244     1.0  0.47340  0.70209  0.03404  1.0000
  H   H2254     1.0  0.46519  0.58861  0.99259  1.0000
  C   C2245     1.0  0.46607  0.67540  0.02668  1.0000
  H   H2255     1.0  0.49229  0.92488  0.99733  1.0000
  S   S750      1.0  0.44637  0.73999  0.98990  1.0000
  H   H2256     1.0  0.54403  0.53836  0.02105  1.0000
  C   C2246     1.0  0.45423  0.78664  0.03218  1.0000
  H   H2257     1.0  0.45553  0.90068  0.00178  1.0000
  H   H2258     1.0  0.44332  0.76532  0.03677  1.0000
  C   C2247     1.0  0.43537  0.78671  0.03666  1.0000
  C   C2248     1.0  0.40142  0.77140  0.99748  1.0000
  C   C2249     1.0  0.56468  0.53579  0.99100  1.0000
  C   C2250     1.0  0.51753  0.49629  0.03678  1.0000
  H   H2259     1.0  0.42116  0.67724  0.03522  1.0000
  H   H2260     1.0  0.41464  0.86093  0.05679  1.0000
  H   H2261     1.0  0.53189  0.60301  0.99512  1.0000
  H   H2262     1.0  0.41605  0.66408  0.02802  1.0000
  C   C2251     1.0  0.38839  0.91851  0.06810  1.0000
  H   H2263     1.0  0.47703  0.69930  0.04141  1.0000
  S   S751      1.0  0.42511  0.95383  0.15721  1.0000
  C   C2252     1.0  0.55397  0.51340  0.03624  1.0000
  H   H2264     1.0  0.43098  0.76058  0.00748  1.0000
  H   H2265     1.0  0.43061  0.63888  0.02498  1.0000
  H   H2266     1.0  0.39671  0.93994  0.22161  1.0000
  C   C2253     1.0  0.54515  0.51136  0.02301  1.0000
  S   S752      1.0  0.47079  0.93344  0.99456  1.0000
  H   H2267     1.0  0.49521  0.98224  0.22952  1.0000
  C   C2254     1.0  0.56748  0.59590  0.00732  1.0000
  C   C2255     1.0  0.41750  0.87682  0.05551  1.0000
  Fe  Fe368     1.0  0.40058  0.62084  0.03916  1.0000
  H   H2268     1.0  0.44122  0.69800  0.05590  1.0000
  H   H2269     1.0  0.47913  0.59979  0.02653  1.0000
  C   C2256     1.0  0.42687  0.94491  0.13336  1.0000
  C   C2257     1.0  0.44433  0.71437  0.04949  1.0000
  C   C2258     1.0  0.40883  0.85028  0.00616  1.0000
  H   H2270     1.0  0.58253  0.58459  0.03286  1.0000
  H   H2271     1.0  0.43241  0.94276  0.12565  1.0000
  H   H2272     1.0  0.42157  0.63522  0.03820  1.0000
  C   C2259     1.0  0.43579  0.70574  0.04077  1.0000
  H   H2273     1.0  0.52246  0.51121  0.03510  1.0000
  H   H2274     1.0  0.39220  0.97085  0.12739  1.0000
  H   H2275     1.0  0.42887  0.98490  0.08306  1.0000
  H   H2276     1.0  0.51565  0.49876  0.02868  1.0000
  S   S753      1.0  0.39228  0.93956  0.05907  1.0000
  H   H2277     1.0  0.41053  0.84387  0.01330  1.0000
  C   C2260     1.0  0.47564  0.67394  0.03014  1.0000
  S   S754      1.0  0.55560  0.53325  0.03841  1.0000
  Fe  Fe369     1.0  0.57979  0.56007  0.01928  1.0000
  H   H2278     1.0  0.46600  0.97192  0.15201  1.0000
  N   N189      1.0  0.43059  0.97615  0.07083  1.0000
  H   H2279     1.0  0.40369  0.97570  0.19491  1.0000
  S   S755      1.0  0.39978  0.63033  0.05158  1.0000
  C   C2261     1.0  0.43453  0.64632  0.04163  1.0000
  C   C2262     1.0  0.39066  0.77115  0.99812  1.0000
  H   H2280     1.0  0.54724  0.61351  0.02082  1.0000
  H   H2281     1.0  0.42138  0.73909  0.05030  1.0000
  N   N190      1.0  0.41473  0.85830  0.00190  1.0000
  C   C2263     1.0  0.40444  0.93349  0.13121  1.0000
  C   C2264     1.0  0.44852  0.77074  0.03069  1.0000
  C   C2265     1.0  0.43025  0.85400  0.04036  1.0000
  H   H2282     1.0  0.54920  0.53206  0.99262  1.0000
  H   H2283     1.0  0.44063  0.98779  0.06290  1.0000
  S   S756      1.0  0.54049  0.50316  0.01743  1.0000
  N   N191      1.0  0.46540  0.59261  0.00746  1.0000
  C   C2266     1.0  0.46123  0.59066  0.01861  1.0000
  C   C2267     1.0  0.47454  0.59684  0.00308  1.0000
  C   C2268     1.0  0.46618  0.59309  0.02564  1.0000
  C   C2269     1.0  0.47971  0.59935  0.00985  1.0000
  C   C2270     1.0  0.47545  0.59751  0.02121  1.0000
  H   H2284     1.0  0.45617  0.70248  0.02671  1.0000
  H   H2285     1.0  0.45371  0.58777  0.02205  1.0000
  C   C2271     1.0  0.55447  0.60702  0.01939  1.0000
  N   N192      1.0  0.52444  0.50000  0.05038  1.0000
  H   H2286     1.0  0.45714  0.76640  0.03070  1.0000
  H   H2287     1.0  0.44915  0.95871  0.05004  1.0000
  Fe  Fe370     1.0  0.39216  0.70989  0.04737  1.0000
  C   C2272     1.0  0.42518  0.95150  0.20490  1.0000
  N   N193      1.0  0.41614  0.94252  0.13518  1.0000
  H   H2288     1.0  0.57072  0.58943  0.04275  1.0000
  H   H2289     1.0  0.43068  0.94023  0.14044  1.0000
  H   H2290     1.0  0.49655  0.78785  0.99425  1.0000
  H   H2291     1.0  0.40884  0.95218  0.14732  1.0000
  S   S757      1.0  0.40141  0.69225  0.04869  1.0000
  H   H2292     1.0  0.42636  0.60887  0.99476  1.0000
  Fe  Fe371     1.0  0.39086  0.97456  0.17807  1.0000
  S   S758      1.0  0.39613  0.79544  0.01240  1.0000
  H   H2293     1.0  0.42383  0.86685  0.00658  1.0000
  C   C2273     1.0  0.39268  0.66695  0.03547  1.0000
  H   H2294     1.0  0.48550  0.68173  0.03490  1.0000
  C   C2274     1.0  0.45953  0.89397  0.99760  1.0000
  C   C2275     1.0  0.50434  0.89108  0.99874  1.0000
  C   C2276     1.0  0.39639  0.66346  0.04528  1.0000
  H   H2295     1.0  0.46264  0.78260  0.02954  1.0000
  H   H2296     1.0  0.39063  0.94822  0.15078  1.0000
  S   S759      1.0  0.40476  0.60638  0.01529  1.0000
  C   C2277     1.0  0.46918  0.87506  0.99834  1.0000
  C   C2278     1.0  0.43519  0.95988  0.06359  1.0000
  H   H2297     1.0  0.39037  0.91313  0.03946  1.0000
  H   H2298     1.0  0.47890  0.90972  0.99853  1.0000
  S   S760      1.0  0.40331  0.85039  0.03528  1.0000
  S   S761      1.0  0.43515  0.60544  0.01511  1.0000
  S   S762      1.0  0.39086  0.68073  0.02814  1.0000
  C   C2279     1.0  0.40767  0.94687  0.14282  1.0000
  C   C2280     1.0  0.48202  0.96686  0.22268  1.0000
  H   H2299     1.0  0.50053  0.90182  0.00988  1.0000
  C   C2281     1.0  0.40036  0.83016  0.03580  1.0000
  H   H2300     1.0  0.42268  0.85096  0.04203  1.0000
  C   C2282     1.0  0.47793  0.68284  0.03249  1.0000
  H   H2301     1.0  0.39989  0.95016  0.19613  1.0000
  H   H2302     1.0  0.38914  0.95226  0.21406  1.0000
  C   C2283     1.0  0.41469  0.93574  0.12955  1.0000
  C   C2284     1.0  0.39262  0.64805  0.03614  1.0000
  H   H2303     1.0  0.43382  0.95185  0.06414  1.0000
  S   S763      1.0  0.42650  0.78394  0.01449  1.0000
  Fe  Fe372     1.0  0.39732  0.96538  0.07812  1.0000
  H   H2304     1.0  0.42188  0.96326  0.07714  1.0000
  H   H2305     1.0  0.45455  0.58485  0.00425  1.0000
  S   S764      1.0  0.40864  0.95284  0.06886  1.0000
  C   C2285     1.0  0.42500  0.66857  0.03700  1.0000
  C   C2286     1.0  0.47832  0.91274  0.99003  1.0000
  H   H2306     1.0  0.47319  0.62990  0.99221  1.0000
  S   S765      1.0  0.39761  0.73087  0.00916  1.0000
  C   C2287     1.0  0.39615  0.84155  0.03358  1.0000
  H   H2307     1.0  0.43605  0.84781  0.04504  1.0000
  C   C2288     1.0  0.54281  0.52279  0.01920  1.0000
  H   H2308     1.0  0.46560  0.79077  0.99467  1.0000
  Fe  Fe373     1.0  0.40869  0.78472  0.02172  1.0000
  H   H2309     1.0  0.55434  0.60901  0.00233  1.0000
  H   H2310     1.0  0.43222  0.95203  0.20741  1.0000
  C   C2289     1.0  0.42373  0.64219  0.03132  1.0000
  H   H2311     1.0  0.41766  0.87240  0.98917  1.0000
  C   C2290     1.0  0.55170  0.52485  0.03236  1.0000
  C   C2291     1.0  0.42398  0.88443  0.04978  1.0000
  S   S766      1.0  0.40485  0.87965  0.03376  1.0000
  H   H2312     1.0  0.50355  0.88382  0.00533  1.0000
  H   H2313     1.0  0.57341  0.50116  0.02159  1.0000
  C   C2292     1.0  0.48897  0.98000  0.20652  1.0000
  H   H2314     1.0  0.42182  0.85408  0.01587  1.0000
  H   H2315     1.0  0.46600  0.72345  0.99068  1.0000
  C   C2293     1.0  0.44383  0.96369  0.05575  1.0000
  H   H2316     1.0  0.43340  0.95239  0.18784  1.0000
  C   C2294     1.0  0.39727  0.97648  0.22213  1.0000
  H   H2317     1.0  0.41072  0.87873  0.06227  1.0000
  H   H2318     1.0  0.44096  0.87020  0.03092  1.0000
  N   N194      1.0  0.40647  0.95011  0.20947  1.0000
  Fe  Fe374     1.0  0.41726  0.60900  0.02251  1.0000
  H   H2319     1.0  0.41490  0.95055  0.22117  1.0000
  N   N195      1.0  0.42794  0.86459  0.04347  1.0000
  H   H2320     1.0  0.39675  0.91114  0.99869  1.0000
  H   H2321     1.0  0.46436  0.66864  0.02453  1.0000
  H   H2322     1.0  0.47262  0.86705  0.00293  1.0000
  C   C2295     1.0  0.57242  0.58991  0.01611  1.0000
  S   S767      1.0  0.39707  0.98360  0.07256  1.0000
  C   C2296     1.0  0.42583  0.95177  0.19390  1.0000
  C   C2297     1.0  0.49177  0.97933  0.22452  1.0000
  C   C2298     1.0  0.55425  0.50883  0.98920  1.0000
  H   H2323     1.0  0.42241  0.89221  0.05215  1.0000
  H   H2324     1.0  0.39142  0.71198  0.00729  1.0000
  H   H2325     1.0  0.47773  0.96024  0.22634  1.0000
  C   C2299     1.0  0.43275  0.79736  0.03853  1.0000
  C   C2300     1.0  0.55079  0.50664  0.03149  1.0000
  C   C2301     1.0  0.39332  0.91142  0.99189  1.0000
  C   C2302     1.0  0.45080  0.61644  0.01320  1.0000
  S   S768      1.0  0.41061  0.69933  0.02149  1.0000
  H   H2326     1.0  0.43501  0.67053  0.04664  1.0000
  H   H2327     1.0  0.39523  0.95331  0.22432  1.0000
  C   C2303     1.0  0.43279  0.66479  0.04342  1.0000
  S   S769      1.0  0.39918  0.93368  0.08948  1.0000
  H   H2328     1.0  0.44805  0.71398  0.05610  1.0000
  C   C2304     1.0  0.43900  0.97998  0.06311  1.0000
  C   C2305     1.0  0.58569  0.49504  0.03121  1.0000
  H   H2329     1.0  0.41384  0.75324  0.04867  1.0000
  C   C2306     1.0  0.45192  0.79725  0.03404  1.0000
  H   H2330     1.0  0.42691  0.73059  0.99477  1.0000
  C   C2307     1.0  0.48335  0.97150  0.21130  1.0000
  C   C2308     1.0  0.42666  0.75519  0.01425  1.0000
  S   S770      1.0  0.43183  0.69414  0.04011  1.0000
  C   C2309     1.0  0.42214  0.66106  0.03298  1.0000
  H   H2331     1.0  0.43916  0.81106  0.03824  1.0000
  C   C2310     1.0  0.50263  0.90132  0.00127  1.0000
  C   C2311     1.0  0.40038  0.85034  0.00153  1.0000
  H   H2332     1.0  0.40131  0.64946  0.05797  1.0000
  H   H2333     1.0  0.42650  0.79244  0.98996  1.0000
  H   H2334     1.0  0.54299  0.55720  0.99247  1.0000
  H   H2335     1.0  0.52360  0.50955  0.06164  1.0000
  H   H2336     1.0  0.40319  0.92846  0.12644  1.0000
  H   H2337     1.0  0.57941  0.58318  0.01479  1.0000
  Fe  Fe375     1.0  0.39621  0.69322  0.03326  1.0000
  C   C2312     1.0  0.52330  0.48993  0.05702  1.0000
  H   H2338     1.0  0.55534  0.50957  0.99693  1.0000
  H   H2339     1.0  0.42070  0.71933  0.00253  1.0000
  S   S771      1.0  0.58370  0.54215  0.98836  1.0000
  C   C2313     1.0  0.39412  0.98539  0.09399  1.0000
  H   H2340     1.0  0.43217  0.71740  0.99102  1.0000
  C   C2314     1.0  0.41285  0.86615  0.99267  1.0000
  H   H2341     1.0  0.39295  0.93088  0.04086  1.0000
  S   S772      1.0  0.40402  0.97453  0.23271  1.0000
  C   C2315     1.0  0.42463  0.72321  0.99409  1.0000
  C   C2316     1.0  0.39003  0.74800  0.04928  1.0000
  C   C2317     1.0  0.55641  0.53440  0.98695  1.0000
  C   C2318     1.0  0.39641  0.94879  0.21778  1.0000
  C   C2319     1.0  0.39072  0.65922  0.03101  1.0000
  H   H2342     1.0  0.50391  0.92043  0.00355  1.0000
  H   H2343     1.0  0.50542  0.92714  0.98924  1.0000
  H   H2344     1.0  0.42065  0.62239  0.99777  1.0000
  H   H2345     1.0  0.58055  0.48948  0.00022  1.0000
  H   H2346     1.0  0.53594  0.49111  0.98986  1.0000
  H   H2347     1.0  0.44290  0.98423  0.13116  1.0000
  H   H2348     1.0  0.39327  0.95920  0.11473  1.0000
  H   H2349     1.0  0.54972  0.56855  0.98856  1.0000
  C   C2320     1.0  0.39734  0.67420  0.99039  1.0000
  H   H2350     1.0  0.38957  0.73478  0.04253  1.0000
  C   C2321     1.0  0.54381  0.51068  0.98749  1.0000
  H   H2351     1.0  0.43392  0.61952  0.98905  1.0000
  H   H2352     1.0  0.39149  0.85887  0.98875  1.0000
  C   C2322     1.0  0.40966  0.76852  0.98855  1.0000
  C   C2323     1.0  0.50674  0.89037  0.98772  1.0000
  Fe  Fe376     1.0  0.38879  0.94791  0.09713  1.0000
  H   H2353     1.0  0.40464  0.67740  0.98836  1.0000
  H   H2354     1.0  0.39234  0.59202  0.98802  1.0000
  H   H2355     1.0  0.45752  0.62652  0.98770  1.0000
  H   H2356     1.0  0.41791  0.76903  0.98790  1.0000
  C   C2324     1.0  0.40448  0.86646  0.98782  1.0000
  C   C2325     1.0  0.47001  0.87675  0.98704  1.0000
  C   C2326     1.0  0.49486  0.79371  0.98678  1.0000
  C   C2327     1.0  0.38851  0.73750  0.04999  1.0000
  C   C2328     1.0  0.38820  0.75185  0.05886  1.0000
  Fe  Fe377     1.0  0.38823  0.88924  0.03995  1.0000
  C   C2329     1.0  0.41097  0.71906  0.98726  1.0000
  C   C2330     1.0  0.47459  0.62442  0.98685  1.0000
  C   C2331     1.0  0.38816  0.76787  0.98989  1.0000
  N   N196      1.0  0.41721  0.72617  0.98661  1.0000
  N   N197      1.0  0.46039  0.89556  0.98651  1.0000
  H   H2357     1.0  0.44409  0.96639  0.31670  1.0000
  S   S773      1.0  0.47782  0.96815  0.35577  1.0000
  H   H2358     1.0  0.55046  0.98549  0.47184  1.0000
  S   S774      1.0  0.53885  0.98675  0.41211  1.0000
  S   S775      1.0  0.46088  0.97870  0.37614  1.0000
  C   C2332     1.0  0.50489  0.96082  0.39396  1.0000
  Fe  Fe378     1.0  0.47909  0.97330  0.37054  1.0000
  S   S776      1.0  0.48961  0.96230  0.38243  1.0000
  Fe  Fe379     1.0  0.45984  0.97529  0.36040  1.0000
  S   S777      1.0  0.44792  0.96804  0.35650  1.0000
  C   C2333     1.0  0.57413  0.97234  0.42097  1.0000
  H   H2359     1.0  0.44735  0.96695  0.33454  1.0000
  H   H2360     1.0  0.45918  0.96597  0.25294  1.0000
  C   C2334     1.0  0.50877  0.97223  0.30768  1.0000
  H   H2361     1.0  0.49874  0.95602  0.31634  1.0000
  C   C2335     1.0  0.52380  0.98141  0.47289  1.0000
  C   C2336     1.0  0.52693  0.96453  0.46679  1.0000
  N   N198      1.0  0.48365  0.98069  0.41535  1.0000
  H   H2362     1.0  0.53557  0.95001  0.47632  1.0000
  C   C2337     1.0  0.57460  0.96693  0.46830  1.0000
  N   N199      1.0  0.45510  0.97963  0.24020  1.0000
  S   S778      1.0  0.51718  0.98304  0.43227  1.0000
  C   C2338     1.0  0.44887  0.97348  0.32730  1.0000
  H   H2363     1.0  0.58241  0.96447  0.47063  1.0000
  Fe  Fe380     1.0  0.47915  0.97964  0.27770  1.0000
  N   N200      1.0  0.50613  0.96644  0.30182  1.0000
  S   S779      1.0  0.47614  0.97095  0.29558  1.0000
  Fe  Fe381     1.0  0.48399  0.97656  0.25402  1.0000
  H   H2364     1.0  0.51856  0.98033  0.45896  1.0000
  Fe  Fe382     1.0  0.40474  0.98603  0.26546  1.0000
  C   C2339     1.0  0.47922  0.97669  0.30481  1.0000
  C   C2340     1.0  0.45292  0.98210  0.32791  1.0000
  C   C2341     1.0  0.50241  0.95620  0.30745  1.0000
  H   H2365     1.0  0.46389  0.98873  0.24455  1.0000
  S   S780      1.0  0.49463  0.97457  0.26567  1.0000
  S   S781      1.0  0.46863  0.97961  0.26684  1.0000
  C   C2342     1.0  0.50289  0.98350  0.38969  1.0000
  C   C2343     1.0  0.48212  0.96057  0.41293  1.0000
  H   H2366     1.0  0.47911  0.97149  0.33212  1.0000
  Fe  Fe383     1.0  0.39620  0.98179  0.24783  1.0000
  S   S782      1.0  0.41704  0.98215  0.27574  1.0000
  C   C2344     1.0  0.47647  0.98036  0.40963  1.0000
  H   H2367     1.0  0.47149  0.98789  0.40586  1.0000
  C   C2345     1.0  0.47563  0.97032  0.40828  1.0000
  C   C2346     1.0  0.42949  0.97744  0.37022  1.0000
  C   C2347     1.0  0.50732  0.96991  0.29063  1.0000
  H   H2368     1.0  0.50565  0.95201  0.39566  1.0000
  C   C2348     1.0  0.46136  0.98717  0.23798  1.0000
  C   C2349     1.0  0.44943  0.98147  0.30799  1.0000
  C   C2350     1.0  0.48324  0.98631  0.30122  1.0000
  S   S783      1.0  0.39699  0.97277  0.26536  1.0000
  C   C2351     1.0  0.48433  0.98525  0.31993  1.0000
  C   C2352     1.0  0.52275  0.97586  0.46554  1.0000
  C   C2353     1.0  0.41815  0.98095  0.37369  1.0000
  H   H2369     1.0  0.56608  0.98730  0.41151  1.0000
  C   C2354     1.0  0.49015  0.97117  0.41981  1.0000
  C   C2355     1.0  0.44708  0.97315  0.31730  1.0000
  C   C2356     1.0  0.53369  0.96445  0.48251  1.0000
  H   H2370     1.0  0.56482  0.94979  0.45301  1.0000
  H   H2371     1.0  0.50518  0.96534  0.28600  1.0000
  H   H2372     1.0  0.42990  0.96804  0.34808  1.0000
  C   C2357     1.0  0.57250  0.98355  0.41599  1.0000
  S   S784      1.0  0.51539  0.98278  0.40354  1.0000
  H   H2373     1.0  0.49626  0.97147  0.42383  1.0000
  S   S785      1.0  0.56603  0.96415  0.41980  1.0000
  S   S786      1.0  0.39699  0.98556  0.37173  1.0000
  H   H2374     1.0  0.50766  0.96960  0.31658  1.0000
  H   H2375     1.0  0.43253  0.98552  0.28536  1.0000
  C   C2358     1.0  0.47770  0.97140  0.31597  1.0000
  S   S787      1.0  0.53578  0.96178  0.42501  1.0000
  H   H2376     1.0  0.47458  0.96396  0.31881  1.0000
  Fe  Fe384     1.0  0.52856  0.96856  0.44031  1.0000
  Fe  Fe385     1.0  0.52563  0.97728  0.41648  1.0000
  C   C2359     1.0  0.51251  0.98190  0.30236  1.0000
  H   H2377     1.0  0.47032  0.97012  0.40329  1.0000
  C   C2360     1.0  0.53228  0.95878  0.47539  1.0000
  C   C2361     1.0  0.41538  0.97566  0.35837  1.0000
  H   H2378     1.0  0.58392  0.95880  0.43040  1.0000
  C   C2362     1.0  0.49786  0.96785  0.38722  1.0000
  C   C2363     1.0  0.45234  0.97316  0.25147  1.0000
  H   H2379     1.0  0.43488  0.97809  0.37485  1.0000
  H   H2380     1.0  0.50935  0.94901  0.30668  1.0000
  N   N201      1.0  0.56236  0.96434  0.45894  1.0000
  H   H2381     1.0  0.40998  0.97496  0.35376  1.0000
  C   C2364     1.0  0.52945  0.97580  0.48124  1.0000
  C   C2365     1.0  0.55670  0.97877  0.46898  1.0000
  C   C2366     1.0  0.43378  0.97280  0.36096  1.0000
  H   H2382     1.0  0.44475  0.97024  0.25296  1.0000
  H   H2383     1.0  0.49476  0.95347  0.42208  1.0000
  S   S788      1.0  0.48390  0.96528  0.24365  1.0000
  C   C2367     1.0  0.55468  0.97304  0.46234  1.0000
  C   C2368     1.0  0.58256  0.96750  0.42664  1.0000
  C   C2369     1.0  0.51068  0.96516  0.39881  1.0000
  S   S789      1.0  0.54135  0.97792  0.43767  1.0000
  C   C2370     1.0  0.50951  0.97655  0.39683  1.0000
  H   H2384     1.0  0.56835  0.97983  0.47736  1.0000
  C   C2371     1.0  0.41108  0.98023  0.36768  1.0000
  H   H2385     1.0  0.49598  0.95542  0.30382  1.0000
  H   H2386     1.0  0.48185  0.95279  0.41153  1.0000
  H   H2387     1.0  0.54685  0.97548  0.46006  1.0000
  C   C2372     1.0  0.42668  0.97180  0.35513  1.0000
  C   C2373     1.0  0.48021  0.97570  0.32353  1.0000
  Fe  Fe386     1.0  0.54814  0.97192  0.42205  1.0000
  C   C2374     1.0  0.57233  0.96144  0.46159  1.0000
  S   S790      1.0  0.52590  0.95770  0.45732  1.0000
  H   H2388     1.0  0.41077  0.98411  0.29899  1.0000
  C   C2375     1.0  0.48937  0.96096  0.41881  1.0000
  C   C2376     1.0  0.49702  0.97920  0.38499  1.0000
  H   H2389     1.0  0.51585  0.95972  0.40421  1.0000
  Fe  Fe387     1.0  0.47901  0.98536  0.34664  1.0000
  H   H2390     1.0  0.55131  0.95807  0.45422  1.0000
  H   H2391     1.0  0.38833  0.96795  0.29167  1.0000
  H   H2392     1.0  0.51423  0.98666  0.30709  1.0000
  C   C2377     1.0  0.56007  0.95843  0.45202  1.0000
  H   H2393     1.0  0.40559  0.98353  0.31358  1.0000
  H   H2394     1.0  0.56217  0.96262  0.44321  1.0000
  H   H2395     1.0  0.44825  0.98105  0.30017  1.0000
  C   C2378     1.0  0.56669  0.97561  0.47206  1.0000
  C   C2379     1.0  0.51372  0.98553  0.29095  1.0000
  H   H2396     1.0  0.49170  0.98469  0.37980  1.0000
  H   H2397     1.0  0.51196  0.98230  0.27616  1.0000
  H   H2398     1.0  0.39557  0.96392  0.30844  1.0000
  H   H2399     1.0  0.45092  0.97818  0.25761  1.0000
  H   H2400     1.0  0.57857  0.95480  0.45858  1.0000
  C   C2380     1.0  0.51113  0.97950  0.28503  1.0000
  H   H2401     1.0  0.41486  0.98438  0.38096  1.0000
  H   H2402     1.0  0.45457  0.98228  0.33558  1.0000
  C   C2381     1.0  0.58792  0.98500  0.42204  1.0000
  C   C2382     1.0  0.47952  0.98649  0.63242  1.0000
  S   S791      1.0  0.46581  0.96593  0.59240  1.0000
  S   S792      1.0  0.47359  0.96401  0.61969  1.0000
  C   C2383     1.0  0.50656  0.97293  0.51625  1.0000
  C   C2384     1.0  0.52335  0.94496  0.51316  1.0000
  S   S793      1.0  0.44904  0.97541  0.69727  1.0000
  C   C2385     1.0  0.39986  0.98011  0.72183  1.0000
  Fe  Fe388     1.0  0.48056  0.96744  0.57845  1.0000
  S   S794      1.0  0.48782  0.95428  0.56860  1.0000
  S   S795      1.0  0.53253  0.97603  0.51997  1.0000
  C   C2386     1.0  0.40235  0.95872  0.62751  1.0000
  S   S796      1.0  0.45303  0.98593  0.67053  1.0000
  H   H2403     1.0  0.50676  0.98039  0.57186  1.0000
  H   H2404     1.0  0.44658  0.96524  0.72448  1.0000
  C   C2387     1.0  0.44851  0.96816  0.73061  1.0000
  C   C2388     1.0  0.41714  0.96816  0.61004  1.0000
  H   H2405     1.0  0.50794  0.94262  0.53172  1.0000
  S   S797      1.0  0.48977  0.97152  0.58841  1.0000
  S   S798      1.0  0.47427  0.96310  0.71011  1.0000
  H   H2406     1.0  0.47083  0.96899  0.65636  1.0000
  S   S799      1.0  0.44553  0.95770  0.67805  1.0000
  S   S800      1.0  0.41968  0.98268  0.64075  1.0000
  S   S801      1.0  0.47121  0.96488  0.68032  1.0000
  C   C2389     1.0  0.51505  0.97936  0.56703  1.0000
  Fe  Fe389     1.0  0.54212  0.95891  0.52432  1.0000
  S   S802      1.0  0.55637  0.96383  0.52642  1.0000
  S   S803      1.0  0.53439  0.94573  0.53674  1.0000
  H   H2407     1.0  0.54467  0.95419  0.56319  1.0000
  C   C2390     1.0  0.49898  0.97036  0.52605  1.0000
  H   H2408     1.0  0.39488  0.95277  0.60844  1.0000
  Fe  Fe390     1.0  0.56307  0.96407  0.50837  1.0000
  H   H2409     1.0  0.50772  0.97638  0.61072  1.0000
  C   C2391     1.0  0.47448  0.98191  0.71600  1.0000
  S   S804      1.0  0.54963  0.95736  0.50674  1.0000
  H   H2410     1.0  0.50012  0.95951  0.61782  1.0000
  C   C2392     1.0  0.43442  0.96556  0.65006  1.0000
  H   H2411     1.0  0.49556  0.95190  0.63787  1.0000
  Fe  Fe391     1.0  0.54102  0.97502  0.50257  1.0000
  C   C2393     1.0  0.42251  0.96214  0.70142  1.0000
  H   H2412     1.0  0.49072  0.95561  0.65620  1.0000
  H   H2413     1.0  0.52082  0.93171  0.55102  1.0000
  C   C2394     1.0  0.47639  0.97043  0.71866  1.0000
  C   C2395     1.0  0.42324  0.96028  0.71239  1.0000
  C   C2396     1.0  0.47966  0.96464  0.72854  1.0000
  S   S805      1.0  0.55499  0.98170  0.50262  1.0000
  H   H2414     1.0  0.42933  0.96314  0.71435  1.0000
  C   C2397     1.0  0.43905  0.96484  0.66719  1.0000
  C   C2398     1.0  0.49907  0.95913  0.63486  1.0000
  C   C2399     1.0  0.43759  0.97489  0.58021  1.0000
  C   C2400     1.0  0.50746  0.95110  0.52719  1.0000
  C   C2401     1.0  0.43995  0.95989  0.65855  1.0000
  C   C2402     1.0  0.47716  0.98193  0.64378  1.0000
  C   C2403     1.0  0.42686  0.98092  0.65907  1.0000
  H   H2415     1.0  0.44015  0.98496  0.72525  1.0000
  H   H2416     1.0  0.44493  0.95169  0.65843  1.0000
  C   C2404     1.0  0.47283  0.97250  0.64762  1.0000
  C   C2405     1.0  0.50107  0.95256  0.56023  1.0000
  C   C2406     1.0  0.50648  0.94191  0.55892  1.0000
  C   C2407     1.0  0.51673  0.94004  0.55185  1.0000
  C   C2408     1.0  0.52162  0.94881  0.54572  1.0000
  C   C2409     1.0  0.51623  0.95957  0.54689  1.0000
  C   C2410     1.0  0.50597  0.96144  0.55424  1.0000
  C   C2411     1.0  0.51446  0.96444  0.51208  1.0000
  C   C2412     1.0  0.40757  0.95337  0.70707  1.0000
  H   H2417     1.0  0.51992  0.96642  0.54215  1.0000
  H   H2418     1.0  0.50172  0.96972  0.55505  1.0000
  H   H2419     1.0  0.50270  0.93504  0.56342  1.0000
  Fe  Fe392     1.0  0.47444  0.97179  0.60165  1.0000
  H   H2420     1.0  0.40603  0.96784  0.63718  1.0000
  C   C2413     1.0  0.41933  0.97420  0.57970  1.0000
  C   C2414     1.0  0.43051  0.96948  0.57846  1.0000
  C   C2415     1.0  0.47793  0.98138  0.62491  1.0000
  S   S806      1.0  0.48040  0.98750  0.65307  1.0000
  N   N202      1.0  0.40428  0.95645  0.61733  1.0000
  H   H2421     1.0  0.43370  0.96159  0.57615  1.0000
  H   H2422     1.0  0.44619  0.97118  0.57922  1.0000
  S   S807      1.0  0.41060  0.96704  0.57783  1.0000
  H   H2423     1.0  0.49515  0.96625  0.65876  1.0000
  H   H2424     1.0  0.41324  0.95912  0.60063  1.0000
  H   H2425     1.0  0.40466  0.94118  0.61409  1.0000
  H   H2426     1.0  0.45028  0.98033  0.64246  1.0000
  S   S808      1.0  0.58079  0.95876  0.50013  1.0000
  C   C2416     1.0  0.44571  0.98441  0.62298  1.0000
  H   H2427     1.0  0.48139  0.95574  0.73054  1.0000
  H   H2428     1.0  0.54430  0.97573  0.54924  1.0000
  H   H2429     1.0  0.46854  0.95971  0.64317  1.0000
  C   C2417     1.0  0.47550  0.98757  0.72334  1.0000
  N   N203      1.0  0.51476  0.95369  0.51749  1.0000
  N   N204      1.0  0.53167  0.96765  0.55956  1.0000
  C   C2418     1.0  0.40264  0.98506  0.71061  1.0000
  Fe  Fe393     1.0  0.54736  0.98095  0.52050  1.0000
  C   C2419     1.0  0.41163  0.96100  0.60868  1.0000
  H   H2430     1.0  0.41433  0.96937  0.68319  1.0000
  C   C2420     1.0  0.39874  0.94889  0.61563  1.0000
  C   C2421     1.0  0.53821  0.95666  0.55844  1.0000
  H   H2431     1.0  0.47216  0.98645  0.70833  1.0000
  Fe  Fe394     1.0  0.46719  0.97234  0.69515  1.0000
  Fe  Fe395     1.0  0.39264  0.97369  0.58350  1.0000
  S   S809      1.0  0.39895  0.97607  0.66639  1.0000
  C   C2422     1.0  0.51948  0.98857  0.56169  1.0000
  H   H2432     1.0  0.45174  0.97682  0.62448  1.0000
  H   H2433     1.0  0.50548  0.97782  0.64400  1.0000
  C   C2423     1.0  0.47424  0.97155  0.62876  1.0000
  C   C2424     1.0  0.47155  0.96723  0.64013  1.0000
  Fe  Fe396     1.0  0.45320  0.96928  0.68169  1.0000
  N   N205      1.0  0.50042  0.96431  0.64209  1.0000
  C   C2425     1.0  0.41526  0.98439  0.58272  1.0000
  C   C2426     1.0  0.43353  0.98512  0.58310  1.0000
  H   H2434     1.0  0.52554  0.94708  0.50399  1.0000
  H   H2435     1.0  0.52037  0.96652  0.50452  1.0000
  H   H2436     1.0  0.44287  0.98080  0.60885  1.0000
  H   H2437     1.0  0.43505  0.96169  0.64345  1.0000
  H   H2438     1.0  0.43181  0.97925  0.67404  1.0000
  C   C2427     1.0  0.50170  0.96336  0.62348  1.0000
  S   S810      1.0  0.47366  0.98490  0.57082  1.0000
  C   C2428     1.0  0.40806  0.95139  0.71813  1.0000
  C   C2429     1.0  0.41429  0.96062  0.68732  1.0000
  H   H2439     1.0  0.57932  0.96062  0.52231  1.0000
  H   H2440     1.0  0.40680  0.95890  0.68643  1.0000
  H   H2441     1.0  0.53318  0.95034  0.56139  1.0000
  C   C2430     1.0  0.42771  0.97600  0.65045  1.0000
  C   C2431     1.0  0.52132  0.96887  0.56599  1.0000
  N   N206      1.0  0.41472  0.95872  0.69890  1.0000
  H   H2442     1.0  0.53071  0.94376  0.51637  1.0000
  C   C2432     1.0  0.43265  0.97543  0.66732  1.0000
  H   H2443     1.0  0.39661  0.95503  0.63443  1.0000
  H   H2444     1.0  0.41622  0.95358  0.72935  1.0000
  C   C2433     1.0  0.49938  0.95937  0.53155  1.0000
  H   H2445     1.0  0.54205  0.95661  0.54962  1.0000
  H   H2446     1.0  0.40214  0.94753  0.72465  1.0000
  C   C2434     1.0  0.53610  0.97665  0.55435  1.0000
  C   C2435     1.0  0.41506  0.97070  0.62032  1.0000
  H   H2447     1.0  0.49366  0.95729  0.53931  1.0000
  C   C2436     1.0  0.39189  0.97386  0.72557  1.0000
  H   H2448     1.0  0.40404  0.98094  0.72754  1.0000
  H   H2449     1.0  0.42151  0.95531  0.68299  1.0000
  H   H2450     1.0  0.40129  0.95079  0.70511  1.0000
  C   C2437     1.0  0.39737  0.98396  0.70308  1.0000
  H   H2451     1.0  0.42814  0.96641  0.69492  1.0000
  C   C2438     1.0  0.44067  0.98659  0.61417  1.0000
  C   C2439     1.0  0.49770  0.95968  0.65399  1.0000
  H   H2452     1.0  0.51776  0.96176  0.57015  1.0000
  H   H2453     1.0  0.42297  0.97172  0.60316  1.0000
  C   C2440     1.0  0.53010  0.98723  0.55540  1.0000
  H   H2454     1.0  0.52068  0.93703  0.51567  1.0000
  H   H2455     1.0  0.50643  0.98144  0.51190  1.0000
  C   C2441     1.0  0.47796  0.98185  0.73356  1.0000
  C   C2442     1.0  0.50461  0.97358  0.63827  1.0000
  C   C2443     1.0  0.40764  0.96594  0.62914  1.0000
  Fe  Fe397     1.0  0.45970  0.98380  0.58557  1.0000
  H   H2456     1.0  0.41924  0.97629  0.62146  1.0000
  C   C2444     1.0  0.48031  0.97034  0.73606  1.0000
  Fe  Fe398     1.0  0.47073  0.98210  0.67021  1.0000
  C   C2445     1.0  0.41595  0.95488  0.72078  1.0000
  H   H2457     1.0  0.51033  0.98560  0.62394  1.0000
  C   C2446     1.0  0.58756  0.96061  0.51768  1.0000
  H   H2458     1.0  0.50484  0.95360  0.65662  1.0000
  H   H2459     1.0  0.49286  0.97685  0.52945  1.0000
  C   C2447     1.0  0.50588  0.97287  0.61952  1.0000
  C   C2448     1.0  0.50737  0.97803  0.62693  1.0000
  H   H2460     1.0  0.53813  0.96006  0.48888  1.0000
  H   H2461     1.0  0.40667  0.98812  0.58368  1.0000
  C   C2449     1.0  0.44497  0.97932  0.73091  1.0000
  H   H2462     1.0  0.39213  0.94674  0.62286  1.0000
  H   H2463     1.0  0.46046  0.94823  0.72898  1.0000
  S   S811      1.0  0.53134  0.98337  0.48961  1.0000
  H   H2464     1.0  0.47996  0.98478  0.61615  1.0000
  C   C2450     1.0  0.38915  0.97802  0.70682  1.0000
  C   C2451     1.0  0.40505  0.97495  0.79809  1.0000
  C   C2452     1.0  0.39378  0.91362  0.90547  1.0000
  N   N207      1.0  0.39987  0.91106  0.98163  1.0000
  Fe  Fe399     1.0  0.41436  0.78753  0.93077  1.0000
  Fe  Fe400     1.0  0.48947  0.97679  0.84576  1.0000
  H   H2465     1.0  0.46574  0.68732  0.95446  1.0000
  S   S812      1.0  0.50157  0.96439  0.83685  1.0000
  Fe  Fe401     1.0  0.47532  0.98035  0.86805  1.0000
  S   S813      1.0  0.46885  0.97369  0.88611  1.0000
  H   H2466     1.0  0.39117  0.90613  0.91022  1.0000
  S   S814      1.0  0.47297  0.97377  0.85486  1.0000
  S   S815      1.0  0.41447  0.85522  0.93495  1.0000
  S   S816      1.0  0.43151  0.94246  0.76371  1.0000
  S   S817      1.0  0.39723  0.79722  0.93146  1.0000
  C   C2453     1.0  0.38835  0.97203  0.81126  1.0000
  S   S818      1.0  0.40978  0.77121  0.93876  1.0000
  H   H2467     1.0  0.50346  0.50827  0.92678  1.0000
  S   S819      1.0  0.40010  0.87054  0.95926  1.0000
  H   H2468     1.0  0.42225  0.83211  0.93494  1.0000
  H   H2469     1.0  0.47928  0.65810  0.90370  1.0000
  Fe  Fe402     1.0  0.46695  0.96696  0.78220  1.0000
  S   S820      1.0  0.45974  0.95209  0.79048  1.0000
  C   C2454     1.0  0.48111  0.66204  0.97657  1.0000
  S   S821      1.0  0.48324  0.96560  0.77040  1.0000
  Fe  Fe403     1.0  0.45899  0.61914  0.95616  1.0000
  S   S822      1.0  0.45772  0.61086  0.94373  1.0000
  C   C2455     1.0  0.45778  0.94930  0.73764  1.0000
  Fe  Fe404     1.0  0.46557  0.63912  0.93924  1.0000
  S   S823      1.0  0.46486  0.63262  0.92514  1.0000
  S   S824      1.0  0.47236  0.65294  0.94026  1.0000
  Fe  Fe405     1.0  0.44940  0.62781  0.93615  1.0000
  S   S825      1.0  0.43360  0.63194  0.93055  1.0000
  Fe  Fe406     1.0  0.47326  0.61617  0.93393  1.0000
  S   S826      1.0  0.48737  0.60470  0.92522  1.0000
  S   S827      1.0  0.44951  0.63572  0.94949  1.0000
  S   S828      1.0  0.47510  0.62305  0.94708  1.0000
  S   S829      1.0  0.40018  0.60024  0.94905  1.0000
  Fe  Fe407     1.0  0.46384  0.71395  0.92273  1.0000
  Fe  Fe408     1.0  0.48706  0.97467  0.78081  1.0000
  S   S830      1.0  0.46388  0.70214  0.91286  1.0000
  Fe  Fe409     1.0  0.46827  0.73474  0.92588  1.0000
  S   S831      1.0  0.45793  0.73310  0.94290  1.0000
  S   S832      1.0  0.47553  0.74982  0.91896  1.0000
  H   H2470     1.0  0.39443  0.76295  0.97431  1.0000
  H   H2471     1.0  0.45839  0.77107  0.90889  1.0000
  Fe  Fe410     1.0  0.44635  0.72877  0.93603  1.0000
  S   S833      1.0  0.42841  0.73530  0.93998  1.0000
  S   S834      1.0  0.47740  0.71697  0.92823  1.0000
  S   S835      1.0  0.45584  0.73190  0.91863  1.0000
  C   C2456     1.0  0.48733  0.49258  0.94645  1.0000
  S   S836      1.0  0.42673  0.78955  0.91476  1.0000
  H   H2472     1.0  0.47933  0.60495  0.96727  1.0000
  S   S837      1.0  0.47025  0.80971  0.95423  1.0000
  H   H2473     1.0  0.42530  0.95424  0.90935  1.0000
  Fe  Fe411     1.0  0.46101  0.81769  0.92703  1.0000
  S   S838      1.0  0.47802  0.80837  0.92836  1.0000
  S   S839      1.0  0.45589  0.82217  0.91094  1.0000
  Fe  Fe412     1.0  0.46942  0.79868  0.94408  1.0000
  S   S840      1.0  0.47255  0.78031  0.95099  1.0000
  Fe  Fe413     1.0  0.47698  0.82050  0.93836  1.0000
  S   S841      1.0  0.48905  0.82934  0.93961  1.0000
  H   H2474     1.0  0.57578  0.58903  0.90478  1.0000
  S   S842      1.0  0.46074  0.83059  0.93549  1.0000
  Fe  Fe414     1.0  0.48367  0.91639  0.92303  1.0000
  S   S843      1.0  0.46978  0.91110  0.92078  1.0000
  S   S844      1.0  0.49304  0.92665  0.90825  1.0000
  Fe  Fe415     1.0  0.48080  0.90442  0.94699  1.0000
  S   S845      1.0  0.46674  0.89796  0.94662  1.0000
  S   S846      1.0  0.48585  0.89948  0.96334  1.0000
  Fe  Fe416     1.0  0.47646  0.89438  0.93032  1.0000
  S   S847      1.0  0.47375  0.88105  0.92391  1.0000
  Fe  Fe417     1.0  0.46120  0.91501  0.93718  1.0000
  S   S848      1.0  0.44355  0.92327  0.93942  1.0000
  S   S849      1.0  0.49123  0.89929  0.93134  1.0000
  S   S850      1.0  0.47442  0.92187  0.93872  1.0000
  N   N208      1.0  0.45002  0.94981  0.89203  1.0000
  H   H2475     1.0  0.39298  0.82730  0.98466  1.0000
  Fe  Fe418     1.0  0.54157  0.56842  0.93950  1.0000
  S   S851      1.0  0.55430  0.56161  0.94960  1.0000
  S   S852      1.0  0.53156  0.58524  0.94178  1.0000
  Fe  Fe419     1.0  0.54808  0.54813  0.92964  1.0000
  S   S853      1.0  0.56126  0.53960  0.93894  1.0000
  S   S854      1.0  0.54600  0.54170  0.91611  1.0000
  Fe  Fe420     1.0  0.54895  0.54579  0.95304  1.0000
  S   S855      1.0  0.54660  0.53592  0.97037  1.0000
  Fe  Fe421     1.0  0.56553  0.55612  0.93467  1.0000
  H   H2476     1.0  0.58664  0.58266  0.92011  1.0000
  S   S856      1.0  0.53526  0.55295  0.94421  1.0000
  S   S857      1.0  0.55329  0.56432  0.92413  1.0000
  C   C2457     1.0  0.56668  0.53941  0.96827  1.0000
  C   C2458     1.0  0.45166  0.79791  0.97883  1.0000
  C   C2459     1.0  0.48477  0.64100  0.90272  1.0000
  H   H2477     1.0  0.56755  0.54078  0.95948  1.0000
  S   S858      1.0  0.41098  0.95383  0.85865  1.0000
  C   C2460     1.0  0.54049  0.53018  0.91809  1.0000
  C   C2461     1.0  0.53874  0.52264  0.92824  1.0000
  C   C2462     1.0  0.40857  0.82450  0.94326  1.0000
  C   C2463     1.0  0.44053  0.79972  0.98350  1.0000
  C   C2464     1.0  0.53811  0.52842  0.90893  1.0000
  H   H2478     1.0  0.54054  0.52397  0.93535  1.0000
  H   H2479     1.0  0.45038  0.96817  0.82496  1.0000
  C   C2465     1.0  0.47472  0.92780  0.97466  1.0000
  H   H2480     1.0  0.46480  0.94511  0.74159  1.0000
  C   C2466     1.0  0.40385  0.72168  0.98020  1.0000
  C   C2467     1.0  0.45263  0.72954  0.98260  1.0000
  H   H2481     1.0  0.50988  0.95364  0.89297  1.0000
  C   C2468     1.0  0.43609  0.91343  0.94760  1.0000
  C   C2469     1.0  0.43954  0.90601  0.95677  1.0000
  C   C2470     1.0  0.43423  0.89739  0.96257  1.0000
  C   C2471     1.0  0.42554  0.89617  0.95912  1.0000
  C   C2472     1.0  0.42199  0.90373  0.95008  1.0000
  C   C2473     1.0  0.42710  0.91248  0.94448  1.0000
  H   H2482     1.0  0.44627  0.90696  0.95941  1.0000
  H   H2483     1.0  0.46443  0.93885  0.89640  1.0000
  H   H2484     1.0  0.41532  0.90287  0.94731  1.0000
  H   H2485     1.0  0.42433  0.91826  0.93746  1.0000
  C   C2474     1.0  0.48540  0.84376  0.93493  1.0000
  C   C2475     1.0  0.48865  0.85085  0.93923  1.0000
  C   C2476     1.0  0.48537  0.86237  0.93579  1.0000
  C   C2477     1.0  0.47889  0.86680  0.92798  1.0000
  C   C2478     1.0  0.47588  0.85971  0.92354  1.0000
  C   C2479     1.0  0.47911  0.84826  0.92699  1.0000
  H   H2486     1.0  0.49359  0.84743  0.94532  1.0000
  H   H2487     1.0  0.48776  0.86779  0.93923  1.0000
  H   H2488     1.0  0.47105  0.86307  0.91735  1.0000
  H   H2489     1.0  0.47696  0.84290  0.92328  1.0000
  C   C2480     1.0  0.43481  0.79863  0.91369  1.0000
  C   C2481     1.0  0.43276  0.80441  0.92194  1.0000
  C   C2482     1.0  0.43928  0.81162  0.92108  1.0000
  C   C2483     1.0  0.44777  0.81321  0.91187  1.0000
  C   C2484     1.0  0.44967  0.80768  0.90343  1.0000
  C   C2485     1.0  0.44325  0.80030  0.90440  1.0000
  H   H2490     1.0  0.42598  0.80364  0.92882  1.0000
  H   H2491     1.0  0.43754  0.81617  0.92744  1.0000
  H   H2492     1.0  0.45624  0.80894  0.89627  1.0000
  H   H2493     1.0  0.44482  0.79591  0.89794  1.0000
  C   C2486     1.0  0.54595  0.56366  0.98546  1.0000
  H   H2494     1.0  0.50604  0.62977  0.93008  1.0000
  C   C2487     1.0  0.45366  0.97582  0.74601  1.0000
  C   C2488     1.0  0.45104  0.84394  0.98158  1.0000
  C   C2489     1.0  0.40832  0.71434  0.95395  1.0000
  C   C2490     1.0  0.41264  0.72345  0.94764  1.0000
  H   H2495     1.0  0.43616  0.98613  0.83788  1.0000
  C   C2491     1.0  0.48893  0.64866  0.91562  1.0000
  H   H2496     1.0  0.50224  0.64441  0.92897  1.0000
  H   H2497     1.0  0.40836  0.72964  0.94185  1.0000
  C   C2492     1.0  0.47465  0.75825  0.92794  1.0000
  C   C2493     1.0  0.47615  0.76906  0.92354  1.0000
  C   C2494     1.0  0.47532  0.77598  0.93053  1.0000
  C   C2495     1.0  0.47331  0.77201  0.94197  1.0000
  C   C2496     1.0  0.47199  0.76115  0.94637  1.0000
  C   C2497     1.0  0.47255  0.75435  0.93940  1.0000
  H   H2498     1.0  0.47786  0.77214  0.91469  1.0000
  H   H2499     1.0  0.47641  0.78432  0.92705  1.0000
  H   H2500     1.0  0.47047  0.75800  0.95520  1.0000
  H   H2501     1.0  0.47151  0.74606  0.94291  1.0000
  H   H2502     1.0  0.40289  0.87287  0.98067  1.0000
  C   C2498     1.0  0.46778  0.71438  0.97852  1.0000
  H   H2503     1.0  0.43580  0.94069  0.92256  1.0000
  C   C2499     1.0  0.49924  0.59883  0.93056  1.0000
  C   C2500     1.0  0.50171  0.60344  0.93787  1.0000
  C   C2501     1.0  0.51162  0.59917  0.94129  1.0000
  C   C2502     1.0  0.51904  0.59009  0.93762  1.0000
  C   C2503     1.0  0.51650  0.58531  0.93051  1.0000
  C   C2504     1.0  0.50669  0.58976  0.92689  1.0000
  H   H2504     1.0  0.49614  0.61045  0.94070  1.0000
  H   H2505     1.0  0.51355  0.60294  0.94675  1.0000
  H   H2506     1.0  0.52217  0.57832  0.92761  1.0000
  H   H2507     1.0  0.50487  0.58616  0.92120  1.0000
  H   H2508     1.0  0.40087  0.71337  0.95276  1.0000
  H   H2509     1.0  0.40877  0.93096  0.90594  1.0000
  S   S859      1.0  0.41590  0.88315  0.93790  1.0000
  H   H2510     1.0  0.39295  0.85352  0.94835  1.0000
  S   S860      1.0  0.52715  0.50034  0.92036  1.0000
  C   C2505     1.0  0.42456  0.62287  0.93567  1.0000
  C   C2506     1.0  0.42779  0.61195  0.94119  1.0000
  C   C2507     1.0  0.42032  0.60499  0.94519  1.0000
  C   C2508     1.0  0.40954  0.60898  0.94391  1.0000
  C   C2509     1.0  0.40628  0.61995  0.93858  1.0000
  C   C2510     1.0  0.41379  0.62681  0.93437  1.0000
  H   H2511     1.0  0.43607  0.60880  0.94220  1.0000
  H   H2512     1.0  0.42292  0.59652  0.94929  1.0000
  H   H2513     1.0  0.39801  0.62312  0.93750  1.0000
  H   H2514     1.0  0.41122  0.63525  0.93014  1.0000
  C   C2511     1.0  0.46939  0.66658  0.93270  1.0000
  C   C2512     1.0  0.46400  0.66952  0.92406  1.0000
  C   C2513     1.0  0.46237  0.68045  0.91788  1.0000
  C   C2514     1.0  0.46591  0.68847  0.92052  1.0000
  C   C2515     1.0  0.47115  0.68551  0.92927  1.0000
  C   C2516     1.0  0.47304  0.67457  0.93521  1.0000
  H   H2515     1.0  0.46119  0.66337  0.92206  1.0000
  H   H2516     1.0  0.45831  0.68272  0.91111  1.0000
  H   H2517     1.0  0.47403  0.69161  0.93125  1.0000
  H   H2518     1.0  0.47746  0.67229  0.94170  1.0000
  C   C2517     1.0  0.44042  0.94484  0.77016  1.0000
  C   C2518     1.0  0.44530  0.93630  0.77779  1.0000
  C   C2519     1.0  0.45139  0.93853  0.78392  1.0000
  C   C2520     1.0  0.45285  0.94922  0.78221  1.0000
  C   C2521     1.0  0.44829  0.95765  0.77431  1.0000
  C   C2522     1.0  0.44202  0.95547  0.76836  1.0000
  H   H2519     1.0  0.44405  0.92807  0.77922  1.0000
  H   H2520     1.0  0.45492  0.93197  0.79002  1.0000
  H   H2521     1.0  0.44927  0.96593  0.77304  1.0000
  C   C2523     1.0  0.49542  0.62958  0.91589  1.0000
  C   C2524     1.0  0.40819  0.84391  0.94110  1.0000
  N   N209      1.0  0.42225  0.94907  0.80676  1.0000
  C   C2525     1.0  0.48395  0.65007  0.90694  1.0000
  H   H2522     1.0  0.53707  0.55853  0.97203  1.0000
  H   H2523     1.0  0.53323  0.50760  0.93696  1.0000
  C   C2526     1.0  0.47521  0.96031  0.89195  1.0000
  C   C2527     1.0  0.47128  0.95572  0.90308  1.0000
  C   C2528     1.0  0.47650  0.94522  0.90809  1.0000
  C   C2529     1.0  0.48576  0.93935  0.90199  1.0000
  C   C2530     1.0  0.48961  0.94392  0.89084  1.0000
  C   C2531     1.0  0.48429  0.95434  0.88579  1.0000
  H   H2524     1.0  0.46423  0.96032  0.90788  1.0000
  H   H2525     1.0  0.47354  0.94178  0.91672  1.0000
  H   H2526     1.0  0.49679  0.93939  0.88611  1.0000
  H   H2527     1.0  0.48737  0.95783  0.87721  1.0000
  C   C2532     1.0  0.50131  0.96574  0.82302  1.0000
  C   C2533     1.0  0.49342  0.97366  0.81796  1.0000
  H   H2528     1.0  0.55641  0.50024  0.95510  1.0000
  C   C2534     1.0  0.50172  0.96753  0.80075  1.0000
  C   C2535     1.0  0.50959  0.95967  0.80583  1.0000
  C   C2536     1.0  0.50932  0.95871  0.81694  1.0000
  H   H2529     1.0  0.48715  0.97910  0.82257  1.0000
  H   H2530     1.0  0.45575  0.85557  0.93796  1.0000
  H   H2531     1.0  0.51593  0.95431  0.80115  1.0000
  H   H2532     1.0  0.51545  0.95258  0.82079  1.0000
  H   H2533     1.0  0.50893  0.49155  0.91925  1.0000
  C   C2537     1.0  0.49917  0.63708  0.92950  1.0000
  H   H2534     1.0  0.46512  0.86102  0.94909  1.0000
  C   C2538     1.0  0.40430  0.94599  0.80155  1.0000
  H   H2535     1.0  0.47804  0.92340  0.95898  1.0000
  H   H2536     1.0  0.45547  0.93308  0.91601  1.0000
  N   N210      1.0  0.48649  0.97876  0.89820  1.0000
  S   S861      1.0  0.46946  0.85054  0.98054  1.0000
  H   H2537     1.0  0.55069  0.59060  0.94526  1.0000
  H   H2538     1.0  0.48849  0.81479  0.96050  1.0000
  C   C2539     1.0  0.51611  0.98414  0.81826  1.0000
  S   S862      1.0  0.39224  0.96447  0.87816  1.0000
  H   H2539     1.0  0.48751  0.98063  0.80295  1.0000
  H   H2540     1.0  0.51905  0.97628  0.82345  1.0000
  H   H2541     1.0  0.42638  0.82053  0.90249  1.0000
  H   H2542     1.0  0.44670  0.90666  0.98105  1.0000
  H   H2543     1.0  0.42675  0.62930  0.95394  1.0000
  C   C2540     1.0  0.45728  0.78747  0.97692  1.0000
  H   H2544     1.0  0.54989  0.49118  0.91619  1.0000
  C   C2541     1.0  0.55842  0.49042  0.91583  1.0000
  C   C2542     1.0  0.39172  0.57902  0.97203  1.0000
  C   C2543     1.0  0.42666  0.62391  0.97131  1.0000
  S   S863      1.0  0.38924  0.96648  0.73935  1.0000
  N   N211      1.0  0.45447  0.96102  0.73786  1.0000
  H   H2545     1.0  0.49783  0.70799  0.98058  1.0000
  Fe  Fe422     1.0  0.41342  0.98189  0.75185  1.0000
  C   C2544     1.0  0.57337  0.49859  0.91422  1.0000
  C   C2545     1.0  0.55735  0.53639  0.97557  1.0000
  H   H2546     1.0  0.57139  0.50527  0.98193  1.0000
  H   H2547     1.0  0.56877  0.50378  0.96430  1.0000
  C   C2546     1.0  0.41687  0.73577  0.97875  1.0000
  N   N212      1.0  0.49094  0.81244  0.97667  1.0000
  H   H2548     1.0  0.39352  0.82212  0.92121  1.0000
  C   C2547     1.0  0.39765  0.82611  0.94893  1.0000
  H   H2549     1.0  0.39328  0.71127  0.93211  1.0000
  H   H2550     1.0  0.47998  0.82714  0.98000  1.0000
  H   H2551     1.0  0.49166  0.71742  0.94468  1.0000
  H   H2552     1.0  0.45626  0.96237  0.87944  1.0000
  C   C2548     1.0  0.46458  0.95769  0.81691  1.0000
  C   C2549     1.0  0.48051  0.95352  0.82388  1.0000
  C   C2550     1.0  0.45881  0.96395  0.82481  1.0000
  C   C2551     1.0  0.47496  0.95958  0.83197  1.0000
  C   C2552     1.0  0.46408  0.96495  0.83233  1.0000
  H   H2553     1.0  0.50813  0.97085  0.87834  1.0000
  C   C2553     1.0  0.42260  0.72444  0.94863  1.0000
  H   H2554     1.0  0.48908  0.94973  0.82340  1.0000
  H   H2555     1.0  0.47923  0.96038  0.83767  1.0000
  H   H2556     1.0  0.45979  0.97000  0.83833  1.0000
  C   C2554     1.0  0.52476  0.57313  0.96866  1.0000
  C   C2555     1.0  0.48160  0.94698  0.80756  1.0000
  S   S864      1.0  0.41566  0.79089  0.94639  1.0000
  H   H2557     1.0  0.43838  0.96204  0.76238  1.0000
  C   C2556     1.0  0.42191  0.62704  0.96218  1.0000
  H   H2558     1.0  0.49260  0.70806  0.96360  1.0000
  H   H2559     1.0  0.43462  0.96016  0.88999  1.0000
  C   C2557     1.0  0.43389  0.95081  0.90659  1.0000
  C   C2558     1.0  0.45582  0.94221  0.89918  1.0000
  H   H2560     1.0  0.48072  0.64190  0.89618  1.0000
  Fe  Fe423     1.0  0.40884  0.88414  0.95547  1.0000
  H   H2561     1.0  0.43822  0.94304  0.80962  1.0000
  C   C2559     1.0  0.40036  0.91788  0.90930  1.0000
  C   C2560     1.0  0.43977  0.94318  0.91396  1.0000
  C   C2561     1.0  0.43920  0.95411  0.89561  1.0000
  C   C2562     1.0  0.45080  0.93886  0.91026  1.0000
  C   C2563     1.0  0.48760  0.96945  0.90640  1.0000
  H   H2562     1.0  0.58210  0.52286  0.94744  1.0000
  N   N213      1.0  0.42356  0.71290  0.92472  1.0000
  C   C2564     1.0  0.42064  0.70309  0.93009  1.0000
  C   C2565     1.0  0.41584  0.72210  0.92183  1.0000
  C   C2566     1.0  0.40972  0.70234  0.93281  1.0000
  C   C2567     1.0  0.40484  0.72165  0.92446  1.0000
  C   C2568     1.0  0.40180  0.71169  0.92995  1.0000
  H   H2563     1.0  0.38869  0.96930  0.82845  1.0000
  C   C2569     1.0  0.53329  0.56667  0.97366  1.0000
  H   H2564     1.0  0.41815  0.72991  0.91774  1.0000
  C   C2570     1.0  0.53218  0.51176  0.91988  1.0000
  C   C2571     1.0  0.43013  0.97537  0.86553  1.0000
  C   C2572     1.0  0.49351  0.71569  0.96480  1.0000
  S   S865      1.0  0.41107  0.96911  0.82839  1.0000
  Fe  Fe424     1.0  0.45409  0.81934  0.95095  1.0000
  Fe  Fe425     1.0  0.41832  0.95757  0.76092  1.0000
  C   C2573     1.0  0.49643  0.71559  0.97443  1.0000
  S   S866      1.0  0.40150  0.98079  0.85479  1.0000
  C   C2574     1.0  0.50245  0.97042  0.88629  1.0000
  C   C2575     1.0  0.44381  0.98805  0.84971  1.0000
  C   C2576     1.0  0.47327  0.65286  0.96793  1.0000
  H   H2565     1.0  0.43835  0.71408  0.91277  1.0000
  H   H2566     1.0  0.47897  0.72633  0.94947  1.0000
  H   H2567     1.0  0.54204  0.50444  0.95966  1.0000
  H   H2568     1.0  0.51339  0.58879  0.96663  1.0000
  C   C2577     1.0  0.57380  0.53927  0.98364  1.0000
  C   C2578     1.0  0.43514  0.79113  0.98621  1.0000
  H   H2569     1.0  0.45703  0.87475  0.94554  1.0000
  S   S867      1.0  0.38970  0.93566  0.87674  1.0000
  H   H2570     1.0  0.58562  0.58477  0.93878  1.0000
  H   H2571     1.0  0.41508  0.91404  0.97124  1.0000
  N   N214      1.0  0.43810  0.88730  0.91715  1.0000
  C   C2579     1.0  0.44607  0.88702  0.92220  1.0000
  C   C2580     1.0  0.43141  0.89711  0.91359  1.0000
  C   C2581     1.0  0.44731  0.89668  0.92403  1.0000
  C   C2582     1.0  0.43255  0.90694  0.91515  1.0000
  C   C2583     1.0  0.44057  0.90670  0.92039  1.0000
  C   C2584     1.0  0.43701  0.87704  0.91531  1.0000
  H   H2572     1.0  0.45157  0.87931  0.92479  1.0000
  H   H2573     1.0  0.42498  0.89740  0.90969  1.0000
  H   H2574     1.0  0.45350  0.89642  0.92820  1.0000
  H   H2575     1.0  0.42707  0.91465  0.91251  1.0000
  H   H2576     1.0  0.44150  0.91423  0.92175  1.0000
  H   H2577     1.0  0.44360  0.87451  0.90835  1.0000
  H   H2578     1.0  0.43748  0.87035  0.92284  1.0000
  H   H2579     1.0  0.42901  0.87795  0.91341  1.0000
  N   N215      1.0  0.44811  0.86210  0.95234  1.0000
  H   H2580     1.0  0.48808  0.65570  0.91900  1.0000
  C   C2585     1.0  0.43906  0.86338  0.96068  1.0000
  C   C2586     1.0  0.43974  0.85233  0.94496  1.0000
  C   C2587     1.0  0.43020  0.85899  0.96146  1.0000
  C   C2588     1.0  0.43059  0.85338  0.95357  1.0000
  H   H2581     1.0  0.44014  0.70630  0.92623  1.0000
  S   S868      1.0  0.41895  0.88537  0.96621  1.0000
  H   H2582     1.0  0.43870  0.86768  0.96688  1.0000
  Fe  Fe426     1.0  0.39815  0.79944  0.94769  1.0000
  H   H2583     1.0  0.42314  0.85984  0.96819  1.0000
  C   C2589     1.0  0.39323  0.97099  0.82001  1.0000
  C   C2590     1.0  0.40407  0.97184  0.81778  1.0000
  H   H2584     1.0  0.55206  0.58854  0.92654  1.0000
  C   C2591     1.0  0.48145  0.90910  0.97182  1.0000
  C   C2592     1.0  0.40977  0.84028  0.91531  1.0000
  H   H2585     1.0  0.44451  0.77190  0.90842  1.0000
  H   H2586     1.0  0.43693  0.89165  0.96965  1.0000
  H   H2587     1.0  0.45584  0.80460  0.97666  1.0000
  C   C2593     1.0  0.47801  0.92036  0.96764  1.0000
  C   C2594     1.0  0.41352  0.94664  0.81500  1.0000
  H   H2588     1.0  0.46171  0.95906  0.75131  1.0000
  H   H2589     1.0  0.49972  0.62149  0.91943  1.0000
  N   N216      1.0  0.44741  0.76784  0.92450  1.0000
  C   C2595     1.0  0.44161  0.76044  0.93166  1.0000
  C   C2596     1.0  0.44937  0.77591  0.92811  1.0000
  C   C2597     1.0  0.43805  0.76068  0.94285  1.0000
  C   C2598     1.0  0.44597  0.77638  0.93924  1.0000
  C   C2599     1.0  0.44035  0.76865  0.94666  1.0000
  C   C2600     1.0  0.45114  0.76739  0.91282  1.0000
  H   H2590     1.0  0.43970  0.75428  0.92874  1.0000
  H   H2591     1.0  0.45369  0.78199  0.92238  1.0000
  H   H2592     1.0  0.43347  0.75476  0.94850  1.0000
  H   H2593     1.0  0.44774  0.78269  0.94207  1.0000
  H   H2594     1.0  0.43765  0.76890  0.95532  1.0000
  H   H2595     1.0  0.45367  0.75872  0.91187  1.0000
  N   N217      1.0  0.49459  0.63851  0.91997  1.0000
  C   C2601     1.0  0.41338  0.94810  0.79327  1.0000
  H   H2596     1.0  0.52211  0.57014  0.96303  1.0000
  H   H2597     1.0  0.49096  0.62346  0.90429  1.0000
  C   C2602     1.0  0.44850  0.85674  0.94447  1.0000
  C   C2603     1.0  0.49054  0.63068  0.90722  1.0000
  H   H2598     1.0  0.53437  0.51156  0.97604  1.0000
  Fe  Fe427     1.0  0.39868  0.97206  0.77280  1.0000
  C   C2604     1.0  0.41385  0.83337  0.93943  1.0000
  H   H2599     1.0  0.55249  0.55960  0.97935  1.0000
  C   C2605     1.0  0.48052  0.65240  0.97420  1.0000
  H   H2600     1.0  0.43255  0.83732  0.91330  1.0000
  S   S869      1.0  0.41691  0.76408  0.96808  1.0000
  H   H2601     1.0  0.49276  0.63596  0.93719  1.0000
  N   N218      1.0  0.47533  0.95269  0.81645  1.0000
  S   S870      1.0  0.45246  0.80736  0.94227  1.0000
  H   H2602     1.0  0.38890  0.73641  0.94852  1.0000
  C   C2606     1.0  0.39638  0.76519  0.98085  1.0000
  H   H2603     1.0  0.43676  0.77416  0.98629  1.0000
  C   C2607     1.0  0.49355  0.97447  0.80685  1.0000
  H   H2604     1.0  0.48699  0.93915  0.81080  1.0000
  H   H2605     1.0  0.43525  0.62369  0.96997  1.0000
  H   H2606     1.0  0.39813  0.73349  0.96649  1.0000
  H   H2607     1.0  0.42674  0.69580  0.93241  1.0000
  N   N219      1.0  0.45195  0.77905  0.97973  1.0000
  C   C2608     1.0  0.57872  0.58480  0.92547  1.0000
  Fe  Fe428     1.0  0.40946  0.77553  0.95442  1.0000
  C   C2609     1.0  0.50348  0.96080  0.89451  1.0000
  C   C2610     1.0  0.48794  0.72531  0.94741  1.0000
  C   C2611     1.0  0.47753  0.98824  0.90005  1.0000
  H   H2608     1.0  0.40320  0.94049  0.88830  1.0000
  H   H2609     1.0  0.43733  0.83700  0.98328  1.0000
  C   C2612     1.0  0.47800  0.61038  0.97274  1.0000
  H   H2610     1.0  0.48173  0.96892  0.91423  1.0000
  C   C2613     1.0  0.40058  0.82577  0.91765  1.0000
  C   C2614     1.0  0.52340  0.58744  0.97783  1.0000
  C   C2615     1.0  0.48520  0.61958  0.98212  1.0000
  H   H2611     1.0  0.57366  0.57524  0.91100  1.0000
  H   H2612     1.0  0.42914  0.95170  0.78954  1.0000
  H   H2613     1.0  0.46048  0.95715  0.81093  1.0000
  C   C2616     1.0  0.43650  0.98423  0.84649  1.0000
  S   S871      1.0  0.49257  0.98172  0.85975  1.0000
  C   C2617     1.0  0.40986  0.97407  0.80679  1.0000
  H   H2614     1.0  0.40740  0.69461  0.93724  1.0000
  S   S872      1.0  0.45628  0.61285  0.97437  1.0000
  C   C2618     1.0  0.41909  0.82496  0.90720  1.0000
  C   C2619     1.0  0.47441  0.67205  0.97263  1.0000
  S   S873      1.0  0.45338  0.71068  0.93967  1.0000
  C   C2620     1.0  0.45696  0.96470  0.74557  1.0000
  C   C2621     1.0  0.48692  0.61264  0.97497  1.0000
  H   H2615     1.0  0.39330  0.84009  0.92466  1.0000
  C   C2622     1.0  0.42811  0.71648  0.95616  1.0000
  Fe  Fe429     1.0  0.39906  0.96835  0.75024  1.0000
  H   H2616     1.0  0.49937  0.72544  0.98372  1.0000
  C   C2623     1.0  0.40708  0.76565  0.98013  1.0000
  Fe  Fe430     1.0  0.46605  0.71515  0.94489  1.0000
  Fe  Fe431     1.0  0.40576  0.87076  0.94117  1.0000
  S   S874      1.0  0.41698  0.96760  0.74404  1.0000
  C   C2624     1.0  0.42897  0.83895  0.90602  1.0000
  C   C2625     1.0  0.49184  0.79765  0.96843  1.0000
  H   H2617     1.0  0.41291  0.81647  0.94173  1.0000
  C   C2626     1.0  0.38866  0.81321  0.98266  1.0000
  C   C2627     1.0  0.46241  0.72248  0.98462  1.0000
  C   C2628     1.0  0.43503  0.71359  0.92175  1.0000
  H   H2618     1.0  0.39949  0.58075  0.96706  1.0000
  H   H2619     1.0  0.51942  0.97750  0.80384  1.0000
  H   H2620     1.0  0.48673  0.95231  0.80117  1.0000
  S   S875      1.0  0.50270  0.96872  0.78667  1.0000
  C   C2629     1.0  0.41368  0.70649  0.96168  1.0000
  S   S876      1.0  0.40735  0.69613  0.97074  1.0000
  H   H2621     1.0  0.48571  0.64461  0.97716  1.0000
  H   H2622     1.0  0.43568  0.71738  0.95712  1.0000
  H   H2623     1.0  0.43591  0.72097  0.92389  1.0000
  C   C2630     1.0  0.46739  0.61520  0.97755  1.0000
  C   C2631     1.0  0.50267  0.49185  0.92678  1.0000
  C   C2632     1.0  0.42365  0.70750  0.96272  1.0000
  H   H2624     1.0  0.43611  0.80780  0.98500  1.0000
  H   H2625     1.0  0.43516  0.95741  0.80299  1.0000
  H   H2626     1.0  0.40974  0.84793  0.91720  1.0000
  H   H2627     1.0  0.47497  0.67953  0.97446  1.0000
  S   S877      1.0  0.58295  0.55795  0.92769  1.0000
  C   C2633     1.0  0.50732  0.89988  0.97940  1.0000
  C   C2634     1.0  0.45540  0.95381  0.88057  1.0000
  Fe  Fe432     1.0  0.39418  0.95214  0.86827  1.0000
  S   S878      1.0  0.39478  0.89777  0.95174  1.0000
  C   C2635     1.0  0.39060  0.91908  0.89543  1.0000
  H   H2628     1.0  0.39727  0.94376  0.81900  1.0000
  H   H2629     1.0  0.53946  0.53419  0.90107  1.0000
  C   C2636     1.0  0.56170  0.50563  0.97081  1.0000
  S   S879      1.0  0.41645  0.97190  0.76826  1.0000
  C   C2637     1.0  0.57487  0.54085  0.97232  1.0000
  Fe  Fe433     1.0  0.40265  0.96727  0.84649  1.0000
  S   S880      1.0  0.40067  0.95687  0.76663  1.0000
  H   H2630     1.0  0.48410  0.89661  0.98638  1.0000
  H   H2631     1.0  0.47623  0.94493  0.80350  1.0000
  H   H2632     1.0  0.45051  0.95379  0.87482  1.0000
  C   C2638     1.0  0.44437  0.98543  0.86080  1.0000
  H   H2633     1.0  0.40090  0.91020  0.96515  1.0000
  H   H2634     1.0  0.42723  0.84795  0.90249  1.0000
  N   N220      1.0  0.49150  0.72531  0.95717  1.0000
  H   H2635     1.0  0.42778  0.70152  0.96876  1.0000
  C   C2639     1.0  0.40436  0.94520  0.81251  1.0000
  H   H2636     1.0  0.39418  0.81320  0.97464  1.0000
  H   H2637     1.0  0.39881  0.71606  0.98088  1.0000
  H   H2638     1.0  0.49512  0.60895  0.97120  1.0000
  C   C2640     1.0  0.39397  0.92880  0.88919  1.0000
  C   C2641     1.0  0.40051  0.93305  0.89305  1.0000
  C   C2642     1.0  0.40369  0.92760  0.90304  1.0000
  H   H2639     1.0  0.44988  0.71930  0.96239  1.0000
  H   H2640     1.0  0.42187  0.74138  0.97815  1.0000
  H   H2641     1.0  0.40715  0.62955  0.95672  1.0000
  H   H2642     1.0  0.57814  0.55936  0.95074  1.0000
  C   C2643     1.0  0.40044  0.83589  0.91955  1.0000
  H   H2643     1.0  0.45086  0.94522  0.74211  1.0000
  H   H2644     1.0  0.46359  0.83253  0.95516  1.0000
  S   S881      1.0  0.39128  0.88347  0.93615  1.0000
  C   C2644     1.0  0.49724  0.72542  0.97622  1.0000
  C   C2645     1.0  0.41158  0.91018  0.97987  1.0000
  H   H2645     1.0  0.46367  0.94866  0.87826  1.0000
  C   C2646     1.0  0.45542  0.90627  0.98038  1.0000
  C   C2647     1.0  0.42229  0.94971  0.79604  1.0000
  H   H2646     1.0  0.45780  0.68844  0.96809  1.0000
  S   S882      1.0  0.39534  0.98350  0.75692  1.0000
  C   C2648     1.0  0.39739  0.84543  0.94703  1.0000
  S   S883      1.0  0.44270  0.82654  0.96491  1.0000
  C   C2649     1.0  0.49390  0.97941  0.88832  1.0000
  C   C2650     1.0  0.54991  0.50669  0.95866  1.0000
  H   H2647     1.0  0.49023  0.73207  0.94034  1.0000
  C   C2651     1.0  0.48868  0.82426  0.97622  1.0000
  H   H2648     1.0  0.51956  0.59556  0.97956  1.0000
  C   C2652     1.0  0.39216  0.83654  0.95097  1.0000
  Fe  Fe434     1.0  0.40838  0.96710  0.86761  1.0000
  C   C2653     1.0  0.57819  0.58593  0.93605  1.0000
  S   S884      1.0  0.47137  0.70572  0.96054  1.0000
  S   S885      1.0  0.42083  0.96848  0.87558  1.0000
  N   N221      1.0  0.46727  0.67242  0.96654  1.0000
  S   S886      1.0  0.47136  0.97470  0.79326  1.0000
  C   C2654     1.0  0.41091  0.62719  0.96375  1.0000
  C   C2655     1.0  0.53390  0.51934  0.90984  1.0000
  H   H2649     1.0  0.47379  0.84234  0.96093  1.0000
  H   H2650     1.0  0.39717  0.94517  0.79944  1.0000
  H   H2651     1.0  0.50784  0.88252  0.98565  1.0000
  C   C2656     1.0  0.40341  0.73148  0.97219  1.0000
  H   H2652     1.0  0.39055  0.75539  0.94753  1.0000
  C   C2657     1.0  0.43743  0.97921  0.86873  1.0000
  H   H2653     1.0  0.56757  0.58868  0.95154  1.0000
  H   H2654     1.0  0.41342  0.94626  0.82351  1.0000
  C   C2658     1.0  0.49407  0.79002  0.97796  1.0000
  H   H2655     1.0  0.45610  0.91310  0.98360  1.0000
  H   H2656     1.0  0.47210  0.93652  0.97137  1.0000
  C   C2659     1.0  0.45997  0.83570  0.96250  1.0000
  C   C2660     1.0  0.41004  0.73852  0.97136  1.0000
  H   H2657     1.0  0.44009  0.84784  0.93891  1.0000
  H   H2658     1.0  0.49309  0.98685  0.88188  1.0000
  H   H2659     1.0  0.43524  0.83488  0.89973  1.0000
  C   C2661     1.0  0.46576  0.84138  0.96573  1.0000
  H   H2660     1.0  0.49540  0.74294  0.96990  1.0000
  H   H2661     1.0  0.46629  0.88836  0.97242  1.0000
  C   C2662     1.0  0.45338  0.72020  0.96858  1.0000
  C   C2663     1.0  0.44520  0.83831  0.97830  1.0000
  C   C2664     1.0  0.46669  0.66300  0.96412  1.0000
  H   H2662     1.0  0.39622  0.62438  0.97572  1.0000
  Fe  Fe435     1.0  0.40108  0.89596  0.93419  1.0000
  H   H2663     1.0  0.45964  0.90772  0.97151  1.0000
  H   H2664     1.0  0.55689  0.50782  0.91391  1.0000
  C   C2665     1.0  0.44973  0.83404  0.96881  1.0000
  C   C2666     1.0  0.49502  0.73522  0.96846  1.0000
  C   C2667     1.0  0.44803  0.72831  0.97465  1.0000
  H   H2665     1.0  0.49016  0.74270  0.95305  1.0000
  H   H2666     1.0  0.49376  0.82611  0.98074  1.0000
  H   H2667     1.0  0.53204  0.51816  0.90268  1.0000
  C   C2668     1.0  0.42977  0.97773  0.85439  1.0000
  C   C2669     1.0  0.46072  0.68306  0.96203  1.0000
  C   C2670     1.0  0.48151  0.90532  0.98305  1.0000
  Fe  Fe436     1.0  0.47601  0.98237  0.76135  1.0000
  C   C2671     1.0  0.43177  0.95072  0.80937  1.0000
  S   S887      1.0  0.39053  0.81538  0.95342  1.0000
  C   C2672     1.0  0.53463  0.51337  0.92913  1.0000
  C   C2673     1.0  0.46347  0.71356  0.97017  1.0000
  C   C2674     1.0  0.49206  0.73502  0.95896  1.0000
  H   H2668     1.0  0.44056  0.73383  0.97291  1.0000
  C   C2675     1.0  0.49961  0.50135  0.93102  1.0000
  C   C2676     1.0  0.45732  0.86676  0.95163  1.0000
  H   H2669     1.0  0.41821  0.97486  0.80501  1.0000
  C   C2677     1.0  0.51986  0.58362  0.97068  1.0000
  H   H2670     1.0  0.39866  0.72901  0.92246  1.0000
  H   H2671     1.0  0.45741  0.86799  0.95975  1.0000
  C   C2678     1.0  0.54252  0.51000  0.97735  1.0000
  N   N222      1.0  0.55141  0.50727  0.96926  1.0000
  H   H2672     1.0  0.41350  0.94867  0.78472  1.0000
  C   C2679     1.0  0.40994  0.82029  0.91137  1.0000
  N   N223      1.0  0.53693  0.57059  0.98041  1.0000
  C   C2680     1.0  0.46140  0.84532  0.97539  1.0000
  S   S888      1.0  0.40482  0.91142  0.92170  1.0000
  N   N224      1.0  0.41898  0.83473  0.90936  1.0000
  H   H2673     1.0  0.41024  0.81231  0.90997  1.0000
  H   H2674     1.0  0.42391  0.84967  0.95422  1.0000
  H   H2675     1.0  0.58191  0.54352  0.96667  1.0000
  S   S889      1.0  0.45928  0.98304  0.77237  1.0000
  H   H2676     1.0  0.42960  0.95323  0.81739  1.0000
  C   C2681     1.0  0.46549  0.88710  0.98123  1.0000
  C   C2682     1.0  0.55946  0.58791  0.92909  1.0000
  H   H2677     1.0  0.46592  0.78613  0.97318  1.0000
  C   C2683     1.0  0.46570  0.62237  0.98443  1.0000
  H   H2678     1.0  0.40998  0.74603  0.96498  1.0000
  H   H2679     1.0  0.47284  0.64542  0.96590  1.0000
  H   H2680     1.0  0.47543  0.70907  0.97998  1.0000
  Fe  Fe437     1.0  0.38973  0.70158  0.97019  1.0000
  C   C2684     1.0  0.49029  0.80890  0.96791  1.0000
  H   H2681     1.0  0.48672  0.66177  0.98145  1.0000
  H   H2682     1.0  0.46123  0.66329  0.95907  1.0000
  C   C2685     1.0  0.45783  0.76829  0.97729  1.0000
  C   C2686     1.0  0.39433  0.97376  0.80030  1.0000
  H   H2683     1.0  0.57635  0.50586  0.91338  1.0000
  Fe  Fe438     1.0  0.39265  0.78116  0.94088  1.0000
  H   H2684     1.0  0.49505  0.78128  0.97860  1.0000
  H   H2685     1.0  0.47054  0.98570  0.90654  1.0000
  H   H2686     1.0  0.54996  0.51482  0.95283  1.0000
  C   C2687     1.0  0.40478  0.62427  0.97441  1.0000
  H   H2687     1.0  0.48249  0.96584  0.74381  1.0000
  H   H2688     1.0  0.49667  0.95277  0.91101  1.0000
  H   H2689     1.0  0.49123  0.79488  0.96149  1.0000
  C   C2688     1.0  0.55862  0.58909  0.93973  1.0000
  N   N225      1.0  0.42056  0.62119  0.98174  1.0000
  H   H2690     1.0  0.40966  0.97654  0.78970  1.0000
  H   H2691     1.0  0.50867  0.89949  0.97083  1.0000
  H   H2692     1.0  0.49041  0.82909  0.96757  1.0000
  C   C2689     1.0  0.40977  0.62128  0.98337  1.0000
  H   H2693     1.0  0.48966  0.50893  0.94440  1.0000
  H   H2694     1.0  0.46665  0.76684  0.97708  1.0000
  C   C2690     1.0  0.56807  0.58803  0.94323  1.0000
  H   H2695     1.0  0.45698  0.76794  0.96912  1.0000
  C   C2691     1.0  0.38840  0.57003  0.97104  1.0000
  H   H2696     1.0  0.41577  0.90135  0.98168  1.0000
  S   S890      1.0  0.39189  0.78428  0.95727  1.0000
  H   H2697     1.0  0.50551  0.91741  0.97575  1.0000
  N   N226      1.0  0.56943  0.58580  0.92212  1.0000
  H   H2698     1.0  0.45346  0.68209  0.95990  1.0000
  C   C2692     1.0  0.44764  0.98315  0.73863  1.0000
  H   H2699     1.0  0.44998  0.98839  0.86334  1.0000
  C   C2693     1.0  0.49606  0.96032  0.90466  1.0000
  C   C2694     1.0  0.39563  0.91092  0.97317  1.0000
  C   C2695     1.0  0.38904  0.59462  0.98046  1.0000
  C   C2696     1.0  0.56236  0.49975  0.91456  1.0000
  H   H2700     1.0  0.48152  0.49263  0.95429  1.0000
  H   H2701     1.0  0.47416  0.87011  0.98277  1.0000
  H   H2702     1.0  0.45594  0.97876  0.75190  1.0000
  H   H2703     1.0  0.45465  0.76150  0.98366  1.0000
  H   H2704     1.0  0.39189  0.79253  0.97920  1.0000
  C   C2697     1.0  0.50551  0.91000  0.98224  1.0000
  S   S891      1.0  0.49638  0.62203  0.98514  1.0000
  H   H2705     1.0  0.40020  0.67037  0.97454  1.0000
  H   H2706     1.0  0.42434  0.97453  0.85183  1.0000
  C   C2698     1.0  0.44101  0.78079  0.98422  1.0000
  S   S892      1.0  0.38818  0.97446  0.78955  1.0000
  C   C2699     1.0  0.39487  0.67020  0.98265  1.0000
  H   H2707     1.0  0.41333  0.91438  0.98537  1.0000
  C   C2700     1.0  0.49191  0.50170  0.94092  1.0000
  C   C2701     1.0  0.47482  0.92401  0.98589  1.0000
  C   C2702     1.0  0.51627  0.98480  0.80728  1.0000
  C   C2703     1.0  0.56326  0.50639  0.98079  1.0000
  C   C2704     1.0  0.49306  0.80502  0.98608  1.0000
  H   H2708     1.0  0.43762  0.97760  0.87734  1.0000
  C   C2705     1.0  0.57029  0.58410  0.91114  1.0000
  C   C2706     1.0  0.53197  0.58075  0.98270  1.0000
  H   H2709     1.0  0.39542  0.59730  0.97322  1.0000
  H   H2710     1.0  0.56225  0.58652  0.90887  1.0000
  C   C2707     1.0  0.58656  0.55973  0.94710  1.0000
  H   H2711     1.0  0.58626  0.51548  0.98352  1.0000
  H   H2712     1.0  0.39358  0.56488  0.96543  1.0000
  H   H2713     1.0  0.67886  0.45555  0.98782  1.0000
  C   C2708     1.0  0.77662  0.47153  0.01228  1.0000
  H   H2714     1.0  0.78726  0.44389  0.02464  1.0000
  Fe  Fe439     1.0  0.63097  0.47135  0.01104  1.0000
  H   H2715     1.0  0.65502  0.48823  0.02865  1.0000
  S   S893      1.0  0.62249  0.45910  0.00972  1.0000
  H   H2716     1.0  0.77958  0.47282  0.00344  1.0000
  H   H2717     1.0  0.67408  0.46909  0.05641  1.0000
  S   S894      1.0  0.66926  0.47738  0.99580  1.0000
  H   H2718     1.0  0.69084  0.48060  0.99163  1.0000
  H   H2719     1.0  0.68561  0.46365  0.04638  1.0000
  S   S895      1.0  0.64479  0.46808  0.01933  1.0000
  C   C2709     1.0  0.58953  0.46318  0.03391  1.0000
  S   S896      1.0  0.63361  0.48374  0.04330  1.0000
  S   S897      1.0  0.72757  0.47369  0.02976  1.0000
  H   H2720     1.0  0.76622  0.46623  0.04402  1.0000
  H   H2721     1.0  0.60216  0.45423  0.01015  1.0000
  S   S898      1.0  0.72956  0.47406  0.00385  1.0000
  C   C2710     1.0  0.77978  0.46923  0.03044  1.0000
  Fe  Fe440     1.0  0.71635  0.47396  0.01931  1.0000
  S   S899      1.0  0.70352  0.46379  0.02591  1.0000
  Fe  Fe441     1.0  0.74013  0.47586  0.01383  1.0000
  S   S900      1.0  0.75809  0.46900  0.00858  1.0000
  C   C2711     1.0  0.60365  0.47229  0.99095  1.0000
  Fe  Fe442     1.0  0.63559  0.48331  0.02566  1.0000
  C   C2712     1.0  0.68085  0.47122  0.04938  1.0000
  S   S901      1.0  0.63855  0.48198  0.99552  1.0000
  C   C2713     1.0  0.66227  0.45410  0.99522  1.0000
  C   C2714     1.0  0.60118  0.45726  0.01742  1.0000
  H   H2722     1.0  0.66134  0.47515  0.04458  1.0000
  C   C2715     1.0  0.65212  0.45489  0.99321  1.0000
  C   C2716     1.0  0.60880  0.46326  0.02913  1.0000
  H   H2723     1.0  0.61572  0.46469  0.03105  1.0000
  C   C2717     1.0  0.78349  0.47118  0.01899  1.0000
  C   C2718     1.0  0.59086  0.45924  0.02449  1.0000
  H   H2724     1.0  0.59760  0.46784  0.04370  1.0000
  Fe  Fe443     1.0  0.65159  0.48004  0.00449  1.0000
  H   H2725     1.0  0.64528  0.45386  0.00016  1.0000
  C   C2719     1.0  0.76601  0.46995  0.01701  1.0000
  C   C2720     1.0  0.76220  0.46824  0.02844  1.0000
  C   C2721     1.0  0.68883  0.47617  0.00007  1.0000
  C   C2722     1.0  0.59855  0.46499  0.03632  1.0000
  H   H2726     1.0  0.68630  0.47423  0.05250  1.0000
  C   C2723     1.0  0.76912  0.46777  0.03515  1.0000
  H   H2727     1.0  0.75404  0.46692  0.03213  1.0000
  N   N227      1.0  0.67679  0.47954  0.04031  1.0000
  H   H2728     1.0  0.61214  0.46969  0.99140  1.0000
  H   H2729     1.0  0.77269  0.44546  0.01526  1.0000
  H   H2730     1.0  0.66326  0.45264  0.00359  1.0000
  C   C2724     1.0  0.61010  0.45959  0.01957  1.0000
  C   C2725     1.0  0.67864  0.47342  0.00433  1.0000
  C   C2726     1.0  0.67622  0.46738  0.01518  1.0000
  C   C2727     1.0  0.68402  0.46407  0.02169  1.0000
  C   C2728     1.0  0.69407  0.46718  0.01751  1.0000
  C   C2729     1.0  0.69642  0.47326  0.00671  1.0000
  H   H2731     1.0  0.70419  0.47552  0.00347  1.0000
  H   H2732     1.0  0.66845  0.46507  0.01849  1.0000
  H   H2733     1.0  0.68221  0.45922  0.02999  1.0000
  C   C2730     1.0  0.66664  0.48035  0.03886  1.0000
  N   N228      1.0  0.59674  0.48010  0.99640  1.0000
  C   C2731     1.0  0.78077  0.44635  0.01045  1.0000
  H   H2734     1.0  0.77623  0.45030  0.99483  1.0000
  H   H2735     1.0  0.64175  0.48674  0.06033  1.0000
  C   C2732     1.0  0.78276  0.44910  0.99895  1.0000
  S   S902      1.0  0.62115  0.48542  0.01879  1.0000
  H   H2736     1.0  0.76892  0.48330  0.05145  1.0000
  C   C2733     1.0  0.60062  0.48466  0.00337  1.0000
  H   H2737     1.0  0.71517  0.48461  0.98988  1.0000
  H   H2738     1.0  0.59782  0.48084  0.01218  1.0000
  H   H2739     1.0  0.60965  0.48314  0.00142  1.0000
  H   H2740     1.0  0.63472  0.45406  0.98765  1.0000
  H   H2741     1.0  0.69173  0.48493  0.03375  1.0000
  C   C2734     1.0  0.68350  0.48594  0.03288  1.0000
  C   C2735     1.0  0.66297  0.48778  0.02985  1.0000
  H   H2742     1.0  0.75804  0.48843  0.04420  1.0000
  H   H2743     1.0  0.63875  0.04756  0.42366  1.0000
  H   H2744     1.0  0.68466  0.03113  0.48130  1.0000
  C   C2736     1.0  0.59358  0.03255  0.44586  1.0000
  Fe  Fe444     1.0  0.62926  0.04611  0.45370  1.0000
  S   S903      1.0  0.62096  0.04608  0.47131  1.0000
  S   S904      1.0  0.61901  0.05237  0.44103  1.0000
  Fe  Fe445     1.0  0.65198  0.03792  0.45862  1.0000
  S   S905      1.0  0.64555  0.03723  0.47675  1.0000
  S   S906      1.0  0.66964  0.03303  0.44985  1.0000
  Fe  Fe446     1.0  0.63268  0.03003  0.47496  1.0000
  C   C2737     1.0  0.68566  0.00335  0.46894  1.0000
  Fe  Fe447     1.0  0.63441  0.05338  0.47141  1.0000
  C   C2738     1.0  0.60232  0.02802  0.45110  1.0000
  S   S907      1.0  0.63988  0.02925  0.45728  1.0000
  S   S908      1.0  0.64190  0.05486  0.45340  1.0000
  H   H2745     1.0  0.74067  0.99950  0.43975  1.0000
  Fe  Fe448     1.0  0.74616  0.03433  0.45834  1.0000
  S   S909      1.0  0.75651  0.01993  0.45138  1.0000
  S   S910      1.0  0.75445  0.04669  0.46002  1.0000
  Fe  Fe449     1.0  0.72556  0.02509  0.46445  1.0000
  S   S911      1.0  0.73461  0.00976  0.45827  1.0000
  S   S912      1.0  0.70787  0.02712  0.47349  1.0000
  Fe  Fe450     1.0  0.74771  0.00975  0.46628  1.0000
  H   H2746     1.0  0.60023  0.03147  0.47503  1.0000
  Fe  Fe451     1.0  0.74253  0.02147  0.44401  1.0000
  S   S913      1.0  0.74544  0.02025  0.42645  1.0000
  S   S914      1.0  0.73802  0.02404  0.47382  1.0000
  S   S915      1.0  0.73271  0.03693  0.44965  1.0000
  H   H2747     1.0  0.64063  0.99024  0.47406  1.0000
  H   H2748     1.0  0.65809  0.04976  0.41862  1.0000
  H   H2749     1.0  0.65216  0.06476  0.46770  1.0000
  H   H2750     1.0  0.59261  0.05755  0.48078  1.0000
  C   C2739     1.0  0.59273  0.04312  0.43910  1.0000
  C   C2740     1.0  0.69625  0.00250  0.48204  1.0000
  C   C2741     1.0  0.64267  0.06543  0.48416  1.0000
  C   C2742     1.0  0.73747  0.01196  0.42535  1.0000
  C   C2743     1.0  0.73630  0.00221  0.43321  1.0000
  H   H2751     1.0  0.67861  0.00289  0.47573  1.0000
  S   S916      1.0  0.59667  0.99575  0.47246  1.0000
  C   C2744     1.0  0.72520  0.00895  0.41610  1.0000
  C   C2745     1.0  0.73214  0.01518  0.41664  1.0000
  C   C2746     1.0  0.78197  0.01770  0.46420  1.0000
  H   H2752     1.0  0.78479  0.03687  0.42942  1.0000
  H   H2753     1.0  0.72084  0.01165  0.40953  1.0000
  H   H2754     1.0  0.73309  0.02269  0.41051  1.0000
  N   N229      1.0  0.69543  0.00327  0.47080  1.0000
  S   S917      1.0  0.61153  0.99837  0.44128  1.0000
  H   H2755     1.0  0.78560  0.03646  0.47189  1.0000
  N   N230      1.0  0.65241  0.03538  0.42831  1.0000
  C   C2747     1.0  0.61744  0.01213  0.48284  1.0000
  H   H2756     1.0  0.65637  0.04767  0.43337  1.0000
  H   H2757     1.0  0.61807  0.00040  0.46217  1.0000
  H   H2758     1.0  0.70473  0.00177  0.48255  1.0000
  H   H2759     1.0  0.69904  0.05806  0.46117  1.0000
  H   H2760     1.0  0.69297  0.00564  0.44114  1.0000
  H   H2761     1.0  0.59863  0.03842  0.48574  1.0000
  H   H2762     1.0  0.62727  0.03418  0.42733  1.0000
  C   C2748     1.0  0.60061  0.04915  0.43762  1.0000
  H   H2763     1.0  0.58836  0.01624  0.42804  1.0000
  C   C2749     1.0  0.72413  0.05228  0.47551  1.0000
  H   H2764     1.0  0.67676  0.00457  0.45678  1.0000
  H   H2765     1.0  0.66778  0.03957  0.42563  1.0000
  H   H2766     1.0  0.75868  0.06107  0.47563  1.0000
  C   C2750     1.0  0.59307  0.08567  0.48224  1.0000
  H   H2767     1.0  0.61033  0.08227  0.48099  1.0000
  C   C2751     1.0  0.68005  0.03265  0.45625  1.0000
  C   C2752     1.0  0.69084  0.03175  0.45011  1.0000
  C   C2753     1.0  0.69942  0.03053  0.45518  1.0000
  C   C2754     1.0  0.69726  0.03003  0.46650  1.0000
  C   C2755     1.0  0.68644  0.03132  0.47256  1.0000
  C   C2756     1.0  0.67787  0.03264  0.46747  1.0000
  H   H2768     1.0  0.69260  0.03181  0.44141  1.0000
  H   H2769     1.0  0.70772  0.02961  0.45041  1.0000
  H   H2770     1.0  0.63444  0.01433  0.43447  1.0000
  H   H2771     1.0  0.66961  0.03340  0.47230  1.0000
  C   C2757     1.0  0.60446  0.00271  0.47591  1.0000
  C   C2758     1.0  0.61493  0.00353  0.46962  1.0000
  C   C2759     1.0  0.62134  0.00847  0.47297  1.0000
  H   H2772     1.0  0.78333  0.00638  0.45421  1.0000
  H   H2773     1.0  0.73186  0.05456  0.47131  1.0000
  C   C2760     1.0  0.68459  0.00419  0.45827  1.0000
  C   C2761     1.0  0.78102  0.02987  0.47612  1.0000
  H   H2774     1.0  0.62943  0.00908  0.46815  1.0000
  H   H2775     1.0  0.71194  0.00445  0.46364  1.0000
  C   C2762     1.0  0.78214  0.04049  0.43657  1.0000
  C   C2763     1.0  0.64208  0.03887  0.42651  1.0000
  C   C2764     1.0  0.65898  0.04349  0.42635  1.0000
  C   C2765     1.0  0.69364  0.00489  0.44949  1.0000
  H   H2776     1.0  0.66443  0.02177  0.43425  1.0000
  N   N231      1.0  0.70558  0.05305  0.47560  1.0000
  C   C2766     1.0  0.77129  0.04143  0.44258  1.0000
  C   C2767     1.0  0.76779  0.04617  0.45180  1.0000
  C   C2768     1.0  0.77515  0.05020  0.45479  1.0000
  H   H2777     1.0  0.77244  0.03300  0.47521  1.0000
  C   C2769     1.0  0.60037  0.00700  0.48538  1.0000
  H   H2778     1.0  0.76559  0.03869  0.43992  1.0000
  H   H2779     1.0  0.77252  0.05402  0.46177  1.0000
  C   C2770     1.0  0.65004  0.01673  0.43459  1.0000
  H   H2780     1.0  0.71629  0.06120  0.46214  1.0000
  C   C2771     1.0  0.60922  0.04471  0.44307  1.0000
  C   C2772     1.0  0.77435  0.01189  0.42645  1.0000
  H   H2781     1.0  0.61670  0.03061  0.45404  1.0000
  C   C2773     1.0  0.61005  0.03414  0.44986  1.0000
  N   N232      1.0  0.77668  0.99387  0.43838  1.0000
  H   H2782     1.0  0.76135  0.00362  0.43533  1.0000
  H   H2783     1.0  0.65315  0.00809  0.43790  1.0000
  S   S918      1.0  0.75874  0.99483  0.47422  1.0000
  H   H2784     1.0  0.59999  0.05729  0.43230  1.0000
  H   H2785     1.0  0.77462  0.02300  0.46181  1.0000
  C   C2774     1.0  0.66237  0.06208  0.47904  1.0000
  H   H2786     1.0  0.60297  0.01984  0.45627  1.0000
  C   C2775     1.0  0.63953  0.02021  0.43267  1.0000
  C   C2776     1.0  0.70354  0.00490  0.45147  1.0000
  C   C2777     1.0  0.72374  0.99938  0.42416  1.0000
  H   H2787     1.0  0.77671  0.06370  0.47584  1.0000
  C   C2778     1.0  0.78605  0.04906  0.44893  1.0000
  C   C2779     1.0  0.65639  0.02448  0.43243  1.0000
  C   C2780     1.0  0.77005  0.00304  0.43358  1.0000
  C   C2781     1.0  0.78551  0.01129  0.42425  1.0000
  C   C2782     1.0  0.71530  0.05600  0.47036  1.0000
  C   C2783     1.0  0.70429  0.00414  0.46222  1.0000
  H   H2788     1.0  0.69065  0.05154  0.47325  1.0000
  H   H2789     1.0  0.71049  0.00584  0.44466  1.0000
  C   C2784     1.0  0.63552  0.03134  0.42860  1.0000
  N   N233      1.0  0.78626  0.02007  0.47152  1.0000
  C   C2785     1.0  0.72951  0.99589  0.43255  1.0000
  C   C2786     1.0  0.65236  0.06420  0.47614  1.0000
  H   H2790     1.0  0.69167  0.06533  0.47219  1.0000
  H   H2791     1.0  0.66986  0.06101  0.47284  1.0000
  H   H2792     1.0  0.58833  0.03151  0.48631  1.0000
  C   C2787     1.0  0.69632  0.05726  0.47023  1.0000
  S   S919      1.0  0.63039  0.06665  0.48069  1.0000
  H   H2793     1.0  0.76900  0.01918  0.42273  1.0000
  H   H2794     1.0  0.59385  0.08724  0.47341  1.0000
  C   C2788     1.0  0.78765  0.99319  0.43623  1.0000
  C   C2789     1.0  0.58846  0.05665  0.47505  1.0000
  C   C2790     1.0  0.76543  0.99808  0.48249  1.0000
  S   S920      1.0  0.59650  0.99311  0.42241  1.0000
  H   H2795     1.0  0.69118  0.00995  0.48502  1.0000
  C   C2791     1.0  0.59416  0.03650  0.48064  1.0000
  C   C2792     1.0  0.75992  0.06287  0.48283  1.0000
  H   H2796     1.0  0.78083  0.02793  0.48507  1.0000
  C   C2793     1.0  0.70431  0.04656  0.48601  1.0000
  C   C2794     1.0  0.72294  0.04551  0.48608  1.0000
  C   C2795     1.0  0.77003  0.06440  0.48300  1.0000
  C   C2796     1.0  0.77560  0.99162  0.48410  1.0000
  S   S921      1.0  0.71462  0.99204  0.42354  1.0000
  H   H2797     1.0  0.78647  0.07188  0.48398  1.0000
  S   S922      1.0  0.64357  0.99125  0.43514  1.0000
  N   N234      1.0  0.58837  0.04641  0.47414  1.0000
  H   H2798     1.0  0.75298  0.01219  0.48619  1.0000
  H   H2799     1.0  0.65957  0.99169  0.46998  1.0000
  H   H2800     1.0  0.66619  0.99148  0.43015  1.0000
  C   C2797     1.0  0.78689  0.00831  0.45984  1.0000
  H   H2801     1.0  0.61774  0.08202  0.49654  1.0000
  C   C2798     1.0  0.73227  0.99405  0.54912  1.0000
  H   H2802     1.0  0.75521  0.99207  0.52143  1.0000
  S   S923      1.0  0.59925  0.05843  0.52353  1.0000
  H   H2803     1.0  0.70385  0.00970  0.51950  1.0000
  S   S924      1.0  0.66448  0.03067  0.51031  1.0000
  C   C2799     1.0  0.66268  0.06078  0.49003  1.0000
  C   C2800     1.0  0.63463  0.03268  0.50675  1.0000
  H   H2804     1.0  0.70500  0.01453  0.49820  1.0000
  Fe  Fe452     1.0  0.68142  0.03236  0.52970  1.0000
  H   H2805     1.0  0.63767  0.04999  0.52499  1.0000
  S   S925      1.0  0.69320  0.03116  0.53992  1.0000
  H   H2806     1.0  0.71499  0.05182  0.50756  1.0000
  Fe  Fe453     1.0  0.67904  0.01859  0.51540  1.0000
  N   N235      1.0  0.63235  0.02258  0.51200  1.0000
  Fe  Fe454     1.0  0.67357  0.04342  0.50896  1.0000
  S   S926      1.0  0.67285  0.01863  0.53326  1.0000
  H   H2807     1.0  0.62032  0.01293  0.51780  1.0000
  Fe  Fe455     1.0  0.77249  0.03918  0.52122  1.0000
  S   S927      1.0  0.77933  0.02108  0.52589  1.0000
  H   H2808     1.0  0.72970  0.04257  0.49020  1.0000
  Fe  Fe456     1.0  0.75194  0.03620  0.51715  1.0000
  S   S928      1.0  0.75681  0.01786  0.52139  1.0000
  S   S929      1.0  0.73686  0.04488  0.51058  1.0000
  Fe  Fe457     1.0  0.76230  0.02018  0.53529  1.0000
  S   S930      1.0  0.76069  0.00683  0.55057  1.0000
  Fe  Fe458     1.0  0.77343  0.01989  0.51178  1.0000
  N   N236      1.0  0.71806  0.00884  0.50651  1.0000
  S   S931      1.0  0.75581  0.03853  0.53206  1.0000
  S   S932      1.0  0.76820  0.03806  0.50601  1.0000
  H   H2809     1.0  0.63550  0.06515  0.50139  1.0000
  C   C2801     1.0  0.74955  0.00162  0.55103  1.0000
  C   C2802     1.0  0.73937  0.00873  0.55082  1.0000
  C   C2803     1.0  0.73067  0.00483  0.55023  1.0000
  H   H2810     1.0  0.70967  0.99975  0.50182  1.0000
  H   H2811     1.0  0.74654  0.06581  0.50878  1.0000
  C   C2804     1.0  0.75140  0.06352  0.49210  1.0000
  H   H2812     1.0  0.73818  0.01723  0.55120  1.0000
  H   H2813     1.0  0.72273  0.01022  0.55036  1.0000
  H   H2814     1.0  0.76558  0.99667  0.53187  1.0000
  C   C2805     1.0  0.61608  0.03979  0.50468  1.0000
  C   C2806     1.0  0.70498  0.03609  0.53227  1.0000
  C   C2807     1.0  0.71441  0.03263  0.53649  1.0000
  C   C2808     1.0  0.72426  0.03535  0.52997  1.0000
  C   C2809     1.0  0.72456  0.04198  0.51935  1.0000
  C   C2810     1.0  0.71493  0.04618  0.51549  1.0000
  C   C2811     1.0  0.70521  0.04306  0.52182  1.0000
  H   H2815     1.0  0.71410  0.02768  0.54476  1.0000
  H   H2816     1.0  0.73158  0.03231  0.53316  1.0000
  H   H2817     1.0  0.69662  0.04420  0.49011  1.0000
  H   H2818     1.0  0.69786  0.04620  0.51869  1.0000
  H   H2819     1.0  0.69924  0.00273  0.55237  1.0000
  C   C2812     1.0  0.76974  0.99109  0.52644  1.0000
  H   H2820     1.0  0.78168  0.07288  0.49818  1.0000
  S   S933      1.0  0.67519  0.05687  0.49384  1.0000
  Fe  Fe459     1.0  0.65870  0.03154  0.52809  1.0000
  H   H2821     1.0  0.74306  0.00988  0.50806  1.0000
  C   C2813     1.0  0.69282  0.00225  0.54856  1.0000
  H   H2822     1.0  0.76290  0.01730  0.49692  1.0000
  S   S934      1.0  0.64241  0.02720  0.53675  1.0000
  C   C2814     1.0  0.61382  0.02947  0.51001  1.0000
  H   H2823     1.0  0.65790  0.01013  0.49059  1.0000
  H   H2824     1.0  0.68479  0.99562  0.53534  1.0000
  H   H2825     1.0  0.69424  0.00735  0.54006  1.0000
  H   H2826     1.0  0.71200  0.03713  0.49944  1.0000
  H   H2827     1.0  0.78127  0.99532  0.53704  1.0000
  C   C2815     1.0  0.77675  0.00384  0.49473  1.0000
  H   H2828     1.0  0.73354  0.00733  0.49526  1.0000
  H   H2829     1.0  0.60398  0.03555  0.53536  1.0000
  H   H2830     1.0  0.59070  0.08001  0.51360  1.0000
  C   C2816     1.0  0.72870  0.01122  0.52117  1.0000
  C   C2817     1.0  0.76086  0.00727  0.48722  1.0000
  S   S935      1.0  0.68624  0.00204  0.51125  1.0000
  C   C2818     1.0  0.62065  0.05369  0.52459  1.0000
  H   H2831     1.0  0.76447  0.06870  0.50862  1.0000
  C   C2819     1.0  0.62207  0.99135  0.51105  1.0000
  C   C2820     1.0  0.59144  0.08166  0.50476  1.0000
  C   C2821     1.0  0.76645  0.01010  0.49342  1.0000
  H   H2832     1.0  0.64267  0.03412  0.50555  1.0000
  C   C2822     1.0  0.61130  0.03872  0.53308  1.0000
  C   C2823     1.0  0.64295  0.06443  0.49511  1.0000
  H   H2833     1.0  0.60971  0.04659  0.50200  1.0000
  S   S936      1.0  0.78098  0.05286  0.51861  1.0000
  C   C2824     1.0  0.60696  0.01145  0.48900  1.0000
  H   H2834     1.0  0.63845  0.01094  0.52521  1.0000
  H   H2835     1.0  0.65325  0.06076  0.50662  1.0000
  S   S937      1.0  0.66660  0.04554  0.52639  1.0000
  H   H2836     1.0  0.62834  0.04942  0.49911  1.0000
  C   C2825     1.0  0.64080  0.01347  0.51608  1.0000
  C   C2826     1.0  0.62211  0.02091  0.51367  1.0000
  C   C2827     1.0  0.71243  0.00987  0.51693  1.0000
  H   H2837     1.0  0.61454  0.06868  0.50277  1.0000
  C   C2828     1.0  0.71765  0.01112  0.52440  1.0000
  H   H2838     1.0  0.71319  0.01197  0.53266  1.0000
  C   C2829     1.0  0.78134  0.99462  0.49004  1.0000
  C   C2830     1.0  0.73444  0.00993  0.51060  1.0000
  H   H2839     1.0  0.74358  0.06216  0.49217  1.0000
  C   C2831     1.0  0.61132  0.07768  0.50207  1.0000
  H   H2840     1.0  0.59023  0.99567  0.52799  1.0000
  C   C2832     1.0  0.61113  0.04964  0.52741  1.0000
  H   H2841     1.0  0.67144  0.01502  0.49730  1.0000
  C   C2833     1.0  0.62653  0.04141  0.50304  1.0000
  C   C2834     1.0  0.66295  0.00382  0.49562  1.0000
  C   C2835     1.0  0.63048  0.03595  0.53304  1.0000
  C   C2836     1.0  0.71230  0.00772  0.49885  1.0000
  H   H2842     1.0  0.60400  0.01422  0.49666  1.0000
  S   S938      1.0  0.68877  0.03119  0.51217  1.0000
  C   C2837     1.0  0.75305  0.06565  0.50141  1.0000
  S   S939      1.0  0.78416  0.00780  0.50174  1.0000
  N   N237      1.0  0.60146  0.08104  0.49770  1.0000
  C   C2838     1.0  0.62093  0.03193  0.53601  1.0000
  C   C2839     1.0  0.65299  0.06189  0.49809  1.0000
  N   N238      1.0  0.77150  0.06671  0.49210  1.0000
  H   H2843     1.0  0.62057  0.06216  0.52038  1.0000
  C   C2840     1.0  0.72898  0.00865  0.50336  1.0000
  H   H2844     1.0  0.64875  0.01586  0.51406  1.0000
  C   C2841     1.0  0.67696  0.99851  0.50615  1.0000
  H   H2845     1.0  0.62100  0.02354  0.54057  1.0000
  H   H2846     1.0  0.73279  0.01223  0.52691  1.0000
  C   C2842     1.0  0.76321  0.06724  0.50127  1.0000
  H   H2847     1.0  0.60572  0.02809  0.51131  1.0000
  C   C2843     1.0  0.67048  0.00662  0.49957  1.0000
  C   C2844     1.0  0.63035  0.04682  0.52724  1.0000
  H   H2848     1.0  0.64203  0.00640  0.51228  1.0000
  C   C2845     1.0  0.66186  0.99291  0.49828  1.0000
  H   H2849     1.0  0.71752  0.00790  0.49041  1.0000
  H   H2850     1.0  0.60966  0.07944  0.51037  1.0000
  H   H2851     1.0  0.78374  0.00779  0.55436  1.0000
  C   C2846     1.0  0.78225  0.06788  0.49225  1.0000
  H   H2852     1.0  0.77550  0.99154  0.56289  1.0000
  C   C2847     1.0  0.78427  0.99045  0.55999  1.0000
  H   H2853     1.0  0.68477  0.00595  0.55325  1.0000
  H   H2854     1.0  0.61218  0.99204  0.52728  1.0000
  C   C2848     1.0  0.75102  0.99061  0.55055  1.0000
  C   C2849     1.0  0.78672  0.99008  0.53132  1.0000
  H   H2855     1.0  0.69344  0.99514  0.48767  1.0000
  C   C2850     1.0  0.71301  0.04251  0.49131  1.0000
  H   H2856     1.0  0.59229  0.00643  0.49022  1.0000
  S   S940      1.0  0.62582  0.01687  0.48797  1.0000
  H   H2857     1.0  0.62893  0.99348  0.51244  1.0000
  C   C2851     1.0  0.61260  0.99059  0.51931  1.0000
  N   N239      1.0  0.69318  0.99087  0.54845  1.0000
  H   H2858     1.0  0.78738  0.05962  0.49482  1.0000
  H   H2859     1.0  0.62987  0.99018  0.49433  1.0000
  S   S941      1.0  0.65213  0.98961  0.49362  1.0000
  S   S942      1.0  0.72149  0.98987  0.54715  1.0000
  C   C2852     1.0  0.62270  0.98929  0.50088  1.0000
  C   C2853     1.0  0.68848  0.98889  0.54122  1.0000
  C   C2854     1.0  0.60237  0.08291  0.48657  1.0000
  S   S943      1.0  0.77386  0.47579  0.93123  1.0000
  H   H2860     1.0  0.60524  0.46107  0.98071  1.0000
  C   C2855     1.0  0.71850  0.46229  0.90886  1.0000
  H   H2861     1.0  0.75217  0.47321  0.93542  1.0000
  S   S944      1.0  0.68616  0.48413  0.91609  1.0000
  Fe  Fe460     1.0  0.60974  0.47858  0.93956  1.0000
  H   H2862     1.0  0.66637  0.47926  0.91520  1.0000
  S   S945      1.0  0.60539  0.46587  0.93375  1.0000
  Fe  Fe461     1.0  0.62811  0.48218  0.94733  1.0000
  H   H2863     1.0  0.59236  0.48738  0.92335  1.0000
  S   S946      1.0  0.64397  0.47566  0.95300  1.0000
  H   H2864     1.0  0.74427  0.47111  0.96709  1.0000
  C   C2856     1.0  0.74949  0.48111  0.97456  1.0000
  C   C2857     1.0  0.63995  0.45874  0.98062  1.0000
  H   H2865     1.0  0.67635  0.45954  0.96864  1.0000
  S   S947      1.0  0.61297  0.47582  0.95637  1.0000
  H   H2866     1.0  0.74161  0.48292  0.98007  1.0000
  C   C2858     1.0  0.65937  0.45873  0.97389  1.0000
  C   C2859     1.0  0.72901  0.46317  0.90833  1.0000
  C   C2860     1.0  0.75098  0.47436  0.96728  1.0000
  C   C2861     1.0  0.73277  0.47246  0.90170  1.0000
  C   C2862     1.0  0.59251  0.46271  0.93662  1.0000
  H   H2867     1.0  0.74084  0.47338  0.90138  1.0000
  C   C2863     1.0  0.72593  0.48079  0.89569  1.0000
  H   H2868     1.0  0.59692  0.47952  0.91289  1.0000
  H   H2869     1.0  0.76248  0.46670  0.95451  1.0000
  S   S948      1.0  0.71356  0.48153  0.92502  1.0000
  C   C2864     1.0  0.66603  0.47900  0.92371  1.0000
  H   H2870     1.0  0.65829  0.46062  0.96552  1.0000
  C   C2865     1.0  0.65600  0.47696  0.94281  1.0000
  C   C2866     1.0  0.65656  0.47727  0.93179  1.0000
  H   H2871     1.0  0.68132  0.48099  0.94000  1.0000
  C   C2867     1.0  0.67488  0.48073  0.92656  1.0000
  C   C2868     1.0  0.67444  0.48006  0.93764  1.0000
  C   C2869     1.0  0.66505  0.47816  0.94574  1.0000
  H   H2872     1.0  0.64970  0.47616  0.92947  1.0000
  H   H2873     1.0  0.70916  0.48655  0.88204  1.0000
  C   C2870     1.0  0.71541  0.48583  0.96333  1.0000
  H   H2874     1.0  0.66468  0.47800  0.95423  1.0000
  H   H2875     1.0  0.77759  0.47436  0.95515  1.0000
  S   S949      1.0  0.62572  0.48333  0.93057  1.0000
  H   H2876     1.0  0.64050  0.45590  0.97309  1.0000
  C   C2871     1.0  0.76374  0.48200  0.92350  1.0000
  H   H2877     1.0  0.71542  0.45518  0.91411  1.0000
  C   C2872     1.0  0.76116  0.47188  0.96027  1.0000
  C   C2873     1.0  0.76965  0.47622  0.96059  1.0000
  H   H2878     1.0  0.59947  0.44862  0.92926  1.0000
  H   H2879     1.0  0.73739  0.48157  0.92529  1.0000
  C   C2874     1.0  0.75358  0.47911  0.92767  1.0000
  N   N240      1.0  0.71556  0.47997  0.89642  1.0000
  C   C2875     1.0  0.74520  0.48382  0.92192  1.0000
  S   S950      1.0  0.71061  0.47966  0.95578  1.0000
  C   C2876     1.0  0.67105  0.45572  0.98635  1.0000
  C   C2877     1.0  0.71380  0.48198  0.97474  1.0000
  H   H2880     1.0  0.70986  0.47513  0.97876  1.0000
  H   H2881     1.0  0.70364  0.47014  0.90335  1.0000
  H   H2882     1.0  0.73418  0.45675  0.91319  1.0000
  C   C2878     1.0  0.76780  0.48308  0.96786  1.0000
  N   N241      1.0  0.65078  0.45717  0.98264  1.0000
  C   C2879     1.0  0.59170  0.48737  0.91500  1.0000
  N   N242      1.0  0.75783  0.48537  0.97477  1.0000
  C   C2880     1.0  0.66962  0.45805  0.97560  1.0000
  H   H2883     1.0  0.63596  0.46764  0.97935  1.0000
  C   C2881     1.0  0.71186  0.47081  0.90278  1.0000
  C   C2882     1.0  0.59204  0.45365  0.93308  1.0000
  C   C2883     1.0  0.59980  0.46736  0.98491  1.0000
  C   C2884     1.0  0.58883  0.47050  0.98446  1.0000
  H   H2884     1.0  0.77439  0.48655  0.96794  1.0000
  C   C2885     1.0  0.71688  0.48725  0.98105  1.0000
  H   H2885     1.0  0.72891  0.48803  0.89063  1.0000
  C   C2886     1.0  0.70855  0.48869  0.88995  1.0000
  S   S951      1.0  0.65143  0.52270  0.04683  1.0000
  H   H2886     1.0  0.72050  0.52168  0.02201  1.0000
  C   C2887     1.0  0.72467  0.51220  0.04898  1.0000
  C   C2888     1.0  0.74510  0.57372  0.99063  1.0000
  C   C2889     1.0  0.66967  0.49445  0.02232  1.0000
  C   C2890     1.0  0.64072  0.51353  0.03749  1.0000
  C   C2891     1.0  0.75341  0.57569  0.99413  1.0000
  H   H2887     1.0  0.59901  0.54878  0.99917  1.0000
  Fe  Fe462     1.0  0.65430  0.54820  0.00882  1.0000
  S   S952      1.0  0.65503  0.53015  0.01449  1.0000
  Fe  Fe463     1.0  0.67415  0.54653  0.01744  1.0000
  S   S953      1.0  0.67634  0.52830  0.02396  1.0000
  S   S954      1.0  0.68507  0.55501  0.02123  1.0000
  Fe  Fe464     1.0  0.67290  0.52834  0.00804  1.0000
  S   S955      1.0  0.68089  0.51500  0.99891  1.0000
  C   C2892     1.0  0.67745  0.51922  0.05290  1.0000
  C   C2893     1.0  0.60596  0.56135  0.01847  1.0000
  S   S956      1.0  0.67217  0.54625  0.00085  1.0000
  S   S957      1.0  0.65615  0.55017  0.02484  1.0000
  Fe  Fe465     1.0  0.74824  0.54479  0.00400  1.0000
  S   S958      1.0  0.75392  0.52676  0.01034  1.0000
  H   H2888     1.0  0.75204  0.48876  0.99075  1.0000
  Fe  Fe466     1.0  0.76731  0.55024  0.00898  1.0000
  S   S959      1.0  0.77453  0.53262  0.01565  1.0000
  S   S960      1.0  0.77658  0.56325  0.00650  1.0000
  Fe  Fe467     1.0  0.77058  0.52928  0.00134  1.0000
  H   H2889     1.0  0.59666  0.52033  0.99409  1.0000
  Fe  Fe468     1.0  0.75724  0.53181  0.02406  1.0000
  S   S961      1.0  0.75258  0.52297  0.04167  1.0000
  C   C2894     1.0  0.78341  0.53344  0.05145  1.0000
  S   S962      1.0  0.75015  0.54983  0.01848  1.0000
  H   H2890     1.0  0.70189  0.51969  0.02309  1.0000
  C   C2895     1.0  0.59395  0.51344  0.01925  1.0000
  S   S963      1.0  0.73553  0.49426  0.01035  1.0000
  H   H2891     1.0  0.75245  0.50902  0.02826  1.0000
  C   C2896     1.0  0.77730  0.55957  0.02838  1.0000
  C   C2897     1.0  0.69443  0.52513  0.04529  1.0000
  H   H2892     1.0  0.75382  0.57314  0.00276  1.0000
  H   H2893     1.0  0.67285  0.51278  0.05575  1.0000
  S   S964      1.0  0.76478  0.54701  0.99385  1.0000
  C   C2898     1.0  0.78401  0.53143  0.04120  1.0000
  H   H2894     1.0  0.69605  0.52176  0.00579  1.0000
  C   C2899     1.0  0.73684  0.50484  0.03363  1.0000
  H   H2895     1.0  0.76571  0.49166  0.02529  1.0000
  S   S965      1.0  0.78192  0.51758  0.99103  1.0000
  H   H2896     1.0  0.63186  0.53331  0.01073  1.0000
  C   C2900     1.0  0.68004  0.49350  0.02380  1.0000
  N   N243      1.0  0.72170  0.52544  0.99486  1.0000
  C   C2901     1.0  0.78260  0.56252  0.01734  1.0000
  C   C2902     1.0  0.66150  0.57406  0.99207  1.0000
  C   C2903     1.0  0.64538  0.51241  0.04633  1.0000
  C   C2904     1.0  0.69886  0.55285  0.01421  1.0000
  C   C2905     1.0  0.70193  0.55134  0.00340  1.0000
  C   C2906     1.0  0.71281  0.55072  0.99760  1.0000
  C   C2907     1.0  0.72079  0.55093  0.00278  1.0000
  C   C2908     1.0  0.71779  0.55205  0.01372  1.0000
  C   C2909     1.0  0.70680  0.55327  0.01933  1.0000
  H   H2897     1.0  0.69590  0.55096  0.99938  1.0000
  H   H2898     1.0  0.66560  0.57538  0.00663  1.0000
  H   H2899     1.0  0.72388  0.55228  0.01776  1.0000
  H   H2900     1.0  0.70448  0.55461  0.02763  1.0000
  H   H2901     1.0  0.59717  0.52062  0.01447  1.0000
  C   C2910     1.0  0.59485  0.49700  0.03322  1.0000
  H   H2902     1.0  0.76025  0.49695  0.05175  1.0000
  H   H2903     1.0  0.78725  0.54723  0.06358  1.0000
  H   H2904     1.0  0.78027  0.49973  0.04662  1.0000
  C   C2911     1.0  0.67204  0.51615  0.99058  1.0000
  H   H2905     1.0  0.68547  0.57200  0.99856  1.0000
  H   H2906     1.0  0.61430  0.51043  0.02189  1.0000
  H   H2907     1.0  0.76941  0.55753  0.03040  1.0000
  H   H2908     1.0  0.77852  0.49960  0.00908  1.0000
  C   C2912     1.0  0.77166  0.49532  0.02650  1.0000
  C   C2913     1.0  0.71789  0.52238  0.01458  1.0000
  C   C2914     1.0  0.78717  0.50442  0.02931  1.0000
  H   H2909     1.0  0.73858  0.50007  0.02754  1.0000
  C   C2915     1.0  0.72502  0.52427  0.00430  1.0000
  H   H2910     1.0  0.63326  0.50575  0.02979  1.0000
  H   H2911     1.0  0.65285  0.57526  0.99576  1.0000
  H   H2912     1.0  0.77580  0.53357  0.05757  1.0000
  N   N244      1.0  0.77208  0.49549  0.03688  1.0000
  H   H2913     1.0  0.73316  0.52504  0.00388  1.0000
  Fe  Fe469     1.0  0.72434  0.49241  0.00120  1.0000
  H   H2914     1.0  0.70879  0.52555  0.98781  1.0000
  H   H2915     1.0  0.61259  0.55412  0.03298  1.0000
  H   H2916     1.0  0.66638  0.55076  0.05668  1.0000
  H   H2917     1.0  0.69310  0.50820  0.04931  1.0000
  H   H2918     1.0  0.64892  0.50202  0.06165  1.0000
  C   C2916     1.0  0.64550  0.50285  0.05470  1.0000
  H   H2919     1.0  0.71683  0.51324  0.05467  1.0000
  C   C2917     1.0  0.73281  0.51695  0.04968  1.0000
  Fe  Fe470     1.0  0.65823  0.53182  0.02991  1.0000
  C   C2918     1.0  0.70413  0.52254  0.00547  1.0000
  C   C2919     1.0  0.61500  0.53975  0.00169  1.0000
  C   C2920     1.0  0.60844  0.56480  0.00697  1.0000
  C   C2921     1.0  0.63677  0.50486  0.03668  1.0000
  C   C2922     1.0  0.63731  0.49513  0.04482  1.0000
  H   H2920     1.0  0.78621  0.53331  0.07104  1.0000
  H   H2921     1.0  0.63996  0.52113  0.03139  1.0000
  S   S966      1.0  0.61833  0.51147  0.99759  1.0000
  H   H2922     1.0  0.60196  0.56845  0.00257  1.0000
  C   C2923     1.0  0.60821  0.50837  0.02966  1.0000
  C   C2924     1.0  0.78195  0.55986  0.03682  1.0000
  S   S967      1.0  0.73437  0.54999  0.99526  1.0000
  S   S968      1.0  0.64148  0.55838  0.99936  1.0000
  S   S969      1.0  0.59237  0.56325  0.02608  1.0000
  C   C2925     1.0  0.64143  0.49423  0.05396  1.0000
  H   H2923     1.0  0.73908  0.56959  0.99667  1.0000
  H   H2924     1.0  0.66691  0.50021  0.01526  1.0000
  C   C2926     1.0  0.61446  0.55676  0.02408  1.0000
  H   H2925     1.0  0.62124  0.56668  0.99228  1.0000
  H   H2926     1.0  0.77697  0.52994  0.03948  1.0000
  Fe  Fe471     1.0  0.62966  0.49592  0.00392  1.0000
  S   S970      1.0  0.71616  0.50159  0.03888  1.0000
  C   C2927     1.0  0.77979  0.49985  0.03837  1.0000
  C   C2928     1.0  0.67983  0.57222  0.99373  1.0000
  C   C2929     1.0  0.74478  0.50984  0.03411  1.0000
  C   C2930     1.0  0.62537  0.55558  0.01825  1.0000
  H   H2927     1.0  0.77761  0.55805  0.04533  1.0000
  H   H2928     1.0  0.67721  0.55566  0.04596  1.0000
  C   C2931     1.0  0.61937  0.56385  0.00116  1.0000
  C   C2932     1.0  0.68875  0.51668  0.04921  1.0000
  H   H2929     1.0  0.71506  0.54994  0.98909  1.0000
  N   N245      1.0  0.62532  0.53508  0.99683  1.0000
  C   C2933     1.0  0.72665  0.50630  0.04080  1.0000
  H   H2930     1.0  0.70320  0.52327  0.04233  1.0000
  C   C2934     1.0  0.63353  0.52968  0.00344  1.0000
  C   C2935     1.0  0.60713  0.54489  0.99541  1.0000
  C   C2936     1.0  0.71140  0.52464  0.99532  1.0000
  C   C2937     1.0  0.77889  0.49982  0.01726  1.0000
  C   C2938     1.0  0.66854  0.50692  0.99061  1.0000
  H   H2931     1.0  0.63185  0.55203  0.02267  1.0000
  N   N246      1.0  0.59886  0.50611  0.02725  1.0000
  C   C2939     1.0  0.67202  0.53020  0.05268  1.0000
  C   C2940     1.0  0.68872  0.53603  0.04509  1.0000
  H   H2932     1.0  0.63365  0.52074  0.00620  1.0000
  S   S971      1.0  0.64338  0.49511  0.01140  1.0000
  H   H2933     1.0  0.66322  0.53213  0.05549  1.0000
  H   H2934     1.0  0.69319  0.54255  0.04183  1.0000
  C   C2941     1.0  0.62786  0.55926  0.00679  1.0000
  N   N247      1.0  0.67765  0.53843  0.04882  1.0000
  C   C2942     1.0  0.74279  0.51597  0.04202  1.0000
  H   H2935     1.0  0.66651  0.55236  0.04230  1.0000
  C   C2943     1.0  0.67165  0.54987  0.04846  1.0000
  C   C2944     1.0  0.70741  0.52141  0.01516  1.0000
  Fe  Fe472     1.0  0.72205  0.49205  0.02540  1.0000
  H   H2936     1.0  0.73122  0.52170  0.05584  1.0000
  H   H2937     1.0  0.64175  0.53077  0.99850  1.0000
  H   H2938     1.0  0.67125  0.49907  0.99585  1.0000
  C   C2945     1.0  0.78662  0.50450  0.01869  1.0000
  H   H2939     1.0  0.61243  0.50112  0.03509  1.0000
  H   H2940     1.0  0.61287  0.53975  0.01041  1.0000
  H   H2941     1.0  0.68545  0.49838  0.01778  1.0000
  H   H2942     1.0  0.59746  0.49368  0.00213  1.0000
  S   S972      1.0  0.71022  0.49228  0.01576  1.0000
  C   C2946     1.0  0.60060  0.51421  0.98921  1.0000
  H   H2943     1.0  0.60546  0.51537  0.03385  1.0000
  C   C2947     1.0  0.76445  0.49080  0.04656  1.0000
  C   C2948     1.0  0.61149  0.50892  0.98905  1.0000
  C   C2949     1.0  0.66866  0.57415  0.99826  1.0000
  H   H2944     1.0  0.76798  0.58206  0.98901  1.0000
  H   H2945     1.0  0.59871  0.49116  0.03958  1.0000
  H   H2946     1.0  0.66444  0.93838  0.43418  1.0000
  H   H2947     1.0  0.64575  0.96831  0.44664  1.0000
  C   C2950     1.0  0.66371  0.96762  0.41590  1.0000
  C   C2951     1.0  0.70725  0.97494  0.48310  1.0000
  Fe  Fe473     1.0  0.71229  0.97710  0.43707  1.0000
  C   C2952     1.0  0.76132  0.94535  0.41832  1.0000
  C   C2953     1.0  0.67447  0.97501  0.43653  1.0000
  C   C2954     1.0  0.66188  0.98298  0.46995  1.0000
  C   C2955     1.0  0.65409  0.96388  0.42106  1.0000
  C   C2956     1.0  0.67249  0.97724  0.47063  1.0000
  H   H2948     1.0  0.68246  0.97686  0.43343  1.0000
  C   C2957     1.0  0.75875  0.96677  0.48571  1.0000
  S   S973      1.0  0.71483  0.96091  0.43260  1.0000
  H   H2949     1.0  0.76385  0.94247  0.41050  1.0000
  S   S974      1.0  0.62265  0.97713  0.45840  1.0000
  C   C2958     1.0  0.65488  0.98087  0.43819  1.0000
  C   C2959     1.0  0.71538  0.97994  0.47557  1.0000
  C   C2960     1.0  0.75044  0.94689  0.44543  1.0000
  C   C2961     1.0  0.75979  0.96199  0.43896  1.0000
  H   H2950     1.0  0.74274  0.96387  0.44023  1.0000
  H   H2951     1.0  0.75568  0.94039  0.42445  1.0000
  C   C2962     1.0  0.75018  0.95816  0.44170  1.0000
  H   H2952     1.0  0.64097  0.95324  0.44097  1.0000
  S   S975      1.0  0.62131  0.94836  0.45657  1.0000
  S   S976      1.0  0.70725  0.95091  0.45909  1.0000
  H   H2953     1.0  0.77921  0.98450  0.48046  1.0000
  H   H2954     1.0  0.71576  0.98169  0.46687  1.0000
  C   C2963     1.0  0.62821  0.95116  0.47342  1.0000
  H   H2955     1.0  0.68372  0.96148  0.47113  1.0000
  C   C2964     1.0  0.76996  0.94341  0.44430  1.0000
  S   S977      1.0  0.62291  0.97490  0.43353  1.0000
  Fe  Fe474     1.0  0.61677  0.96674  0.45111  1.0000
  C   C2965     1.0  0.63036  0.94527  0.46523  1.0000
  S   S978      1.0  0.78172  0.95960  0.43438  1.0000
  S   S979      1.0  0.72122  0.97027  0.45075  1.0000
  S   S980      1.0  0.68493  0.95367  0.44367  1.0000
  N   N248      1.0  0.75614  0.95711  0.41633  1.0000
  C   C2966     1.0  0.65373  0.97021  0.44382  1.0000
  Fe  Fe475     1.0  0.69905  0.95955  0.44498  1.0000
  Fe  Fe476     1.0  0.70504  0.96787  0.46145  1.0000
  Fe  Fe477     1.0  0.62749  0.98612  0.44100  1.0000
  C   C2967     1.0  0.76031  0.93955  0.44695  1.0000
  H   H2956     1.0  0.59583  0.97009  0.43172  1.0000
  C   C2968     1.0  0.66787  0.96069  0.47013  1.0000
  Fe  Fe478     1.0  0.72280  0.95401  0.44710  1.0000
  C   C2969     1.0  0.76242  0.96478  0.41312  1.0000
  C   C2970     1.0  0.66298  0.96190  0.44561  1.0000
  C   C2971     1.0  0.67369  0.96059  0.41725  1.0000
  C   C2972     1.0  0.75896  0.96383  0.46805  1.0000
  H   H2957     1.0  0.66209  0.95362  0.44986  1.0000
  C   C2973     1.0  0.67337  0.96429  0.44197  1.0000
  Fe  Fe479     1.0  0.60624  0.98826  0.45809  1.0000
  C   C2974     1.0  0.66524  0.98327  0.43462  1.0000
  C   C2975     1.0  0.65725  0.96664  0.46972  1.0000
  C   C2976     1.0  0.67550  0.96603  0.47068  1.0000
  C   C2977     1.0  0.67395  0.94994  0.42369  1.0000
  C   C2978     1.0  0.63575  0.94916  0.47992  1.0000
  H   H2958     1.0  0.67019  0.95201  0.46994  1.0000
  C   C2979     1.0  0.76842  0.95564  0.46876  1.0000
  C   C2980     1.0  0.64422  0.94997  0.43335  1.0000
  C   C2981     1.0  0.64325  0.98380  0.46914  1.0000
  S   S981      1.0  0.59978  0.97705  0.45240  1.0000
  S   S982      1.0  0.73889  0.94172  0.44692  1.0000
  H   H2959     1.0  0.75536  0.96577  0.46097  1.0000
  H   H2960     1.0  0.64155  0.93247  0.45754  1.0000
  H   H2961     1.0  0.76858  0.94376  0.42184  1.0000
  H   H2962     1.0  0.78007  0.94663  0.47865  1.0000
  H   H2963     1.0  0.65505  0.92915  0.46889  1.0000
  C   C2982     1.0  0.76973  0.95462  0.43999  1.0000
  H   H2964     1.0  0.72893  0.98719  0.47349  1.0000
  H   H2965     1.0  0.77229  0.95120  0.46222  1.0000
  C   C2983     1.0  0.75762  0.97604  0.41109  1.0000
  C   C2984     1.0  0.77195  0.98500  0.44638  1.0000
  N   N249      1.0  0.65442  0.95341  0.42736  1.0000
  H   H2966     1.0  0.76058  0.93081  0.44981  1.0000
  C   C2985     1.0  0.63992  0.93715  0.46377  1.0000
  H   H2967     1.0  0.77763  0.93765  0.44504  1.0000
  C   C2986     1.0  0.72277  0.98315  0.47933  1.0000
  H   H2968     1.0  0.76258  0.98211  0.40879  1.0000
  H   H2969     1.0  0.62063  0.95713  0.47488  1.0000
  C   C2987     1.0  0.74006  0.97153  0.41528  1.0000
  H   H2970     1.0  0.75958  0.97067  0.43557  1.0000
  H   H2971     1.0  0.67831  0.98142  0.47124  1.0000
  S   S983      1.0  0.69587  0.97637  0.44818  1.0000
  N   N250      1.0  0.65435  0.97761  0.46976  1.0000
  H   H2972     1.0  0.68164  0.94461  0.42521  1.0000
  C   C2988     1.0  0.64755  0.93528  0.47018  1.0000
  H   H2973     1.0  0.68118  0.96351  0.41367  1.0000
  H   H2974     1.0  0.64535  0.94087  0.43574  1.0000
  H   H2975     1.0  0.65141  0.96242  0.46925  1.0000
  C   C2989     1.0  0.74510  0.96034  0.41733  1.0000
  H   H2976     1.0  0.74684  0.97594  0.47610  1.0000
  C   C2990     1.0  0.74636  0.97942  0.41218  1.0000
  H   H2977     1.0  0.66337  0.97604  0.41124  1.0000
  C   C2991     1.0  0.66418  0.94649  0.42878  1.0000
  H   H2978     1.0  0.64635  0.96953  0.42030  1.0000
  Fe  Fe480     1.0  0.60638  0.98625  0.43544  1.0000
  H   H2979     1.0  0.77116  0.96222  0.41246  1.0000
  H   H2980     1.0  0.63801  0.95310  0.42823  1.0000
  H   H2981     1.0  0.74250  0.98812  0.41068  1.0000
  H   H2982     1.0  0.74011  0.95426  0.41997  1.0000
  H   H2983     1.0  0.63734  0.97834  0.47257  1.0000
  S   S984      1.0  0.69805  0.97085  0.47848  1.0000
  H   H2984     1.0  0.73129  0.97410  0.41617  1.0000
  H   H2985     1.0  0.61095  0.93739  0.48225  1.0000
  C   C2992     1.0  0.64552  0.94137  0.47819  1.0000
  H   H2986     1.0  0.72863  0.98846  0.43867  1.0000
  H   H2987     1.0  0.77726  0.97685  0.44542  1.0000
  C   C2993     1.0  0.77283  0.95314  0.47806  1.0000
  C   C2994     1.0  0.75411  0.96945  0.47656  1.0000
  H   H2988     1.0  0.76387  0.98504  0.44519  1.0000
  C   C2995     1.0  0.58932  0.97387  0.42737  1.0000
  H   H2989     1.0  0.64286  0.98775  0.46041  1.0000
  N   N251      1.0  0.76804  0.95875  0.48632  1.0000
  S   S985      1.0  0.65526  0.93906  0.48597  1.0000
  H   H2990     1.0  0.77097  0.98592  0.45490  1.0000
  H   H2991     1.0  0.63386  0.95352  0.48637  1.0000
  Fe  Fe481     1.0  0.65149  0.95007  0.49783  1.0000
  C   C2996     1.0  0.70396  0.93227  0.51597  1.0000
  Fe  Fe482     1.0  0.74602  0.96069  0.52710  1.0000
  H   H2992     1.0  0.69109  0.94885  0.49125  1.0000
  C   C2997     1.0  0.67909  0.94512  0.53260  1.0000
  S   S986      1.0  0.63868  0.96565  0.49731  1.0000
  Fe  Fe483     1.0  0.73079  0.97616  0.51291  1.0000
  H   H2993     1.0  0.68123  0.98121  0.51344  1.0000
  C   C2998     1.0  0.68839  0.97811  0.54124  1.0000
  H   H2994     1.0  0.68473  0.97658  0.53543  1.0000
  S   S987      1.0  0.73639  0.95789  0.51668  1.0000
  H   H2995     1.0  0.72520  0.94205  0.50139  1.0000
  H   H2996     1.0  0.76453  0.97878  0.50918  1.0000
  H   H2997     1.0  0.78153  0.95317  0.49409  1.0000
  C   C2999     1.0  0.62831  0.93020  0.50511  1.0000
  H   H2998     1.0  0.68999  0.92478  0.52187  1.0000
  C   C3000     1.0  0.72218  0.98110  0.49063  1.0000
  H   H2999     1.0  0.62644  0.93156  0.52181  1.0000
  H   H3000     1.0  0.70154  0.98388  0.56160  1.0000
  C   C3001     1.0  0.76380  0.98840  0.52058  1.0000
  C   C3002     1.0  0.61403  0.98629  0.49913  1.0000
  H   H3001     1.0  0.77456  0.96633  0.55019  1.0000
  C   C3003     1.0  0.62233  0.93168  0.51556  1.0000
  C   C3004     1.0  0.69315  0.96936  0.54873  1.0000
  S   S988      1.0  0.73160  0.98479  0.49530  1.0000
  H   H3002     1.0  0.69825  0.96092  0.52218  1.0000
  C   C3005     1.0  0.69471  0.94401  0.49816  1.0000
  S   S989      1.0  0.71602  0.97664  0.52679  1.0000
  S   S990      1.0  0.64438  0.96751  0.51984  1.0000
  S   S991      1.0  0.61593  0.96041  0.52435  1.0000
  C   C3006     1.0  0.61100  0.93347  0.51791  1.0000
  S   S992      1.0  0.76380  0.95228  0.52407  1.0000
  C   C3007     1.0  0.70454  0.94554  0.49905  1.0000
  H   H3003     1.0  0.70728  0.92794  0.52319  1.0000
  H   H3004     1.0  0.70853  0.95147  0.49266  1.0000
  C   C3008     1.0  0.77300  0.95450  0.53043  1.0000
  H   H3005     1.0  0.68169  0.93537  0.50600  1.0000
  C   C3009     1.0  0.60578  0.93411  0.50963  1.0000
  C   C3010     1.0  0.76955  0.96040  0.53879  1.0000
  C   C3011     1.0  0.77726  0.96190  0.54362  1.0000
  H   H3006     1.0  0.66770  0.97629  0.50670  1.0000
  C   C3012     1.0  0.68416  0.95373  0.52593  1.0000
  H   H3007     1.0  0.76096  0.96366  0.54165  1.0000
  C   C3013     1.0  0.69794  0.97144  0.55605  1.0000
  H   H3008     1.0  0.63714  0.92879  0.50318  1.0000
  S   S993      1.0  0.71229  0.94563  0.53716  1.0000
  H   H3009     1.0  0.62753  0.92960  0.48897  1.0000
  C   C3014     1.0  0.78414  0.95030  0.52680  1.0000
  H   H3010     1.0  0.69774  0.93189  0.54830  1.0000
  C   C3015     1.0  0.60632  0.96031  0.51725  1.0000
  N   N252      1.0  0.61169  0.93314  0.49926  1.0000
  C   C3016     1.0  0.60917  0.96004  0.50605  1.0000
  Fe  Fe484     1.0  0.65717  0.95203  0.51826  1.0000
  S   S994      1.0  0.64568  0.94334  0.51580  1.0000
  N   N253      1.0  0.60398  0.98800  0.51740  1.0000
  Fe  Fe485     1.0  0.72243  0.95845  0.53137  1.0000
  H   H3011     1.0  0.71341  0.97467  0.50690  1.0000
  H   H3012     1.0  0.70184  0.96467  0.56176  1.0000
  S   S995      1.0  0.73263  0.95934  0.54238  1.0000
  H   H3013     1.0  0.68043  0.95965  0.51956  1.0000
  C   C3017     1.0  0.59549  0.96067  0.52300  1.0000
  C   C3018     1.0  0.77252  0.95563  0.49619  1.0000
  C   C3019     1.0  0.62282  0.93079  0.49706  1.0000
  H   H3014     1.0  0.60451  0.92626  0.49078  1.0000
  C   C3020     1.0  0.69398  0.93807  0.54209  1.0000
  C   C3021     1.0  0.60120  0.96002  0.50070  1.0000
  C   C3022     1.0  0.68949  0.93643  0.50637  1.0000
  H   H3015     1.0  0.68015  0.93085  0.54595  1.0000
  H   H3016     1.0  0.61748  0.95978  0.50152  1.0000
  Fe  Fe486     1.0  0.63356  0.95942  0.51549  1.0000
  H   H3017     1.0  0.60345  0.95973  0.49206  1.0000
  C   C3023     1.0  0.59039  0.96016  0.50655  1.0000
  S   S996      1.0  0.66410  0.95736  0.50020  1.0000
  H   H3018     1.0  0.78734  0.97270  0.56444  1.0000
  C   C3024     1.0  0.69923  0.94640  0.53539  1.0000
  C   C3025     1.0  0.69419  0.93042  0.51527  1.0000
  H   H3019     1.0  0.75487  0.97122  0.49227  1.0000
  C   C3026     1.0  0.68399  0.93748  0.54076  1.0000
  C   C3027     1.0  0.69777  0.98232  0.55589  1.0000
  Fe  Fe487     1.0  0.65055  0.97231  0.50159  1.0000
  C   C3028     1.0  0.69424  0.95442  0.52740  1.0000
  N   N254      1.0  0.70896  0.93983  0.50795  1.0000
  H   H3020     1.0  0.59323  0.96087  0.53166  1.0000
  S   S997      1.0  0.66720  0.94265  0.53081  1.0000
  C   C3029     1.0  0.76906  0.98104  0.51372  1.0000
  C   C3030     1.0  0.78020  0.97664  0.51265  1.0000
  Fe  Fe488     1.0  0.72728  0.97756  0.53652  1.0000
  C   C3031     1.0  0.71877  0.94234  0.50907  1.0000
  C   C3032     1.0  0.74246  0.98691  0.54925  1.0000
  C   C3033     1.0  0.70642  0.97326  0.49441  1.0000
  C   C3034     1.0  0.66847  0.98474  0.50467  1.0000
  H   H3021     1.0  0.78434  0.97091  0.50734  1.0000
  H   H3022     1.0  0.75887  0.98505  0.55077  1.0000
  H   H3023     1.0  0.69995  0.96967  0.50027  1.0000
  H   H3024     1.0  0.60628  0.93481  0.52596  1.0000
  H   H3025     1.0  0.76930  0.94858  0.50206  1.0000
  H   H3026     1.0  0.71676  0.95070  0.51079  1.0000
  C   C3035     1.0  0.60606  0.93431  0.49056  1.0000
  S   S998      1.0  0.74136  0.97902  0.52209  1.0000
  H   H3027     1.0  0.59627  0.98147  0.53374  1.0000
  H   H3028     1.0  0.78684  0.94567  0.52039  1.0000
  H   H3029     1.0  0.77034  0.96254  0.50042  1.0000
  H   H3030     1.0  0.61447  0.98459  0.49126  1.0000
  H   H3031     1.0  0.59695  0.93589  0.51141  1.0000
  N   N255      1.0  0.78064  0.98685  0.52531  1.0000
  H   H3032     1.0  0.74370  0.97852  0.54851  1.0000
  H   H3033     1.0  0.59773  0.98395  0.50583  1.0000
  C   C3036     1.0  0.71401  0.97615  0.49817  1.0000
  H   H3034     1.0  0.69318  0.96095  0.54885  1.0000
  H   H3035     1.0  0.58809  0.98445  0.52387  1.0000
  C   C3037     1.0  0.60455  0.98598  0.50741  1.0000
  H   H3036     1.0  0.59818  0.94043  0.49159  1.0000
  C   C3038     1.0  0.78594  0.97977  0.51844  1.0000
  C   C3039     1.0  0.59414  0.98739  0.52620  1.0000
  C   C3040     1.0  0.67612  0.98753  0.50850  1.0000
  H   H3037     1.0  0.72213  0.93645  0.51603  1.0000
  C   C3041     1.0  0.76471  0.51723  0.96511  1.0000
  Fe  Fe489     1.0  0.65416  0.55724  0.94689  1.0000
  S   S999      1.0  0.66045  0.54079  0.94240  1.0000
  S   S1000     1.0  0.66623  0.56744  0.94503  1.0000
  Fe  Fe490     1.0  0.63035  0.55608  0.95120  1.0000
  S   S1001     1.0  0.63479  0.53956  0.94715  1.0000
  S   S1002     1.0  0.61230  0.56237  0.95699  1.0000
  Fe  Fe491     1.0  0.64752  0.53553  0.95686  1.0000
  S   S1003     1.0  0.65055  0.51862  0.96754  1.0000
  Fe  Fe492     1.0  0.64725  0.54631  0.93299  1.0000
  S   S1004     1.0  0.65019  0.54364  0.91587  1.0000
  S   S1005     1.0  0.64216  0.55156  0.96230  1.0000
  S   S1006     1.0  0.64185  0.56332  0.93621  1.0000
  Fe  Fe493     1.0  0.74348  0.55862  0.94654  1.0000
  S   S1007     1.0  0.75248  0.54661  0.93577  1.0000
  S   S1008     1.0  0.75131  0.57007  0.95041  1.0000
  Fe  Fe494     1.0  0.72356  0.54813  0.95515  1.0000
  S   S1009     1.0  0.73130  0.53509  0.94534  1.0000
  S   S1010     1.0  0.70718  0.54695  0.96668  1.0000
  Fe  Fe495     1.0  0.74663  0.53390  0.95038  1.0000
  H   H3038     1.0  0.62897  0.51550  0.93281  1.0000
  Fe  Fe496     1.0  0.73627  0.54908  0.93181  1.0000
  S   S1011     1.0  0.73395  0.54936  0.91527  1.0000
  S   S1012     1.0  0.73852  0.54579  0.96139  1.0000
  S   S1013     1.0  0.72760  0.56231  0.94129  1.0000
  C   C3042     1.0  0.66767  0.51687  0.92972  1.0000
  H   H3039     1.0  0.77563  0.53471  0.95718  1.0000
  C   C3043     1.0  0.62025  0.53994  0.97939  1.0000
  C   C3044     1.0  0.71340  0.54708  0.92660  1.0000
  C   C3045     1.0  0.72209  0.54451  0.91787  1.0000
  C   C3046     1.0  0.59472  0.51142  0.98325  1.0000
  H   H3040     1.0  0.66753  0.55976  0.92431  1.0000
  C   C3047     1.0  0.76085  0.58387  0.97530  1.0000
  H   H3041     1.0  0.71386  0.55239  0.93151  1.0000
  C   C3048     1.0  0.64158  0.53549  0.91576  1.0000
  C   C3049     1.0  0.72176  0.49620  0.97599  1.0000
  C   C3050     1.0  0.67789  0.56087  0.95047  1.0000
  C   C3051     1.0  0.68725  0.56524  0.94615  1.0000
  C   C3052     1.0  0.69643  0.56068  0.95079  1.0000
  C   C3053     1.0  0.69616  0.55198  0.96007  1.0000
  C   C3054     1.0  0.68674  0.54769  0.96449  1.0000
  C   C3055     1.0  0.67772  0.55195  0.95954  1.0000
  H   H3042     1.0  0.68738  0.57227  0.93927  1.0000
  H   H3043     1.0  0.70357  0.56416  0.94743  1.0000
  H   H3044     1.0  0.68639  0.54112  0.97180  1.0000
  H   H3045     1.0  0.67048  0.54863  0.96302  1.0000
  H   H3046     1.0  0.59508  0.49422  0.90893  1.0000
  C   C3056     1.0  0.60181  0.55978  0.93138  1.0000
  N   N256      1.0  0.68307  0.55941  0.91303  1.0000
  H   H3047     1.0  0.67345  0.54736  0.91930  1.0000
  H   H3048     1.0  0.75213  0.58417  0.96342  1.0000
  C   C3057     1.0  0.66844  0.52633  0.98389  1.0000
  C   C3058     1.0  0.69565  0.56941  0.91379  1.0000
  S   S1014     1.0  0.61995  0.49980  0.94757  1.0000
  S   S1015     1.0  0.72523  0.50286  0.98408  1.0000
  C   C3059     1.0  0.63112  0.52986  0.90634  1.0000
  C   C3060     1.0  0.70341  0.56475  0.90555  1.0000
  H   H3049     1.0  0.65932  0.53491  0.97139  1.0000
  H   H3050     1.0  0.58975  0.56131  0.96201  1.0000
  H   H3051     1.0  0.58930  0.52390  0.96266  1.0000
  C   C3061     1.0  0.59481  0.52934  0.93477  1.0000
  C   C3062     1.0  0.76926  0.56948  0.93309  1.0000
  C   C3063     1.0  0.76524  0.56931  0.94433  1.0000
  C   C3064     1.0  0.77224  0.56949  0.95067  1.0000
  C   C3065     1.0  0.61084  0.49850  0.97642  1.0000
  C   C3066     1.0  0.66277  0.51280  0.94062  1.0000
  H   H3052     1.0  0.76387  0.56949  0.92811  1.0000
  H   H3053     1.0  0.76927  0.56918  0.95938  1.0000
  H   H3054     1.0  0.59166  0.52911  0.92797  1.0000
  C   C3067     1.0  0.60844  0.56065  0.93779  1.0000
  C   C3068     1.0  0.60411  0.56125  0.94883  1.0000
  C   C3069     1.0  0.58943  0.52592  0.94565  1.0000
  C   C3070     1.0  0.66157  0.50781  0.98383  1.0000
  H   H3055     1.0  0.61689  0.56096  0.93414  1.0000
  H   H3056     1.0  0.75040  0.50062  0.97944  1.0000
  H   H3057     1.0  0.72874  0.57382  0.98264  1.0000
  C   C3071     1.0  0.72370  0.49990  0.96454  1.0000
  H   H3058     1.0  0.60522  0.55939  0.92282  1.0000
  C   C3072     1.0  0.65526  0.50627  0.94286  1.0000
  H   H3059     1.0  0.75178  0.52909  0.97248  1.0000
  C   C3073     1.0  0.68830  0.51371  0.95717  1.0000
  C   C3074     1.0  0.59987  0.50360  0.97678  1.0000
  C   C3075     1.0  0.69390  0.52187  0.95591  1.0000
  C   C3076     1.0  0.69916  0.52135  0.96405  1.0000
  C   C3077     1.0  0.59356  0.52653  0.95425  1.0000
  C   C3078     1.0  0.74344  0.50771  0.92962  1.0000
  H   H3060     1.0  0.68422  0.51422  0.95079  1.0000
  C   C3079     1.0  0.60703  0.53095  0.96122  1.0000
  H   H3061     1.0  0.69412  0.52855  0.94868  1.0000
  Fe  Fe497     1.0  0.70844  0.48986  0.93919  1.0000
  H   H3062     1.0  0.61093  0.53808  0.95894  1.0000
  C   C3080     1.0  0.67241  0.55647  0.91693  1.0000
  H   H3063     1.0  0.76271  0.52780  0.91626  1.0000
  H   H3064     1.0  0.69991  0.48982  0.89457  1.0000
  H   H3065     1.0  0.66469  0.51484  0.94732  1.0000
  H   H3066     1.0  0.65201  0.51305  0.90864  1.0000
  C   C3081     1.0  0.63810  0.53642  0.90620  1.0000
  C   C3082     1.0  0.74171  0.51567  0.92009  1.0000
  H   H3067     1.0  0.66251  0.50054  0.90951  1.0000
  H   H3068     1.0  0.73502  0.51618  0.91648  1.0000
  H   H3069     1.0  0.69729  0.54505  0.93558  1.0000
  N   N257      1.0  0.60276  0.53046  0.95209  1.0000
  H   H3070     1.0  0.64135  0.52669  0.93248  1.0000
  C   C3083     1.0  0.74872  0.52290  0.91521  1.0000
  Fe  Fe498     1.0  0.61650  0.50056  0.93138  1.0000
  C   C3084     1.0  0.66512  0.51417  0.92118  1.0000
  C   C3085     1.0  0.75735  0.52208  0.91989  1.0000
  C   C3086     1.0  0.62793  0.53493  0.98588  1.0000
  H   H3071     1.0  0.60839  0.53601  0.92420  1.0000
  H   H3072     1.0  0.64066  0.54230  0.89876  1.0000
  C   C3087     1.0  0.68543  0.56670  0.91739  1.0000
  C   C3088     1.0  0.70086  0.55749  0.90100  1.0000
  H   H3073     1.0  0.68878  0.54889  0.90163  1.0000
  H   H3074     1.0  0.69762  0.57491  0.91754  1.0000
  H   H3075     1.0  0.72807  0.53581  0.90468  1.0000
  H   H3076     1.0  0.66769  0.55975  0.91037  1.0000
  C   C3089     1.0  0.76551  0.48961  0.91345  1.0000
  C   C3090     1.0  0.69060  0.55485  0.90490  1.0000
  H   H3077     1.0  0.70694  0.55360  0.89480  1.0000
  H   H3078     1.0  0.71150  0.56650  0.90294  1.0000
  S   S1016     1.0  0.60027  0.49597  0.93888  1.0000
  C   C3091     1.0  0.70405  0.54289  0.92894  1.0000
  H   H3079     1.0  0.67946  0.57036  0.92380  1.0000
  H   H3080     1.0  0.62831  0.53069  0.89899  1.0000
  C   C3092     1.0  0.69851  0.51292  0.97347  1.0000
  H   H3081     1.0  0.77894  0.50518  0.95975  1.0000
  N   N258      1.0  0.75208  0.50678  0.93400  1.0000
  C   C3093     1.0  0.72142  0.53773  0.91149  1.0000
  C   C3094     1.0  0.59090  0.55916  0.93605  1.0000
  Fe  Fe499     1.0  0.69743  0.49115  0.92121  1.0000
  C   C3095     1.0  0.65280  0.50383  0.93410  1.0000
  H   H3082     1.0  0.72201  0.49754  0.94942  1.0000
  C   C3096     1.0  0.75895  0.51388  0.92932  1.0000
  H   H3083     1.0  0.73945  0.56584  0.97399  1.0000
  S   S1017     1.0  0.75829  0.51767  0.95476  1.0000
  C   C3097     1.0  0.63825  0.52788  0.92529  1.0000
  C   C3098     1.0  0.60426  0.53319  0.93265  1.0000
  C   C3099     1.0  0.70363  0.53566  0.92292  1.0000
  H   H3084     1.0  0.74738  0.52922  0.90790  1.0000
  H   H3085     1.0  0.73796  0.50214  0.93338  1.0000
  C   C3100     1.0  0.71233  0.53304  0.91422  1.0000
  H   H3086     1.0  0.78548  0.53713  0.92222  1.0000
  C   C3101     1.0  0.77528  0.51718  0.98119  1.0000
  C   C3102     1.0  0.63141  0.52129  0.92540  1.0000
  H   H3087     1.0  0.73418  0.58016  0.96863  1.0000
  C   C3103     1.0  0.77497  0.51033  0.96566  1.0000
  S   S1018     1.0  0.70419  0.50560  0.91005  1.0000
  H   H3088     1.0  0.71202  0.52747  0.90952  1.0000
  H   H3089     1.0  0.64674  0.49898  0.93591  1.0000
  H   H3090     1.0  0.65128  0.50320  0.95133  1.0000
  H   H3091     1.0  0.67937  0.56895  0.96884  1.0000
  C   C3104     1.0  0.62778  0.52225  0.91597  1.0000
  S   S1019     1.0  0.69246  0.52952  0.92643  1.0000
  C   C3105     1.0  0.65512  0.50527  0.91423  1.0000
  H   H3092     1.0  0.76569  0.51328  0.93291  1.0000
  C   C3106     1.0  0.78012  0.57023  0.92814  1.0000
  S   S1020     1.0  0.69180  0.49831  0.93621  1.0000
  H   H3093     1.0  0.72747  0.50687  0.96060  1.0000
  H   H3094     1.0  0.61306  0.52322  0.96342  1.0000
  H   H3095     1.0  0.64872  0.50037  0.91711  1.0000
  C   C3107     1.0  0.66177  0.52713  0.97682  1.0000
  S   S1021     1.0  0.61892  0.51417  0.91623  1.0000
  Fe  Fe500     1.0  0.69972  0.51197  0.92545  1.0000
  C   C3108     1.0  0.78666  0.53846  0.92966  1.0000
  C   C3109     1.0  0.65791  0.57132  0.97550  1.0000
  C   C3110     1.0  0.60825  0.53353  0.94145  1.0000
  N   N259      1.0  0.66537  0.57221  0.98162  1.0000
  C   C3111     1.0  0.75359  0.49847  0.94408  1.0000
  C   C3112     1.0  0.76498  0.52392  0.98070  1.0000
  N   N260      1.0  0.65777  0.50772  0.92343  1.0000
  C   C3113     1.0  0.72051  0.49469  0.95821  1.0000
  C   C3114     1.0  0.73631  0.57408  0.97609  1.0000
  C   C3115     1.0  0.78025  0.51029  0.97373  1.0000
  C   C3116     1.0  0.75972  0.52391  0.97271  1.0000
  H   H3096     1.0  0.67490  0.49980  0.96435  1.0000
  C   C3117     1.0  0.75588  0.49267  0.98228  1.0000
  C   C3118     1.0  0.65841  0.51785  0.97673  1.0000
  H   H3097     1.0  0.61562  0.53653  0.93968  1.0000
  C   C3119     1.0  0.59313  0.56089  0.95345  1.0000
  C   C3120     1.0  0.68270  0.49639  0.96710  1.0000
  C   C3121     1.0  0.69304  0.50478  0.97437  1.0000
  S   S1022     1.0  0.71581  0.50433  0.92995  1.0000
  C   C3122     1.0  0.75238  0.58186  0.97210  1.0000
  H   H3098     1.0  0.72530  0.52968  0.97722  1.0000
  H   H3099     1.0  0.60040  0.53208  0.96864  1.0000
  H   H3100     1.0  0.77317  0.53138  0.94015  1.0000
  N   N261      1.0  0.68801  0.50524  0.96628  1.0000
  H   H3101     1.0  0.66885  0.51748  0.91272  1.0000
  H   H3102     1.0  0.67332  0.52218  0.92789  1.0000
  S   S1023     1.0  0.59266  0.50034  0.96906  1.0000
  C   C3123     1.0  0.78312  0.57009  0.94577  1.0000
  N   N262      1.0  0.74465  0.57683  0.97973  1.0000
  C   C3124     1.0  0.75719  0.49412  0.90753  1.0000
  C   C3125     1.0  0.78111  0.53695  0.94934  1.0000
  H   H3103     1.0  0.76706  0.58768  0.96917  1.0000
  H   H3104     1.0  0.70368  0.52752  0.96310  1.0000
  H   H3105     1.0  0.65784  0.56251  0.97664  1.0000
  H   H3106     1.0  0.64943  0.57572  0.97846  1.0000
  C   C3126     1.0  0.78708  0.57053  0.93447  1.0000
  H   H3107     1.0  0.67102  0.53353  0.98395  1.0000
  H   H3108     1.0  0.69240  0.56852  0.97954  1.0000
  H   H3109     1.0  0.78687  0.55613  0.98255  1.0000
  H   H3110     1.0  0.62239  0.53990  0.97070  1.0000
  Fe  Fe501     1.0  0.71982  0.49669  0.91547  1.0000
  H   H3111     1.0  0.77333  0.49187  0.91017  1.0000
  Fe  Fe502     1.0  0.60463  0.49362  0.95506  1.0000
  H   H3112     1.0  0.62511  0.49726  0.98212  1.0000
  H   H3113     1.0  0.74842  0.50171  0.95139  1.0000
  C   C3127     1.0  0.67631  0.57041  0.97710  1.0000
  H   H3114     1.0  0.78308  0.57070  0.91938  1.0000
  H   H3115     1.0  0.76223  0.49626  0.94475  1.0000
  H   H3116     1.0  0.66041  0.57486  0.96654  1.0000
  C   C3128     1.0  0.74700  0.49127  0.91178  1.0000
  C   C3129     1.0  0.77966  0.53522  0.93975  1.0000
  H   H3117     1.0  0.60387  0.54915  0.97914  1.0000
  H   H3118     1.0  0.70228  0.51260  0.98003  1.0000
  H   H3119     1.0  0.75141  0.49080  0.94410  1.0000
  C   C3130     1.0  0.61662  0.50113  0.98256  1.0000
  C   C3131     1.0  0.72936  0.52751  0.98424  1.0000
  S   S1024     1.0  0.73650  0.49712  0.90451  1.0000
  H   H3120     1.0  0.61485  0.49237  0.97153  1.0000
  C   C3132     1.0  0.68371  0.57031  0.98308  1.0000
  H   H3121     1.0  0.71085  0.49675  0.88817  1.0000
  H   H3122     1.0  0.65887  0.50063  0.98387  1.0000
  H   H3123     1.0  0.63598  0.53088  0.98216  1.0000
  H   H3124     1.0  0.73299  0.53445  0.98372  1.0000
  H   H3125     1.0  0.69273  0.49820  0.98169  1.0000
  H   H3126     1.0  0.73593  0.52004  0.98337  1.0000
  H   H3127     1.0  0.76355  0.49439  0.98275  1.0000
  H   H3128     1.0  0.68074  0.49164  0.97574  1.0000
  H   H3129     1.0  0.75860  0.49991  0.89970  1.0000
  C   C3133     1.0  0.60984  0.54506  0.98416  1.0000
  H   H3130     1.0  0.68817  0.49058  0.96199  1.0000
  C   C3134     1.0  0.76137  0.58072  0.98639  1.0000
  H   H3131     1.0  0.76103  0.52924  0.98641  1.0000
  C   C3135     1.0  0.93847  0.46516  0.21352  1.0000
  C   C3136     1.0  0.91726  0.44294  0.14128  1.0000
  C   C3137     1.0  0.94124  0.47508  0.08232  1.0000
  H   H3132     1.0  0.95863  0.43878  0.14369  1.0000
  H   H3133     1.0  0.90705  0.45613  0.19283  1.0000
  Fe  Fe503     1.0  0.92169  0.46237  0.15732  1.0000
  S   S1025     1.0  0.93608  0.44797  0.15637  1.0000
  C   C3138     1.0  0.95649  0.46268  0.14437  1.0000
  S   S1026     1.0  0.90587  0.45939  0.16862  1.0000
  C   C3139     1.0  0.90114  0.46967  0.20105  1.0000
  Fe  Fe504     1.0  0.96677  0.46023  0.18941  1.0000
  C   C3140     1.0  0.98113  0.46706  0.15008  1.0000
  S   S1027     1.0  0.96414  0.44344  0.19062  1.0000
  C   C3141     1.0  0.97989  0.47458  0.12791  1.0000
  Fe  Fe505     1.0  0.97632  0.48129  0.09064  1.0000
  H   H3134     1.0  0.91766  0.44327  0.14944  1.0000
  C   C3142     1.0  0.90184  0.46499  0.22045  1.0000
  S   S1028     1.0  0.95691  0.47554  0.18067  1.0000
  S   S1029     1.0  0.96592  0.46724  0.20374  1.0000
  S   S1030     1.0  0.88540  0.46396  0.15046  1.0000
  S   S1031     1.0  0.89692  0.46764  0.07324  1.0000
  H   H3135     1.0  0.93160  0.44678  0.11474  1.0000
  Fe  Fe506     1.0  0.89865  0.46933  0.15411  1.0000
  S   S1032     1.0  0.87060  0.47522  0.08347  1.0000
  Fe  Fe507     1.0  0.88587  0.46776  0.09002  1.0000
  S   S1033     1.0  0.88715  0.45384  0.10489  1.0000
  Fe  Fe508     1.0  0.88186  0.47679  0.06668  1.0000
  S   S1034     1.0  0.87846  0.47575  0.05080  1.0000
  H   H3136     1.0  0.96858  0.44265  0.13121  1.0000
  H   H3137     1.0  0.94530  0.45175  0.22539  1.0000
  C   C3143     1.0  0.89300  0.46620  0.12780  1.0000
  Fe  Fe509     1.0  0.96289  0.46410  0.09660  1.0000
  H   H3138     1.0  0.90070  0.43821  0.12800  1.0000
  S   S1035     1.0  0.94547  0.46209  0.10215  1.0000
  Fe  Fe510     1.0  0.97281  0.48015  0.17222  1.0000
  H   H3139     1.0  0.93107  0.47677  0.20078  1.0000
  H   H3140     1.0  0.93770  0.48520  0.06690  1.0000
  C   C3144     1.0  0.79308  0.45053  0.99284  1.0000
  C   C3145     1.0  0.80745  0.44673  0.01531  1.0000
  C   C3146     1.0  0.98134  0.44602  0.22512  1.0000
  Fe  Fe511     1.0  0.82385  0.47159  0.01137  1.0000
  C   C3147     1.0  0.86637  0.48337  0.13840  1.0000
  S   S1036     1.0  0.83037  0.46651  0.99499  1.0000
  Fe  Fe512     1.0  0.82729  0.47031  0.03419  1.0000
  C   C3148     1.0  0.85940  0.47814  0.13631  1.0000
  S   S1037     1.0  0.83577  0.46325  0.04851  1.0000
  Fe  Fe513     1.0  0.80452  0.47299  0.03063  1.0000
  H   H3141     1.0  0.86627  0.48309  0.14688  1.0000
  H   H3142     1.0  0.80380  0.45033  0.02274  1.0000
  H   H3143     1.0  0.93274  0.44725  0.13340  1.0000
  S   S1038     1.0  0.81993  0.46015  0.02789  1.0000
  S   S1039     1.0  0.83274  0.48055  0.01734  1.0000
  H   H3144     1.0  0.93518  0.46151  0.17089  1.0000
  S   S1040     1.0  0.92070  0.47800  0.16222  1.0000
  C   C3149     1.0  0.96393  0.44471  0.13926  1.0000
  H   H3145     1.0  0.90145  0.43893  0.14666  1.0000
  C   C3150     1.0  0.93433  0.48097  0.07511  1.0000
  S   S1041     1.0  0.98280  0.46438  0.18000  1.0000
  C   C3151     1.0  0.97725  0.48209  0.13474  1.0000
  H   H3146     1.0  0.89806  0.47134  0.12815  1.0000
  S   S1042     1.0  0.98671  0.45372  0.12374  1.0000
  H   H3147     1.0  0.93486  0.43041  0.22164  1.0000
  H   H3148     1.0  0.80683  0.47276  0.99917  1.0000
  S   S1043     1.0  0.91196  0.44466  0.23091  1.0000
  C   C3152     1.0  0.86709  0.47129  0.05027  1.0000
  C   C3153     1.0  0.86460  0.47289  0.03998  1.0000
  C   C3154     1.0  0.85506  0.47042  0.03928  1.0000
  C   C3155     1.0  0.84812  0.46597  0.04886  1.0000
  C   C3156     1.0  0.85088  0.46389  0.05910  1.0000
  C   C3157     1.0  0.86023  0.46670  0.05983  1.0000
  H   H3149     1.0  0.86996  0.47628  0.03254  1.0000
  H   H3150     1.0  0.85309  0.47190  0.03135  1.0000
  H   H3151     1.0  0.84561  0.46034  0.06653  1.0000
  H   H3152     1.0  0.86213  0.46532  0.06777  1.0000
  C   C3158     1.0  0.93704  0.46932  0.09284  1.0000
  H   H3153     1.0  0.98178  0.48023  0.21843  1.0000
  H   H3154     1.0  0.79397  0.47710  0.98710  1.0000
  H   H3155     1.0  0.91215  0.45107  0.10498  1.0000
  C   C3159     1.0  0.91898  0.47528  0.08886  1.0000
  C   C3160     1.0  0.92588  0.46948  0.09611  1.0000
  H   H3156     1.0  0.90972  0.43740  0.10939  1.0000
  H   H3157     1.0  0.83058  0.48480  0.06391  1.0000
  H   H3158     1.0  0.91043  0.47527  0.09143  1.0000
  H   H3159     1.0  0.92251  0.46521  0.10429  1.0000
  H   H3160     1.0  0.93188  0.44287  0.20366  1.0000
  C   C3161     1.0  0.88633  0.46148  0.13752  1.0000
  S   S1044     1.0  0.89555  0.48539  0.15902  1.0000
  C   C3162     1.0  0.90550  0.45862  0.20052  1.0000
  S   S1045     1.0  0.88823  0.48368  0.09124  1.0000
  S   S1046     1.0  0.97126  0.47320  0.08035  1.0000
  C   C3163     1.0  0.92573  0.44519  0.13225  1.0000
  H   H3161     1.0  0.94929  0.47855  0.14846  1.0000
  C   C3164     1.0  0.87980  0.45486  0.13699  1.0000
  C   C3165     1.0  0.88001  0.45276  0.12691  1.0000
  C   C3166     1.0  0.88650  0.45753  0.11717  1.0000
  C   C3167     1.0  0.92503  0.44489  0.12175  1.0000
  C   C3168     1.0  0.89295  0.46435  0.11759  1.0000
  H   H3162     1.0  0.87463  0.45121  0.14446  1.0000
  H   H3163     1.0  0.87511  0.44740  0.12666  1.0000
  S   S1047     1.0  0.96675  0.47342  0.10657  1.0000
  S   S1048     1.0  0.91461  0.47102  0.14243  1.0000
  C   C3169     1.0  0.94360  0.44618  0.16630  1.0000
  C   C3170     1.0  0.95187  0.43677  0.16824  1.0000
  C   C3171     1.0  0.95812  0.43574  0.17586  1.0000
  C   C3172     1.0  0.95626  0.44424  0.18134  1.0000
  C   C3173     1.0  0.94798  0.45349  0.17939  1.0000
  C   C3174     1.0  0.94160  0.45439  0.17206  1.0000
  H   H3164     1.0  0.95340  0.43026  0.16394  1.0000
  H   H3165     1.0  0.96449  0.42849  0.17737  1.0000
  H   H3166     1.0  0.94629  0.45987  0.18376  1.0000
  N   N263      1.0  0.93862  0.44620  0.21523  1.0000
  H   H3167     1.0  0.98049  0.44899  0.21663  1.0000
  C   C3175     1.0  0.98398  0.45958  0.14320  1.0000
  H   H3168     1.0  0.92343  0.43932  0.10414  1.0000
  C   C3176     1.0  0.93364  0.44911  0.20657  1.0000
  H   H3169     1.0  0.90019  0.46748  0.22816  1.0000
  C   C3177     1.0  0.93058  0.46018  0.20145  1.0000
  Fe  Fe514     1.0  0.89833  0.48419  0.07411  1.0000
  H   H3170     1.0  0.97002  0.44375  0.14413  1.0000
  S   S1049     1.0  0.80792  0.48371  0.01377  1.0000
  Fe  Fe515     1.0  0.95727  0.48288  0.19416  1.0000
  H   H3171     1.0  0.96093  0.45984  0.15090  1.0000
  C   C3178     1.0  0.80993  0.47247  0.99062  1.0000
  Fe  Fe516     1.0  0.90431  0.47563  0.17252  1.0000
  H   H3172     1.0  0.94051  0.47137  0.21624  1.0000
  H   H3173     1.0  0.81360  0.45150  0.00991  1.0000
  C   C3179     1.0  0.90822  0.44039  0.13973  1.0000
  C   C3180     1.0  0.97487  0.45181  0.23317  1.0000
  H   H3174     1.0  0.85399  0.47389  0.14309  1.0000
  C   C3181     1.0  0.89889  0.47271  0.21115  1.0000
  N   N264      1.0  0.95727  0.45593  0.13760  1.0000
  Fe  Fe517     1.0  0.98099  0.47303  0.19340  1.0000
  Fe  Fe518     1.0  0.98191  0.46040  0.10737  1.0000
  H   H3175     1.0  0.94910  0.43049  0.21529  1.0000
  C   C3182     1.0  0.91536  0.44251  0.10919  1.0000
  H   H3176     1.0  0.81168  0.43804  0.01787  1.0000
  C   C3183     1.0  0.80123  0.44938  0.99836  1.0000
  H   H3177     1.0  0.97946  0.47753  0.11936  1.0000
  H   H3178     1.0  0.89812  0.46794  0.11011  1.0000
  C   C3184     1.0  0.97790  0.47835  0.14584  1.0000
  H   H3179     1.0  0.94297  0.43348  0.22886  1.0000
  H   H3180     1.0  0.94983  0.47487  0.07965  1.0000
  Fe  Fe519     1.0  0.91216  0.48638  0.14843  1.0000
  H   H3181     1.0  0.95193  0.45399  0.12430  1.0000
  N   N265      1.0  0.91617  0.44229  0.12032  1.0000
  C   C3185     1.0  0.94161  0.43454  0.22051  1.0000
  H   H3182     1.0  0.85449  0.47403  0.12368  1.0000
  C   C3186     1.0  0.90783  0.44006  0.12915  1.0000
  C   C3187     1.0  0.95134  0.45936  0.12963  1.0000
  C   C3188     1.0  0.94980  0.47325  0.14309  1.0000
  C   C3189     1.0  0.94444  0.46982  0.12822  1.0000
  C   C3190     1.0  0.94371  0.47681  0.13497  1.0000
  H   H3183     1.0  0.89497  0.48111  0.21175  1.0000
  C   C3191     1.0  0.85971  0.47818  0.12544  1.0000
  C   C3192     1.0  0.90812  0.45079  0.20995  1.0000
  H   H3184     1.0  0.93837  0.48493  0.13396  1.0000
  C   C3193     1.0  0.94118  0.45404  0.21865  1.0000
  H   H3185     1.0  0.91163  0.44229  0.20948  1.0000
  Fe  Fe520     1.0  0.98619  0.46003  0.08314  1.0000
  H   H3186     1.0  0.93974  0.47245  0.12191  1.0000
  S   S1050     1.0  0.97739  0.45015  0.09868  1.0000
  S   S1051     1.0  0.89900  0.48005  0.18921  1.0000
  C   C3194     1.0  0.90677  0.45407  0.21980  1.0000
  C   C3195     1.0  0.93312  0.46821  0.20489  1.0000
  C   C3196     1.0  0.92317  0.48112  0.07836  1.0000
  C   C3197     1.0  0.86690  0.48347  0.11683  1.0000
  H   H3187     1.0  0.79168  0.47227  0.01530  1.0000
  H   H3188     1.0  0.92649  0.46246  0.19468  1.0000
  S   S1052     1.0  0.97530  0.48789  0.15411  1.0000
  S   S1053     1.0  0.81142  0.48229  0.03819  1.0000
  C   C3198     1.0  0.87385  0.48849  0.11923  1.0000
  H   H3189     1.0  0.91284  0.48664  0.20871  1.0000
  H   H3190     1.0  0.98161  0.46405  0.15861  1.0000
  H   H3191     1.0  0.95977  0.48421  0.22610  1.0000
  H   H3192     1.0  0.98661  0.45087  0.14650  1.0000
  N   N266      1.0  0.79902  0.44731  0.00964  1.0000
  H   H3193     1.0  0.80924  0.45047  0.99355  1.0000
  C   C3199     1.0  0.98333  0.46331  0.13210  1.0000
  C   C3200     1.0  0.98801  0.47324  0.22101  1.0000
  H   H3194     1.0  0.94619  0.48692  0.09740  1.0000
  H   H3195     1.0  0.96907  0.45933  0.23078  1.0000
  H   H3196     1.0  0.86715  0.48361  0.10835  1.0000
  H   H3197     1.0  0.98731  0.45378  0.03994  1.0000
  C   C3201     1.0  0.95700  0.48430  0.23478  1.0000
  H   H3198     1.0  0.88425  0.48843  0.13956  1.0000
  H   H3199     1.0  0.83675  0.48689  0.07959  1.0000
  C   C3202     1.0  0.78903  0.44552  0.01570  1.0000
  S   S1054     1.0  0.91772  0.46963  0.23609  1.0000
  C   C3203     1.0  0.83750  0.48846  0.06240  1.0000
  N   N267      1.0  0.87359  0.48830  0.12991  1.0000
  S   S1055     1.0  0.94696  0.46799  0.23638  1.0000
  S   S1056     1.0  0.78812  0.46899  0.03901  1.0000
  H   H3200     1.0  0.96389  0.37386  0.41439  1.0000
  S   S1057     1.0  0.92108  0.45313  0.33913  1.0000
  S   S1058     1.0  0.92325  0.43174  0.36653  1.0000
  C   C3204     1.0  0.85145  0.04667  0.47443  1.0000
  C   C3205     1.0  0.85038  0.01196  0.42194  1.0000
  C   C3206     1.0  0.94260  0.36271  0.45770  1.0000
  H   H3201     1.0  0.96346  0.21450  0.41209  1.0000
  C   C3207     1.0  0.97466  0.14879  0.48196  1.0000
  C   C3208     1.0  0.92859  0.31411  0.40121  1.0000
  Fe  Fe521     1.0  0.91540  0.44853  0.35759  1.0000
  C   C3209     1.0  0.95818  0.45229  0.34144  1.0000
  Fe  Fe522     1.0  0.98187  0.47345  0.28286  1.0000
  H   H3202     1.0  0.98301  0.47431  0.23816  1.0000
  C   C3210     1.0  0.89942  0.24408  0.46302  1.0000
  H   H3203     1.0  0.94766  0.48413  0.26601  1.0000
  N   N268      1.0  0.96273  0.23940  0.48332  1.0000
  C   C3211     1.0  0.97073  0.40979  0.48089  1.0000
  H   H3204     1.0  0.89933  0.48012  0.27163  1.0000
  H   H3205     1.0  0.98638  0.45358  0.34767  1.0000
  S   S1059     1.0  0.92845  0.44661  0.25134  1.0000
  C   C3212     1.0  0.98121  0.25562  0.43645  1.0000
  H   H3206     1.0  0.89844  0.42244  0.43773  1.0000
  H   H3207     1.0  0.94266  0.38791  0.47472  1.0000
  H   H3208     1.0  0.97435  0.47329  0.33671  1.0000
  C   C3213     1.0  0.85163  0.00477  0.44096  1.0000
  H   H3209     1.0  0.97549  0.44943  0.33518  1.0000
  S   S1060     1.0  0.97429  0.47149  0.27017  1.0000
  C   C3214     1.0  0.93515  0.15016  0.46463  1.0000
  H   H3210     1.0  0.80013  0.99397  0.45982  1.0000
  Fe  Fe523     1.0  0.97350  0.40101  0.45051  1.0000
  S   S1061     1.0  0.95528  0.40470  0.45502  1.0000
  H   H3211     1.0  0.89266  0.48019  0.30646  1.0000
  Fe  Fe524     1.0  0.90652  0.38883  0.42075  1.0000
  S   S1062     1.0  0.92190  0.37685  0.41541  1.0000
  S   S1063     1.0  0.89794  0.40426  0.41039  1.0000
  H   H3212     1.0  0.85727  0.11405  0.46504  1.0000
  Fe  Fe525     1.0  0.92583  0.37715  0.43103  1.0000
  C   C3215     1.0  0.94767  0.30040  0.48326  1.0000
  Fe  Fe526     1.0  0.91334  0.36352  0.42620  1.0000
  H   H3213     1.0  0.78895  0.01812  0.41878  1.0000
  S   S1064     1.0  0.91113  0.39023  0.43569  1.0000
  C   C3216     1.0  0.98372  0.17288  0.40555  1.0000
  H   H3214     1.0  0.96232  0.32812  0.47066  1.0000
  H   H3215     1.0  0.94561  0.45226  0.36822  1.0000
  Fe  Fe527     1.0  0.95421  0.13017  0.44342  1.0000
  S   S1065     1.0  0.95663  0.14719  0.44108  1.0000
  S   S1066     1.0  0.93687  0.12921  0.44550  1.0000
  H   H3216     1.0  0.89540  0.48502  0.39150  1.0000
  C   C3217     1.0  0.91439  0.09178  0.48228  1.0000
  Fe  Fe528     1.0  0.96541  0.14002  0.45476  1.0000
  S   S1067     1.0  0.80326  0.04259  0.43250  1.0000
  C   C3218     1.0  0.98370  0.43896  0.24676  1.0000
  S   S1068     1.0  0.96164  0.12350  0.45817  1.0000
  Fe  Fe529     1.0  0.90151  0.09829  0.43844  1.0000
  S   S1069     1.0  0.88448  0.10860  0.43857  1.0000
  S   S1070     1.0  0.91752  0.10069  0.42659  1.0000
  Fe  Fe530     1.0  0.89487  0.08429  0.46115  1.0000
  S   S1071     1.0  0.87746  0.09331  0.46348  1.0000
  C   C3219     1.0  0.98574  0.35231  0.41523  1.0000
  Fe  Fe531     1.0  0.87915  0.09245  0.44597  1.0000
  S   S1072     1.0  0.86373  0.09030  0.44302  1.0000
  Fe  Fe532     1.0  0.88391  0.10862  0.45602  1.0000
  S   S1073     1.0  0.87715  0.12300  0.46431  1.0000
  S   S1074     1.0  0.89622  0.08209  0.44422  1.0000
  S   S1075     1.0  0.90114  0.09967  0.45532  1.0000
  C   C3220     1.0  0.98019  0.26700  0.43230  1.0000
  H   H3217     1.0  0.88920  0.43446  0.35822  1.0000
  Fe  Fe533     1.0  0.96256  0.21775  0.44408  1.0000
  C   C3221     1.0  0.87313  0.48667  0.28545  1.0000
  S   S1076     1.0  0.94451  0.22160  0.44769  1.0000
  S   S1077     1.0  0.98183  0.40262  0.43271  1.0000
  C   C3222     1.0  0.84862  0.00403  0.43170  1.0000
  C   C3223     1.0  0.91097  0.13242  0.46916  1.0000
  H   H3218     1.0  0.97868  0.12913  0.46763  1.0000
  H   H3219     1.0  0.96539  0.18028  0.46879  1.0000
  H   H3220     1.0  0.83778  0.10325  0.47122  1.0000
  C   C3224     1.0  0.93158  0.19030  0.46155  1.0000
  S   S1078     1.0  0.95648  0.30609  0.44744  1.0000
  Fe  Fe534     1.0  0.96709  0.31456  0.43256  1.0000
  S   S1079     1.0  0.96492  0.31708  0.41542  1.0000
  C   C3225     1.0  0.94054  0.19116  0.46485  1.0000
  S   S1080     1.0  0.96964  0.12479  0.43142  1.0000
  Fe  Fe535     1.0  0.89980  0.17543  0.44642  1.0000
  C   C3226     1.0  0.98031  0.16563  0.41540  1.0000
  S   S1081     1.0  0.90129  0.16186  0.43807  1.0000
  Fe  Fe536     1.0  0.90212  0.19936  0.44189  1.0000
  H   H3221     1.0  0.96585  0.25217  0.41443  1.0000
  S   S1082     1.0  0.90912  0.21337  0.42993  1.0000
  Fe  Fe537     1.0  0.91116  0.18208  0.46017  1.0000
  S   S1083     1.0  0.91794  0.46384  0.36041  1.0000
  H   H3222     1.0  0.89227  0.33512  0.40770  1.0000
  S   S1084     1.0  0.91412  0.18319  0.44211  1.0000
  S   S1085     1.0  0.88792  0.19175  0.44418  1.0000
  Fe  Fe538     1.0  0.90606  0.29111  0.44675  1.0000
  H   H3223     1.0  0.93646  0.30898  0.39842  1.0000
  S   S1086     1.0  0.89764  0.30719  0.45184  1.0000
  Fe  Fe539     1.0  0.90429  0.27083  0.44004  1.0000
  C   C3227     1.0  0.79223  0.00185  0.42911  1.0000
  S   S1087     1.0  0.89243  0.26164  0.43904  1.0000
  H   H3224     1.0  0.89523  0.41838  0.45825  1.0000
  Fe  Fe540     1.0  0.92480  0.27990  0.43132  1.0000
  S   S1088     1.0  0.93832  0.28286  0.41636  1.0000
  H   H3225     1.0  0.95930  0.14583  0.41307  1.0000
  S   S1089     1.0  0.90736  0.28751  0.43038  1.0000
  Fe  Fe541     1.0  0.82663  0.02335  0.45851  1.0000
  S   S1090     1.0  0.83151  0.03108  0.44067  1.0000
  S   S1091     1.0  0.83068  0.00496  0.46441  1.0000
  Fe  Fe542     1.0  0.81579  0.04555  0.46439  1.0000
  S   S1092     1.0  0.81973  0.05506  0.44693  1.0000
  H   H3226     1.0  0.84476  0.99746  0.43217  1.0000
  Fe  Fe543     1.0  0.81461  0.04162  0.44308  1.0000
  H   H3227     1.0  0.94829  0.10558  0.46739  1.0000
  Fe  Fe544     1.0  0.83620  0.04348  0.44658  1.0000
  S   S1093     1.0  0.85345  0.04611  0.44058  1.0000
  S   S1094     1.0  0.80950  0.03303  0.46062  1.0000
  S   S1095     1.0  0.83247  0.03487  0.46438  1.0000
  C   C3228     1.0  0.94689  0.47724  0.25298  1.0000
  H   H3228     1.0  0.89884  0.34218  0.41331  1.0000
  C   C3229     1.0  0.96934  0.22922  0.48293  1.0000
  C   C3230     1.0  0.97680  0.26990  0.45083  1.0000
  H   H3229     1.0  0.91543  0.47897  0.38528  1.0000
  H   H3230     1.0  0.97684  0.28292  0.43621  1.0000
  C   C3231     1.0  0.94949  0.18590  0.43662  1.0000
  H   H3231     1.0  0.91617  0.34083  0.40120  1.0000
  H   H3232     1.0  0.93641  0.27250  0.46271  1.0000
  C   C3232     1.0  0.85877  0.01408  0.45052  1.0000
  H   H3233     1.0  0.89594  0.45125  0.29234  1.0000
  C   C3233     1.0  0.95056  0.08830  0.44667  1.0000
  H   H3234     1.0  0.95450  0.27211  0.44674  1.0000
  C   C3234     1.0  0.87125  0.06482  0.46705  1.0000
  H   H3235     1.0  0.96455  0.41696  0.41892  1.0000
  C   C3235     1.0  0.90222  0.22500  0.46384  1.0000
  N   N269      1.0  0.91999  0.31396  0.46671  1.0000
  H   H3236     1.0  0.94889  0.25540  0.45964  1.0000
  Fe  Fe545     1.0  0.97744  0.11932  0.44607  1.0000
  C   C3236     1.0  0.87071  0.04278  0.47536  1.0000
  H   H3237     1.0  0.95465  0.41708  0.43182  1.0000
  C   C3237     1.0  0.82702  0.99838  0.45626  1.0000
  C   C3238     1.0  0.82216  0.00458  0.44750  1.0000
  C   C3239     1.0  0.81924  0.99932  0.44103  1.0000
  H   H3238     1.0  0.80095  0.00121  0.42736  1.0000
  H   H3239     1.0  0.85880  0.02272  0.45028  1.0000
  H   H3240     1.0  0.92208  0.48679  0.35090  1.0000
  H   H3241     1.0  0.82050  0.01346  0.44573  1.0000
  H   H3242     1.0  0.81556  0.00421  0.43421  1.0000
  C   C3240     1.0  0.97029  0.34650  0.41467  1.0000
  C   C3241     1.0  0.98593  0.34513  0.44294  1.0000
  C   C3242     1.0  0.91742  0.32571  0.42916  1.0000
  C   C3243     1.0  0.97030  0.43816  0.43487  1.0000
  C   C3244     1.0  0.96897  0.44998  0.34248  1.0000
  C   C3245     1.0  0.94647  0.21605  0.41275  1.0000
  H   H3243     1.0  0.88655  0.45711  0.30997  1.0000
  N   N270      1.0  0.91962  0.13831  0.46715  1.0000
  C   C3246     1.0  0.95268  0.24190  0.48101  1.0000
  C   C3247     1.0  0.90459  0.22646  0.43325  1.0000
  C   C3248     1.0  0.89372  0.23018  0.43827  1.0000
  C   C3249     1.0  0.89007  0.24102  0.43988  1.0000
  C   C3250     1.0  0.89732  0.24808  0.43687  1.0000
  C   C3251     1.0  0.90826  0.24423  0.43215  1.0000
  C   C3252     1.0  0.91184  0.23351  0.43022  1.0000
  H   H3244     1.0  0.88804  0.22485  0.44052  1.0000
  H   H3245     1.0  0.88158  0.24397  0.44344  1.0000
  H   H3246     1.0  0.93475  0.29814  0.43034  1.0000
  H   H3247     1.0  0.92024  0.23073  0.42628  1.0000
  C   C3253     1.0  0.95713  0.30806  0.41539  1.0000
  C   C3254     1.0  0.94783  0.30666  0.42372  1.0000
  C   C3255     1.0  0.94195  0.29904  0.42399  1.0000
  C   C3256     1.0  0.94536  0.29272  0.41599  1.0000
  C   C3257     1.0  0.95453  0.29430  0.40751  1.0000
  C   C3258     1.0  0.96036  0.30201  0.40717  1.0000
  Fe  Fe546     1.0  0.90672  0.47362  0.25171  1.0000
  H   H3248     1.0  0.96617  0.45647  0.41108  1.0000
  H   H3249     1.0  0.95718  0.28951  0.40123  1.0000
  H   H3250     1.0  0.96753  0.30309  0.40068  1.0000
  N   N271      1.0  0.88215  0.40438  0.44415  1.0000
  C   C3259     1.0  0.93097  0.20852  0.44968  1.0000
  C   C3260     1.0  0.92706  0.19888  0.45374  1.0000
  H   H3251     1.0  0.94424  0.18444  0.47068  1.0000
  C   C3261     1.0  0.95037  0.47721  0.24175  1.0000
  C   C3262     1.0  0.94511  0.33522  0.47326  1.0000
  H   H3252     1.0  0.92731  0.21512  0.44368  1.0000
  H   H3253     1.0  0.92068  0.19808  0.45055  1.0000
  H   H3254     1.0  0.98109  0.27033  0.42352  1.0000
  N   N272      1.0  0.86158  0.05021  0.47276  1.0000
  S   S1096     1.0  0.91841  0.36300  0.44145  1.0000
  H   H3255     1.0  0.80787  0.99857  0.47300  1.0000
  H   H3256     1.0  0.86178  0.02758  0.43057  1.0000
  H   H3257     1.0  0.98493  0.17070  0.39774  1.0000
  S   S1097     1.0  0.88848  0.48078  0.37041  1.0000
  C   C3263     1.0  0.85624  0.05827  0.44167  1.0000
  C   C3264     1.0  0.86708  0.05889  0.44034  1.0000
  C   C3265     1.0  0.86954  0.06860  0.44088  1.0000
  C   C3266     1.0  0.86116  0.07779  0.44261  1.0000
  C   C3267     1.0  0.85034  0.07714  0.44398  1.0000
  C   C3268     1.0  0.84787  0.06738  0.44365  1.0000
  H   H3258     1.0  0.87360  0.05188  0.43878  1.0000
  H   H3259     1.0  0.87791  0.06905  0.43974  1.0000
  H   H3260     1.0  0.84381  0.08422  0.44527  1.0000
  H   H3261     1.0  0.83950  0.06700  0.44465  1.0000
  C   C3269     1.0  0.88346  0.13408  0.45701  1.0000
  C   C3270     1.0  0.88243  0.14279  0.46191  1.0000
  C   C3271     1.0  0.88773  0.15148  0.45612  1.0000
  C   C3272     1.0  0.89406  0.15146  0.44542  1.0000
  C   C3273     1.0  0.89491  0.14282  0.44051  1.0000
  C   C3274     1.0  0.88962  0.13419  0.44627  1.0000
  H   H3262     1.0  0.87759  0.14282  0.47019  1.0000
  H   H3263     1.0  0.88687  0.15819  0.45993  1.0000
  H   H3264     1.0  0.89966  0.14278  0.43220  1.0000
  H   H3265     1.0  0.89023  0.12766  0.44234  1.0000
  H   H3266     1.0  0.79901  0.01532  0.48021  1.0000
  H   H3267     1.0  0.87379  0.37852  0.47902  1.0000
  H   H3268     1.0  0.97624  0.16295  0.43316  1.0000
  H   H3269     1.0  0.98299  0.32720  0.41495  1.0000
  H   H3270     1.0  0.95293  0.18649  0.44330  1.0000
  H   H3271     1.0  0.93779  0.36023  0.45363  1.0000
  C   C3275     1.0  0.91487  0.31808  0.47595  1.0000
  C   C3276     1.0  0.93216  0.12129  0.43958  1.0000
  C   C3277     1.0  0.92093  0.12212  0.44196  1.0000
  C   C3278     1.0  0.91653  0.11625  0.43744  1.0000
  C   C3279     1.0  0.92329  0.10916  0.43076  1.0000
  C   C3280     1.0  0.93459  0.10844  0.42810  1.0000
  C   C3281     1.0  0.93905  0.11454  0.43251  1.0000
  H   H3272     1.0  0.91552  0.12751  0.44717  1.0000
  H   H3273     1.0  0.90784  0.11722  0.43909  1.0000
  H   H3274     1.0  0.93987  0.10301  0.42283  1.0000
  H   H3275     1.0  0.94775  0.11392  0.43056  1.0000
  C   C3282     1.0  0.91212  0.33645  0.43036  1.0000
  C   C3283     1.0  0.93581  0.13965  0.47143  1.0000
  C   C3284     1.0  0.91298  0.31672  0.43574  1.0000
  C   C3285     1.0  0.90341  0.31838  0.44380  1.0000
  C   C3286     1.0  0.89837  0.32906  0.44538  1.0000
  C   C3287     1.0  0.90269  0.33811  0.43863  1.0000
  N   N273      1.0  0.90629  0.23410  0.46218  1.0000
  C   C3288     1.0  0.91807  0.23324  0.45885  1.0000
  H   H3276     1.0  0.89098  0.33037  0.45166  1.0000
  H   H3277     1.0  0.89857  0.34638  0.43962  1.0000
  C   C3289     1.0  0.95153  0.39663  0.44851  1.0000
  C   C3290     1.0  0.94062  0.39772  0.44845  1.0000
  C   C3291     1.0  0.93791  0.39140  0.44280  1.0000
  C   C3292     1.0  0.94615  0.38406  0.43723  1.0000
  C   C3293     1.0  0.95698  0.38296  0.43741  1.0000
  C   C3294     1.0  0.95964  0.38916  0.44307  1.0000
  H   H3278     1.0  0.93430  0.40348  0.45268  1.0000
  H   H3279     1.0  0.92951  0.39221  0.44276  1.0000
  H   H3280     1.0  0.96336  0.37722  0.43323  1.0000
  H   H3281     1.0  0.96802  0.38804  0.44319  1.0000
  H   H3282     1.0  0.92893  0.37319  0.46603  1.0000
  C   C3295     1.0  0.85527  0.02040  0.42150  1.0000
  C   C3296     1.0  0.94930  0.48435  0.34109  1.0000
  H   H3283     1.0  0.88988  0.41353  0.42891  1.0000
  H   H3284     1.0  0.91578  0.15156  0.41939  1.0000
  C   C3297     1.0  0.89326  0.41684  0.44279  1.0000
  C   C3298     1.0  0.95215  0.45160  0.36096  1.0000
  C   C3299     1.0  0.98265  0.44668  0.35319  1.0000
  C   C3300     1.0  0.92675  0.15462  0.45900  1.0000
  C   C3301     1.0  0.85815  0.02089  0.43094  1.0000
  S   S1098     1.0  0.98284  0.30430  0.43679  1.0000
  S   S1099     1.0  0.89745  0.37540  0.43012  1.0000
  H   H3285     1.0  0.84791  0.01159  0.41475  1.0000
  C   C3302     1.0  0.95819  0.25837  0.41634  1.0000
  H   H3286     1.0  0.92044  0.24016  0.46039  1.0000
  H   H3287     1.0  0.96607  0.42239  0.44018  1.0000
  H   H3288     1.0  0.91283  0.31262  0.48391  1.0000
  S   S1100     1.0  0.97317  0.20081  0.44598  1.0000
  C   C3303     1.0  0.94975  0.45312  0.35074  1.0000
  H   H3289     1.0  0.97423  0.43680  0.44162  1.0000
  C   C3304     1.0  0.96155  0.44075  0.41693  1.0000
  Fe  Fe547     1.0  0.98240  0.20731  0.42908  1.0000
  H   H3290     1.0  0.84870  0.04903  0.46655  1.0000
  H   H3291     1.0  0.91689  0.30851  0.43450  1.0000
  H   H3292     1.0  0.91547  0.43023  0.31751  1.0000
  C   C3305     1.0  0.91612  0.42434  0.37883  1.0000
  C   C3306     1.0  0.90503  0.42810  0.38305  1.0000
  C   C3307     1.0  0.89957  0.42186  0.39272  1.0000
  C   C3308     1.0  0.90515  0.41186  0.39829  1.0000
  C   C3309     1.0  0.91625  0.40815  0.39410  1.0000
  C   C3310     1.0  0.92169  0.41434  0.38438  1.0000
  H   H3293     1.0  0.90065  0.43580  0.37888  1.0000
  H   H3294     1.0  0.89098  0.42479  0.39590  1.0000
  H   H3295     1.0  0.92064  0.40047  0.39829  1.0000
  H   H3296     1.0  0.93026  0.41137  0.38117  1.0000
  Fe  Fe548     1.0  0.98352  0.20841  0.45159  1.0000
  S   S1101     1.0  0.97091  0.22382  0.42677  1.0000
  N   N274      1.0  0.90101  0.43151  0.34346  1.0000
  C   C3311     1.0  0.88842  0.41172  0.43784  1.0000
  C   C3312     1.0  0.82289  0.06510  0.47113  1.0000
  H   H3297     1.0  0.94109  0.23631  0.47607  1.0000
  H   H3298     1.0  0.88475  0.42938  0.34902  1.0000
  C   C3313     1.0  0.96928  0.45456  0.25208  1.0000
  C   C3314     1.0  0.95012  0.48430  0.25727  1.0000
  H   H3299     1.0  0.86691  0.00881  0.45128  1.0000
  C   C3315     1.0  0.96873  0.36554  0.41452  1.0000
  H   H3300     1.0  0.95594  0.16560  0.41313  1.0000
  H   H3301     1.0  0.85455  0.06701  0.46665  1.0000
  C   C3316     1.0  0.93649  0.34245  0.47856  1.0000
  H   H3302     1.0  0.97501  0.40195  0.47871  1.0000
  H   H3303     1.0  0.92485  0.32435  0.42294  1.0000
  C   C3317     1.0  0.96058  0.41502  0.47844  1.0000
  C   C3318     1.0  0.95043  0.25623  0.45083  1.0000
  C   C3319     1.0  0.98004  0.25141  0.44781  1.0000
  S   S1102     1.0  0.98186  0.13548  0.44391  1.0000
  H   H3304     1.0  0.90005  0.09221  0.47725  1.0000
  S   S1103     1.0  0.89081  0.37449  0.46076  1.0000
  H   H3305     1.0  0.91388  0.24963  0.42963  1.0000
  S   S1104     1.0  0.87120  0.19367  0.47446  1.0000
  H   H3306     1.0  0.86861  0.40325  0.43900  1.0000
  C   C3320     1.0  0.88975  0.43484  0.34940  1.0000
  C   C3321     1.0  0.90976  0.31599  0.41090  1.0000
  C   C3322     1.0  0.90062  0.45247  0.29741  1.0000
  H   H3307     1.0  0.94505  0.31161  0.42985  1.0000
  H   H3308     1.0  0.95094  0.24227  0.43212  1.0000
  H   H3309     1.0  0.85663  0.02665  0.41398  1.0000
  H   H3310     1.0  0.90656  0.13536  0.46235  1.0000
  N   N275      1.0  0.84831  0.10940  0.45628  1.0000
  C   C3323     1.0  0.84470  0.11170  0.44677  1.0000
  C   C3324     1.0  0.85447  0.11576  0.45749  1.0000
  C   C3325     1.0  0.84767  0.12023  0.43797  1.0000
  C   C3326     1.0  0.85749  0.12444  0.44889  1.0000
  C   C3327     1.0  0.85414  0.12660  0.43905  1.0000
  C   C3328     1.0  0.84530  0.10027  0.46533  1.0000
  H   H3311     1.0  0.83993  0.10658  0.44576  1.0000
  C   C3329     1.0  0.98432  0.18586  0.41563  1.0000
  H   H3312     1.0  0.84515  0.12173  0.43030  1.0000
  C   C3330     1.0  0.91199  0.48688  0.38755  1.0000
  H   H3313     1.0  0.85664  0.13315  0.43224  1.0000
  C   C3331     1.0  0.88076  0.38074  0.48003  1.0000
  H   H3314     1.0  0.85197  0.09617  0.46978  1.0000
  H   H3315     1.0  0.97136  0.21334  0.47944  1.0000
  Fe  Fe549     1.0  0.93087  0.46385  0.24544  1.0000
  H   H3316     1.0  0.98095  0.24266  0.45108  1.0000
  C   C3332     1.0  0.94929  0.24791  0.44669  1.0000
  C   C3333     1.0  0.92814  0.26283  0.47745  1.0000
  H   H3317     1.0  0.94230  0.13617  0.47588  1.0000
  H   H3318     1.0  0.94374  0.13675  0.41806  1.0000
  S   S1105     1.0  0.96229  0.14916  0.46804  1.0000
  Fe  Fe550     1.0  0.90365  0.46137  0.33888  1.0000
  C   C3334     1.0  0.90928  0.42756  0.34898  1.0000
  H   H3319     1.0  0.87135  0.07343  0.46360  1.0000
  S   S1106     1.0  0.91684  0.34760  0.42070  1.0000
  N   N276      1.0  0.97614  0.44829  0.24382  1.0000
  C   C3335     1.0  0.88009  0.40236  0.45541  1.0000
  Fe  Fe551     1.0  0.95754  0.31896  0.45531  1.0000
  C   C3336     1.0  0.91979  0.30930  0.40715  1.0000
  H   H3320     1.0  0.87982  0.48148  0.31638  1.0000
  H   H3321     1.0  0.93687  0.17618  0.41826  1.0000
  H   H3322     1.0  0.93410  0.32932  0.39458  1.0000
  C   C3337     1.0  0.91707  0.33198  0.40276  1.0000
  N   N277      1.0  0.90855  0.32717  0.40881  1.0000
  H   H3323     1.0  0.92152  0.16686  0.42297  1.0000
  H   H3324     1.0  0.96950  0.46341  0.24900  1.0000
  Fe  Fe552     1.0  0.97917  0.46704  0.37543  1.0000
  H   H3325     1.0  0.85259  0.01146  0.45801  1.0000
  Fe  Fe553     1.0  0.96405  0.48821  0.36700  1.0000
  C   C3338     1.0  0.95102  0.15052  0.41513  1.0000
  H   H3326     1.0  0.96483  0.44831  0.36967  1.0000
  N   N278      1.0  0.85604  0.01330  0.44058  1.0000
  H   H3327     1.0  0.97215  0.45181  0.25991  1.0000
  H   H3328     1.0  0.95579  0.48139  0.33466  1.0000
  C   C3339     1.0  0.95996  0.09087  0.44744  1.0000
  C   C3340     1.0  0.86176  0.06111  0.46869  1.0000
  H   H3329     1.0  0.92365  0.09551  0.45400  1.0000
  C   C3341     1.0  0.96829  0.18104  0.47554  1.0000
  C   C3342     1.0  0.91219  0.32945  0.47530  1.0000
  H   H3330     1.0  0.95121  0.08334  0.44092  1.0000
  H   H3331     1.0  0.93065  0.42334  0.32737  1.0000
  H   H3332     1.0  0.92659  0.42162  0.34772  1.0000
  H   H3333     1.0  0.92832  0.12574  0.47809  1.0000
  C   C3343     1.0  0.89800  0.33397  0.41301  1.0000
  H   H3334     1.0  0.93160  0.08731  0.44436  1.0000
  H   H3335     1.0  0.85932  0.21325  0.48247  1.0000
  C   C3344     1.0  0.92244  0.32092  0.45669  1.0000
  S   S1107     1.0  0.91876  0.44355  0.28320  1.0000
  H   H3336     1.0  0.91256  0.34543  0.46445  1.0000
  C   C3345     1.0  0.96610  0.22141  0.47971  1.0000
  H   H3337     1.0  0.87758  0.39018  0.44332  1.0000
  C   C3346     1.0  0.88814  0.24509  0.46588  1.0000
  S   S1108     1.0  0.97082  0.47237  0.36130  1.0000
  C   C3347     1.0  0.95746  0.33897  0.48190  1.0000
  S   S1109     1.0  0.89796  0.17270  0.46469  1.0000
  C   C3348     1.0  0.88391  0.23581  0.46778  1.0000
  C   C3349     1.0  0.91268  0.45481  0.31105  1.0000
  H   H3338     1.0  0.94578  0.22369  0.40656  1.0000
  C   C3350     1.0  0.97469  0.47063  0.32087  1.0000
  C   C3351     1.0  0.82981  0.07083  0.47259  1.0000
  H   H3339     1.0  0.97712  0.22706  0.48517  1.0000
  H   H3340     1.0  0.96258  0.28862  0.47913  1.0000
  C   C3352     1.0  0.91979  0.33232  0.45573  1.0000
  S   S1110     1.0  0.98390  0.40986  0.45431  1.0000
  H   H3341     1.0  0.94703  0.42885  0.48007  1.0000
  C   C3353     1.0  0.91896  0.14858  0.46042  1.0000
  C   C3354     1.0  0.96303  0.44935  0.36170  1.0000
  C   C3355     1.0  0.92725  0.32552  0.39899  1.0000
  C   C3356     1.0  0.95478  0.36931  0.46801  1.0000
  H   H3342     1.0  0.92186  0.33777  0.44776  1.0000
  C   C3357     1.0  0.94219  0.14546  0.41788  1.0000
  C   C3358     1.0  0.93837  0.34800  0.48547  1.0000
  H   H3343     1.0  0.92618  0.16278  0.45377  1.0000
  H   H3344     1.0  0.92968  0.08129  0.45901  1.0000
  H   H3345     1.0  0.95771  0.35296  0.45046  1.0000
  H   H3346     1.0  0.95511  0.17936  0.43247  1.0000
  C   C3359     1.0  0.97799  0.25851  0.45496  1.0000
  H   H3347     1.0  0.96674  0.46868  0.32341  1.0000
  C   C3360     1.0  0.93859  0.38084  0.47718  1.0000
  H   H3348     1.0  0.94666  0.24072  0.45228  1.0000
  H   H3349     1.0  0.94208  0.47152  0.25847  1.0000
  H   H3350     1.0  0.95867  0.44163  0.40959  1.0000
  H   H3351     1.0  0.91235  0.15219  0.45617  1.0000
  C   C3361     1.0  0.95998  0.36193  0.46109  1.0000
  H   H3352     1.0  0.89449  0.33002  0.42163  1.0000
  C   C3362     1.0  0.92232  0.42549  0.33192  1.0000
  H   H3353     1.0  0.90302  0.31217  0.41573  1.0000
  H   H3354     1.0  0.91217  0.10041  0.48233  1.0000
  S   S1111     1.0  0.94245  0.32788  0.46521  1.0000
  C   C3363     1.0  0.97881  0.16854  0.42549  1.0000
  C   C3364     1.0  0.91381  0.42934  0.32639  1.0000
  C   C3365     1.0  0.98763  0.33294  0.41549  1.0000
  N   N279      1.0  0.94065  0.09202  0.45304  1.0000
  H   H3355     1.0  0.90716  0.38139  0.46750  1.0000
  C   C3366     1.0  0.93980  0.09826  0.46030  1.0000
  H   H3356     1.0  0.91563  0.30011  0.46500  1.0000
  C   C3367     1.0  0.94903  0.10084  0.46142  1.0000
  C   C3368     1.0  0.95917  0.09712  0.45493  1.0000
  C   C3369     1.0  0.93096  0.08882  0.45258  1.0000
  C   C3370     1.0  0.89957  0.38233  0.47356  1.0000
  C   C3371     1.0  0.97303  0.14342  0.47479  1.0000
  H   H3357     1.0  0.94732  0.24973  0.48186  1.0000
  H   H3358     1.0  0.90187  0.25441  0.48231  1.0000
  C   C3372     1.0  0.95563  0.33365  0.47476  1.0000
  C   C3373     1.0  0.88481  0.48594  0.30894  1.0000
  C   C3374     1.0  0.90131  0.45690  0.31427  1.0000
  Fe  Fe554     1.0  0.90078  0.47123  0.35855  1.0000
  H   H3359     1.0  0.93196  0.10121  0.46536  1.0000
  H   H3360     1.0  0.91954  0.14428  0.43228  1.0000
  H   H3361     1.0  0.94136  0.45501  0.34998  1.0000
  H   H3362     1.0  0.97507  0.24585  0.48560  1.0000
  H   H3363     1.0  0.95094  0.42540  0.41930  1.0000
  C   C3375     1.0  0.97968  0.36311  0.41490  1.0000
  C   C3376     1.0  0.92256  0.14608  0.42319  1.0000
  C   C3377     1.0  0.89145  0.41457  0.45428  1.0000
  H   H3364     1.0  0.95960  0.26661  0.41151  1.0000
  S   S1112     1.0  0.92030  0.46962  0.26044  1.0000
  C   C3378     1.0  0.87722  0.39895  0.43891  1.0000
  C   C3379     1.0  0.94911  0.16164  0.41520  1.0000
  C   C3380     1.0  0.88031  0.04624  0.47396  1.0000
  C   C3381     1.0  0.92005  0.42452  0.34330  1.0000
  H   H3365     1.0  0.83617  0.07341  0.46576  1.0000
  H   H3366     1.0  0.88273  0.25309  0.46617  1.0000
  H   H3367     1.0  0.95537  0.35901  0.41442  1.0000
  H   H3368     1.0  0.92081  0.30042  0.40896  1.0000
  N   N280      1.0  0.94377  0.37331  0.46969  1.0000
  S   S1113     1.0  0.92605  0.17855  0.46694  1.0000
  S   S1114     1.0  0.96671  0.32840  0.43996  1.0000
  H   H3369     1.0  0.94618  0.27900  0.47255  1.0000
  H   H3370     1.0  0.87291  0.48099  0.28079  1.0000
  H   H3371     1.0  0.94327  0.29764  0.47899  1.0000
  H   H3372     1.0  0.92484  0.13826  0.42033  1.0000
  C   C3382     1.0  0.92981  0.16226  0.42069  1.0000
  C   C3383     1.0  0.93493  0.27014  0.47158  1.0000
  S   S1115     1.0  0.97135  0.48250  0.38191  1.0000
  S   S1116     1.0  0.97234  0.30892  0.46161  1.0000
  Fe  Fe555     1.0  0.97271  0.14141  0.43040  1.0000
  H   H3373     1.0  0.96869  0.35874  0.45983  1.0000
  H   H3374     1.0  0.97744  0.25513  0.46368  1.0000
  H   H3375     1.0  0.95633  0.45363  0.33343  1.0000
  H   H3376     1.0  0.95159  0.25679  0.41360  1.0000
  S   S1117     1.0  0.90214  0.07081  0.47388  1.0000
  H   H3377     1.0  0.86254  0.12934  0.44980  1.0000
  C   C3384     1.0  0.95772  0.42226  0.42368  1.0000
  C   C3385     1.0  0.97778  0.27415  0.43948  1.0000
  C   C3386     1.0  0.92793  0.13379  0.47260  1.0000
  H   H3378     1.0  0.94159  0.18341  0.44058  1.0000
  H   H3379     1.0  0.90763  0.42685  0.35782  1.0000
  C   C3387     1.0  0.96579  0.44920  0.41772  1.0000
  C   C3388     1.0  0.95170  0.24886  0.43528  1.0000
  C   C3389     1.0  0.96396  0.35719  0.41448  1.0000
  H   H3380     1.0  0.96783  0.08797  0.44236  1.0000
  H   H3381     1.0  0.93142  0.19780  0.42935  1.0000
  C   C3390     1.0  0.98597  0.35644  0.43963  1.0000
  N   N281      1.0  0.97127  0.44868  0.35249  1.0000
  N   N282      1.0  0.96154  0.43131  0.42501  1.0000
  C   C3391     1.0  0.80067  0.00395  0.47033  1.0000
  C   C3392     1.0  0.93978  0.20947  0.45304  1.0000
  H   H3382     1.0  0.95956  0.37181  0.47209  1.0000
  H   H3383     1.0  0.92648  0.31768  0.44935  1.0000
  C   C3393     1.0  0.96583  0.42996  0.43390  1.0000
  C   C3394     1.0  0.95600  0.22406  0.47697  1.0000
  H   H3384     1.0  0.88330  0.40551  0.46959  1.0000
  H   H3385     1.0  0.96347  0.25598  0.48197  1.0000
  Fe  Fe556     1.0  0.92200  0.46909  0.34196  1.0000
  H   H3386     1.0  0.96650  0.34006  0.41463  1.0000
  S   S1118     1.0  0.97448  0.27859  0.45993  1.0000
  C   C3395     1.0  0.93845  0.16755  0.41807  1.0000
  C   C3396     1.0  0.93748  0.21126  0.41762  1.0000
  H   H3387     1.0  0.88797  0.06013  0.46859  1.0000
  S   S1119     1.0  0.98384  0.24694  0.42724  1.0000
  C   C3397     1.0  0.78958  0.04418  0.43982  1.0000
  C   C3398     1.0  0.94047  0.27381  0.47714  1.0000
  S   S1120     1.0  0.92301  0.25650  0.47040  1.0000
  C   C3399     1.0  0.90315  0.43233  0.33233  1.0000
  H   H3388     1.0  0.92680  0.44914  0.29898  1.0000
  H   H3389     1.0  0.95321  0.48448  0.30987  1.0000
  H   H3390     1.0  0.95155  0.20154  0.46311  1.0000
  H   H3391     1.0  0.91439  0.12346  0.46978  1.0000
  C   C3400     1.0  0.88475  0.40736  0.46064  1.0000
  N   N283      1.0  0.93176  0.15141  0.42037  1.0000
  C   C3401     1.0  0.91800  0.45119  0.30121  1.0000
  H   H3392     1.0  0.91738  0.45566  0.31627  1.0000
  C   C3402     1.0  0.93766  0.37008  0.46468  1.0000
  S   S1121     1.0  0.97175  0.22475  0.45145  1.0000
  C   C3403     1.0  0.91199  0.44999  0.29436  1.0000
  H   H3393     1.0  0.88772  0.21855  0.46788  1.0000
  Fe  Fe557     1.0  0.91678  0.45273  0.26598  1.0000
  S   S1122     1.0  0.92365  0.28445  0.44715  1.0000
  S   S1123     1.0  0.89971  0.19852  0.45981  1.0000
  Fe  Fe558     1.0  0.97217  0.29677  0.45228  1.0000
  C   C3404     1.0  0.93029  0.48738  0.35028  1.0000
  Fe  Fe559     1.0  0.90325  0.37596  0.44467  1.0000
  C   C3405     1.0  0.79628  0.00137  0.46299  1.0000
  H   H3394     1.0  0.97984  0.18083  0.43336  1.0000
  S   S1124     1.0  0.92187  0.26289  0.43949  1.0000
  C   C3406     1.0  0.97913  0.17642  0.47631  1.0000
  C   C3407     1.0  0.98054  0.47074  0.31000  1.0000
  H   H3395     1.0  0.84388  0.09375  0.46219  1.0000
  C   C3408     1.0  0.94471  0.20076  0.46052  1.0000
  H   H3396     1.0  0.87501  0.39663  0.46040  1.0000
  H   H3397     1.0  0.93924  0.37644  0.48576  1.0000
  H   H3398     1.0  0.88624  0.44349  0.34564  1.0000
  H   H3399     1.0  0.88164  0.39891  0.43021  1.0000
  N   N284      1.0  0.95508  0.25792  0.42822  1.0000
  Fe  Fe560     1.0  0.91886  0.26832  0.45519  1.0000
  Fe  Fe561     1.0  0.98150  0.31740  0.44566  1.0000
  S   S1125     1.0  0.97479  0.46760  0.30087  1.0000
  C   C3409     1.0  0.91461  0.33660  0.46510  1.0000
  H   H3400     1.0  0.85244  0.03761  0.47748  1.0000
  N   N285      1.0  0.94822  0.19648  0.42863  1.0000
  H   H3401     1.0  0.96464  0.19747  0.42654  1.0000
  C   C3410     1.0  0.89058  0.37943  0.47219  1.0000
  C   C3411     1.0  0.95359  0.26557  0.44360  1.0000
  H   H3402     1.0  0.92973  0.21518  0.41531  1.0000
  C   C3412     1.0  0.93851  0.20138  0.42556  1.0000
  C   C3413     1.0  0.95701  0.20122  0.42399  1.0000
  H   H3403     1.0  0.95331  0.21804  0.47459  1.0000
  S   S1126     1.0  0.89779  0.45544  0.35718  1.0000
  C   C3414     1.0  0.95633  0.21097  0.41589  1.0000
  H   H3404     1.0  0.90499  0.13386  0.47689  1.0000
  C   C3415     1.0  0.95383  0.35865  0.45588  1.0000
  C   C3416     1.0  0.90761  0.08718  0.47915  1.0000
  H   H3405     1.0  0.89660  0.43559  0.32793  1.0000
  C   C3417     1.0  0.95594  0.26626  0.43224  1.0000
  H   H3406     1.0  0.93012  0.29941  0.46169  1.0000
  S   S1127     1.0  0.89429  0.46031  0.32707  1.0000
  H   H3407     1.0  0.95867  0.27342  0.42667  1.0000
  S   S1128     1.0  0.94334  0.37573  0.43035  1.0000
  S   S1129     1.0  0.90502  0.47778  0.34029  1.0000
  S   S1130     1.0  0.90112  0.27533  0.45633  1.0000
  Fe  Fe562     1.0  0.88677  0.18937  0.46232  1.0000
  C   C3418     1.0  0.91051  0.07611  0.47858  1.0000
  H   H3408     1.0  0.96072  0.45370  0.25384  1.0000
  C   C3419     1.0  0.89098  0.22572  0.46667  1.0000
  S   S1131     1.0  0.90217  0.45720  0.25839  1.0000
  S   S1132     1.0  0.97791  0.15316  0.41460  1.0000
  H   H3409     1.0  0.92834  0.34366  0.47745  1.0000
  C   C3420     1.0  0.89532  0.45576  0.30740  1.0000
  H   H3410     1.0  0.82397  0.06333  0.46319  1.0000
  Fe  Fe563     1.0  0.91422  0.45286  0.24313  1.0000
  N   N286      1.0  0.98104  0.34418  0.41507  1.0000
  H   H3411     1.0  0.88179  0.47419  0.29665  1.0000
  H   H3412     1.0  0.96641  0.09902  0.45577  1.0000
  H   H3413     1.0  0.97831  0.34247  0.44596  1.0000
  S   S1133     1.0  0.98682  0.19879  0.41494  1.0000
  C   C3421     1.0  0.87817  0.48288  0.29441  1.0000
  H   H3414     1.0  0.92289  0.29724  0.47582  1.0000
  H   H3415     1.0  0.90265  0.25138  0.46114  1.0000
  C   C3422     1.0  0.92227  0.30208  0.46737  1.0000
  C   C3423     1.0  0.98083  0.17867  0.42560  1.0000
  C   C3424     1.0  0.97027  0.44783  0.42671  1.0000
  H   H3416     1.0  0.87058  0.03415  0.47869  1.0000
  H   H3417     1.0  0.98807  0.41814  0.41353  1.0000
  C   C3425     1.0  0.98573  0.18288  0.40566  1.0000
  C   C3426     1.0  0.79559  0.01344  0.47444  1.0000
  H   H3418     1.0  0.92090  0.23330  0.44990  1.0000
  Fe  Fe564     1.0  0.98119  0.22957  0.43423  1.0000
  C   C3427     1.0  0.88057  0.05734  0.46975  1.0000
  H   H3419     1.0  0.96554  0.33748  0.48330  1.0000
  H   H3420     1.0  0.85017  0.99861  0.44854  1.0000
  H   H3421     1.0  0.92984  0.38430  0.47712  1.0000
  H   H3422     1.0  0.98028  0.42756  0.39712  1.0000
  H   H3423     1.0  0.95681  0.41122  0.47444  1.0000
  S   S1134     1.0  0.97786  0.44966  0.38449  1.0000
  C   C3428     1.0  0.98004  0.13344  0.47296  1.0000
  C   C3429     1.0  0.95853  0.29534  0.48333  1.0000
  C   C3430     1.0  0.94917  0.23434  0.47770  1.0000
  C   C3431     1.0  0.97894  0.47331  0.32835  1.0000
  H   H3424     1.0  0.90829  0.33266  0.48268  1.0000
  H   H3425     1.0  0.79169  0.05213  0.45135  1.0000
  H   H3426     1.0  0.90108  0.48846  0.28588  1.0000
  H   H3427     1.0  0.94106  0.15492  0.46376  1.0000
  H   H3428     1.0  0.98342  0.44607  0.36170  1.0000
  S   S1135     1.0  0.93639  0.47665  0.33329  1.0000
  H   H3429     1.0  0.92240  0.22552  0.46358  1.0000
  S   S1136     1.0  0.98325  0.38416  0.45599  1.0000
  H   H3430     1.0  0.98735  0.43887  0.35069  1.0000
  C   C3432     1.0  0.96129  0.18666  0.48350  1.0000
  H   H3431     1.0  0.97837  0.36250  0.43979  1.0000
  C   C3433     1.0  0.93876  0.48331  0.34210  1.0000
  C   C3434     1.0  0.95509  0.42493  0.48161  1.0000
  H   H3432     1.0  0.84501  0.05064  0.48066  1.0000
  H   H3433     1.0  0.87518  0.23646  0.46987  1.0000
  H   H3434     1.0  0.97414  0.45405  0.42712  1.0000
  H   H3435     1.0  0.90767  0.21716  0.46284  1.0000
  C   C3435     1.0  0.98414  0.43193  0.40037  1.0000
  C   C3436     1.0  0.89865  0.38647  0.48287  1.0000
  H   H3436     1.0  0.98342  0.36951  0.41512  1.0000
  H   H3437     1.0  0.88746  0.04036  0.47623  1.0000
  C   C3437     1.0  0.81471  0.06158  0.47997  1.0000
  S   S1137     1.0  0.80669  0.05349  0.47854  1.0000
  H   H3438     1.0  0.93869  0.16170  0.48184  1.0000
  C   C3438     1.0  0.98463  0.44291  0.39532  1.0000
  Fe  Fe565     1.0  0.98507  0.47971  0.35147  1.0000
  H   H3439     1.0  0.98490  0.43632  0.25514  1.0000
  H   H3440     1.0  0.98457  0.17218  0.47003  1.0000
  C   C3439     1.0  0.92027  0.06957  0.48128  1.0000
  H   H3441     1.0  0.92257  0.06098  0.48084  1.0000
  H   H3442     1.0  0.90554  0.38876  0.48395  1.0000
  H   H3443     1.0  0.88666  0.10884  0.48263  1.0000
  H   H3444     1.0  0.96925  0.15650  0.48336  1.0000
  C   C3440     1.0  0.86712  0.21059  0.48477  1.0000
  C   C3441     1.0  0.82889  0.07260  0.48301  1.0000
  C   C3442     1.0  0.87431  0.20100  0.48213  1.0000
  C   C3443     1.0  0.92719  0.07423  0.48430  1.0000
  H   H3445     1.0  0.88994  0.19008  0.48315  1.0000
  H   H3446     1.0  0.95287  0.19036  0.48304  1.0000
  S   S1138     1.0  0.83916  0.07717  0.48551  1.0000
  C   C3444     1.0  0.88441  0.19758  0.48505  1.0000
  C   C3445     1.0  0.92417  0.08534  0.48489  1.0000
  N   N287      1.0  0.98286  0.17732  0.48481  1.0000
  H   H3447     1.0  0.93478  0.06921  0.48628  1.0000
  S   S1139     1.0  0.98790  0.10300  0.45280  1.0000
  C   C3446     1.0  0.97525  0.41457  0.48647  1.0000
  C   C3447     1.0  0.95952  0.27811  0.51442  1.0000
  Fe  Fe566     1.0  0.96693  0.41769  0.52510  1.0000
  S   S1140     1.0  0.96662  0.41055  0.54293  1.0000
  S   S1141     1.0  0.95149  0.42515  0.51897  1.0000
  H   H3448     1.0  0.97917  0.18411  0.49898  1.0000
  H   H3449     1.0  0.96843  0.25667  0.54809  1.0000
  Fe  Fe567     1.0  0.83730  0.05121  0.52311  1.0000
  H   H3450     1.0  0.89104  0.36436  0.50269  1.0000
  C   C3448     1.0  0.98330  0.35456  0.53111  1.0000
  Fe  Fe568     1.0  0.92389  0.39047  0.50712  1.0000
  S   S1142     1.0  0.90857  0.40288  0.51161  1.0000
  S   S1143     1.0  0.93925  0.39478  0.49610  1.0000
  Fe  Fe569     1.0  0.91499  0.37096  0.52227  1.0000
  S   S1144     1.0  0.89893  0.38171  0.52816  1.0000
  S   S1145     1.0  0.91846  0.35284  0.53002  1.0000
  Fe  Fe570     1.0  0.90065  0.39016  0.51019  1.0000
  H   H3451     1.0  0.94747  0.32597  0.50060  1.0000
  Fe  Fe571     1.0  0.90848  0.39331  0.52906  1.0000
  S   S1146     1.0  0.90778  0.39884  0.54449  1.0000
  S   S1147     1.0  0.91606  0.37854  0.50430  1.0000
  S   S1148     1.0  0.92446  0.38175  0.52451  1.0000
  C   C3449     1.0  0.85259  0.00481  0.50599  1.0000
  H   H3452     1.0  0.94464  0.48836  0.60194  1.0000
  H   H3453     1.0  0.84775  0.98921  0.51134  1.0000
  Fe  Fe572     1.0  0.89094  0.48698  0.65691  1.0000
  H   H3454     1.0  0.83330  0.01245  0.49739  1.0000
  Fe  Fe573     1.0  0.97940  0.12690  0.53120  1.0000
  S   S1149     1.0  0.97656  0.13893  0.51562  1.0000
  S   S1150     1.0  0.96926  0.11460  0.54147  1.0000
  H   H3455     1.0  0.79641  0.06613  0.51415  1.0000
  C   C3450     1.0  0.86578  0.10265  0.49110  1.0000
  H   H3456     1.0  0.90131  0.47932  0.61236  1.0000
  S   S1151     1.0  0.97293  0.16831  0.52024  1.0000
  C   C3451     1.0  0.87862  0.42828  0.57587  1.0000
  H   H3457     1.0  0.87940  0.48534  0.70980  1.0000
  Fe  Fe574     1.0  0.92016  0.10887  0.52102  1.0000
  S   S1152     1.0  0.92894  0.11509  0.50379  1.0000
  S   S1153     1.0  0.92649  0.10428  0.53649  1.0000
  Fe  Fe575     1.0  0.89998  0.10824  0.51400  1.0000
  S   S1154     1.0  0.90696  0.11470  0.49621  1.0000
  S   S1155     1.0  0.88290  0.10517  0.51950  1.0000
  Fe  Fe576     1.0  0.92247  0.10293  0.49944  1.0000
  H   H3458     1.0  0.96276  0.43618  0.59865  1.0000
  Fe  Fe577     1.0  0.91268  0.12626  0.50218  1.0000
  S   S1156     1.0  0.91081  0.14399  0.49324  1.0000
  S   S1157     1.0  0.91508  0.09563  0.51685  1.0000
  S   S1158     1.0  0.90427  0.12097  0.51979  1.0000
  C   C3452     1.0  0.81645  0.00570  0.49600  1.0000
  S   S1159     1.0  0.97954  0.24964  0.50659  1.0000
  C   C3453     1.0  0.89223  0.24840  0.49827  1.0000
  H   H3459     1.0  0.98467  0.14839  0.49274  1.0000
  C   C3454     1.0  0.79898  0.05859  0.51988  1.0000
  H   H3460     1.0  0.98521  0.41025  0.57508  1.0000
  S   S1160     1.0  0.98470  0.32029  0.52183  1.0000
  C   C3455     1.0  0.98001  0.43689  0.55944  1.0000
  Fe  Fe578     1.0  0.97043  0.23649  0.51603  1.0000
  S   S1161     1.0  0.95228  0.24049  0.51845  1.0000
  H   H3461     1.0  0.97270  0.29529  0.48868  1.0000
  S   S1162     1.0  0.97834  0.23139  0.53038  1.0000
  Fe  Fe579     1.0  0.97916  0.42016  0.54094  1.0000
  S   S1163     1.0  0.96559  0.34340  0.52133  1.0000
  C   C3456     1.0  0.96321  0.26512  0.54737  1.0000
  H   H3462     1.0  0.89534  0.20132  0.49230  1.0000
  S   S1164     1.0  0.96218  0.32260  0.51385  1.0000
  H   H3463     1.0  0.88920  0.41884  0.58695  1.0000
  Fe  Fe580     1.0  0.96291  0.34023  0.50628  1.0000
  S   S1165     1.0  0.95080  0.35208  0.49691  1.0000
  Fe  Fe581     1.0  0.96664  0.32529  0.52814  1.0000
  S   S1166     1.0  0.95882  0.31807  0.54547  1.0000
  C   C3457     1.0  0.93701  0.48630  0.60250  1.0000
  H   H3464     1.0  0.81296  0.00587  0.54080  1.0000
  Fe  Fe582     1.0  0.91016  0.19143  0.51809  1.0000
  S   S1167     1.0  0.91332  0.19969  0.50017  1.0000
  S   S1168     1.0  0.91231  0.17312  0.52421  1.0000
  Fe  Fe583     1.0  0.90614  0.21285  0.52558  1.0000
  S   S1169     1.0  0.90915  0.22279  0.50835  1.0000
  S   S1170     1.0  0.90105  0.22107  0.53987  1.0000
  Fe  Fe584     1.0  0.89906  0.21299  0.50544  1.0000
  C   C3458     1.0  0.94244  0.30877  0.48901  1.0000
  Fe  Fe585     1.0  0.92294  0.20852  0.50506  1.0000
  S   S1171     1.0  0.94009  0.20923  0.49664  1.0000
  S   S1172     1.0  0.89504  0.20392  0.52300  1.0000
  S   S1173     1.0  0.92087  0.19939  0.52265  1.0000
  Fe  Fe586     1.0  0.91707  0.30223  0.51394  1.0000
  S   S1174     1.0  0.93429  0.29478  0.51545  1.0000
  S   S1175     1.0  0.91256  0.31999  0.50533  1.0000
  Fe  Fe587     1.0  0.91022  0.28035  0.52359  1.0000
  S   S1176     1.0  0.92686  0.27097  0.52587  1.0000
  S   S1177     1.0  0.89571  0.27269  0.52863  1.0000
  Fe  Fe588     1.0  0.92706  0.28545  0.53201  1.0000
  S   S1178     1.0  0.93408  0.28217  0.54681  1.0000
  Fe  Fe589     1.0  0.93254  0.28115  0.50925  1.0000
  N   N288      1.0  0.87081  0.43758  0.57353  1.0000
  S   S1179     1.0  0.90983  0.29412  0.53117  1.0000
  S   S1180     1.0  0.91588  0.28928  0.50625  1.0000
  H   H3465     1.0  0.97983  0.43492  0.48885  1.0000
  S   S1181     1.0  0.85417  0.04078  0.52308  1.0000
  Fe  Fe590     1.0  0.89490  0.45445  0.56408  1.0000
  S   S1182     1.0  0.90515  0.46716  0.55758  1.0000
  S   S1183     1.0  0.89048  0.44781  0.55183  1.0000
  Fe  Fe591     1.0  0.89167  0.45608  0.58784  1.0000
  S   S1184     1.0  0.90190  0.46852  0.58333  1.0000
  S   S1185     1.0  0.88302  0.45186  0.60557  1.0000
  Fe  Fe592     1.0  0.89313  0.47654  0.56967  1.0000
  H   H3466     1.0  0.95879  0.28127  0.50594  1.0000
  Fe  Fe593     1.0  0.91295  0.45802  0.57183  1.0000
  S   S1186     1.0  0.93104  0.45499  0.56901  1.0000
  S   S1187     1.0  0.88200  0.46479  0.57490  1.0000
  S   S1188     1.0  0.90361  0.44460  0.57757  1.0000
  C   C3459     1.0  0.97729  0.44749  0.66308  1.0000
  S   S1189     1.0  0.94588  0.45789  0.61019  1.0000
  H   H3467     1.0  0.90361  0.48287  0.59766  1.0000
  H   H3468     1.0  0.87621  0.07130  0.49364  1.0000
  S   S1190     1.0  0.92121  0.47456  0.64737  1.0000
  C   C3460     1.0  0.89535  0.10153  0.54520  1.0000
  S   S1191     1.0  0.83376  0.98928  0.53329  1.0000
  S   S1192     1.0  0.89784  0.46886  0.66207  1.0000
  C   C3461     1.0  0.97542  0.46495  0.64471  1.0000
  Fe  Fe594     1.0  0.91144  0.47447  0.66459  1.0000
  Fe  Fe595     1.0  0.90684  0.47061  0.64435  1.0000
  S   S1193     1.0  0.91174  0.45729  0.63476  1.0000
  C   C3462     1.0  0.96902  0.41874  0.58173  1.0000
  H   H3469     1.0  0.96868  0.43393  0.50091  1.0000
  C   C3463     1.0  0.82550  0.02791  0.50200  1.0000
  C   C3464     1.0  0.90992  0.07280  0.54239  1.0000
  H   H3470     1.0  0.89133  0.10193  0.55389  1.0000
  H   H3471     1.0  0.93952  0.31644  0.50979  1.0000
  N   N289      1.0  0.92444  0.22616  0.54676  1.0000
  C   C3465     1.0  0.98526  0.41987  0.58620  1.0000
  C   C3466     1.0  0.88011  0.08673  0.49242  1.0000
  N   N290      1.0  0.96186  0.26968  0.53601  1.0000
  C   C3467     1.0  0.96156  0.28467  0.52016  1.0000
  C   C3468     1.0  0.84694  0.99695  0.51339  1.0000
  C   C3469     1.0  0.84055  0.99905  0.52356  1.0000
  C   C3470     1.0  0.83965  0.00906  0.52619  1.0000
  C   C3471     1.0  0.84512  0.01696  0.51874  1.0000
  S   S1194     1.0  0.96899  0.47279  0.58946  1.0000
  H   H3472     1.0  0.83471  0.01076  0.53402  1.0000
  H   H3473     1.0  0.84421  0.02470  0.52084  1.0000
  H   H3474     1.0  0.85009  0.10002  0.49144  1.0000
  C   C3472     1.0  0.93123  0.26408  0.49457  1.0000
  C   C3473     1.0  0.82051  0.06936  0.49176  1.0000
  S   S1195     1.0  0.94626  0.48604  0.68696  1.0000
  C   C3474     1.0  0.96522  0.18765  0.49203  1.0000
  H   H3475     1.0  0.88303  0.26134  0.51931  1.0000
  C   C3475     1.0  0.89735  0.46525  0.71298  1.0000
  H   H3476     1.0  0.94289  0.46035  0.73432  1.0000
  H   H3477     1.0  0.89396  0.34095  0.54427  1.0000
  C   C3476     1.0  0.82559  0.01817  0.49928  1.0000
  S   S1196     1.0  0.88668  0.39368  0.50201  1.0000
  S   S1197     1.0  0.89878  0.48833  0.63888  1.0000
  C   C3477     1.0  0.93485  0.45621  0.58044  1.0000
  C   C3478     1.0  0.94498  0.45856  0.57905  1.0000
  C   C3479     1.0  0.94842  0.45900  0.58819  1.0000
  C   C3480     1.0  0.94169  0.45728  0.59871  1.0000
  C   C3481     1.0  0.93151  0.45507  0.60009  1.0000
  C   C3482     1.0  0.92807  0.45450  0.59098  1.0000
  H   H3478     1.0  0.95016  0.46005  0.57090  1.0000
  H   H3479     1.0  0.95628  0.46061  0.58707  1.0000
  H   H3480     1.0  0.92631  0.45384  0.60823  1.0000
  H   H3481     1.0  0.92028  0.45253  0.59216  1.0000
  C   C3483     1.0  0.89065  0.45325  0.61410  1.0000
  C   C3484     1.0  0.88628  0.46071  0.62109  1.0000
  C   C3485     1.0  0.89258  0.46197  0.62766  1.0000
  C   C3486     1.0  0.90315  0.45557  0.62741  1.0000
  C   C3487     1.0  0.90729  0.44782  0.62076  1.0000
  C   C3488     1.0  0.90118  0.44685  0.61393  1.0000
  H   H3482     1.0  0.87809  0.46563  0.62129  1.0000
  H   H3483     1.0  0.88927  0.46788  0.63288  1.0000
  H   H3484     1.0  0.91533  0.44263  0.62079  1.0000
  H   H3485     1.0  0.90455  0.44101  0.60865  1.0000
  H   H3486     1.0  0.79893  0.02162  0.50065  1.0000
  H   H3487     1.0  0.79841  0.03899  0.50543  1.0000
  H   H3488     1.0  0.80615  0.01107  0.55310  1.0000
  C   C3489     1.0  0.87974  0.38520  0.48900  1.0000
  H   H3489     1.0  0.86063  0.45208  0.57865  1.0000
  H   H3490     1.0  0.94852  0.37957  0.52752  1.0000
  H   H3491     1.0  0.89254  0.35931  0.53172  1.0000
  H   H3492     1.0  0.95510  0.26498  0.55304  1.0000
  C   C3490     1.0  0.94881  0.34610  0.48730  1.0000
  H   H3493     1.0  0.94740  0.42231  0.59061  1.0000
  S   S1198     1.0  0.88490  0.22233  0.49779  1.0000
  C   C3491     1.0  0.96608  0.24752  0.48682  1.0000
  H   H3494     1.0  0.80778  0.03222  0.54131  1.0000
  C   C3492     1.0  0.98195  0.10738  0.51171  1.0000
  H   H3495     1.0  0.94005  0.48692  0.58512  1.0000
  Fe  Fe596     1.0  0.98447  0.46026  0.59113  1.0000
  S   S1199     1.0  0.97692  0.44982  0.60681  1.0000
  S   S1200     1.0  0.97981  0.40371  0.51965  1.0000
  S   S1201     1.0  0.87501  0.05943  0.51823  1.0000
  C   C3493     1.0  0.93044  0.24311  0.54216  1.0000
  H   H3496     1.0  0.97330  0.45397  0.57729  1.0000
  S   S1202     1.0  0.94546  0.27521  0.49562  1.0000
  C   C3494     1.0  0.89989  0.23539  0.53627  1.0000
  C   C3495     1.0  0.90767  0.24031  0.52794  1.0000
  C   C3496     1.0  0.90684  0.25175  0.52586  1.0000
  C   C3497     1.0  0.89806  0.25825  0.53190  1.0000
  C   C3498     1.0  0.89027  0.25329  0.54008  1.0000
  C   C3499     1.0  0.89130  0.24189  0.54240  1.0000
  H   H3497     1.0  0.91444  0.23529  0.52328  1.0000
  H   H3498     1.0  0.91281  0.25557  0.51941  1.0000
  H   H3499     1.0  0.88342  0.25829  0.54468  1.0000
  H   H3500     1.0  0.88531  0.23812  0.54888  1.0000
  C   C3500     1.0  0.95143  0.30847  0.54600  1.0000
  C   C3501     1.0  0.94531  0.31023  0.53815  1.0000
  C   C3502     1.0  0.93969  0.30233  0.53854  1.0000
  C   C3503     1.0  0.94022  0.29263  0.54674  1.0000
  C   C3504     1.0  0.94606  0.29103  0.55479  1.0000
  C   C3505     1.0  0.95161  0.29896  0.55445  1.0000
  H   H3501     1.0  0.94468  0.31780  0.53193  1.0000
  H   H3502     1.0  0.93488  0.30381  0.53256  1.0000
  H   H3503     1.0  0.94639  0.28361  0.56123  1.0000
  H   H3504     1.0  0.95623  0.29763  0.56062  1.0000
  C   C3506     1.0  0.94849  0.23154  0.51306  1.0000
  C   C3507     1.0  0.95531  0.22129  0.51212  1.0000
  C   C3508     1.0  0.95284  0.21449  0.50692  1.0000
  C   C3509     1.0  0.94330  0.21779  0.50299  1.0000
  C   C3510     1.0  0.93616  0.22783  0.50442  1.0000
  C   C3511     1.0  0.93875  0.23470  0.50948  1.0000
  H   H3505     1.0  0.96237  0.21846  0.51563  1.0000
  H   H3506     1.0  0.95827  0.20664  0.50613  1.0000
  H   H3507     1.0  0.92883  0.23050  0.50128  1.0000
  H   H3508     1.0  0.93333  0.24252  0.51043  1.0000
  C   C3512     1.0  0.88282  0.42606  0.58526  1.0000
  H   H3509     1.0  0.89228  0.24087  0.49616  1.0000
  C   C3513     1.0  0.88630  0.16289  0.51613  1.0000
  H   H3510     1.0  0.95018  0.14635  0.49272  1.0000
  H   H3511     1.0  0.93166  0.35343  0.48972  1.0000
  C   C3514     1.0  0.93523  0.17231  0.49312  1.0000
  H   H3512     1.0  0.89460  0.36924  0.51245  1.0000
  C   C3515     1.0  0.81565  0.03535  0.50441  1.0000
  C   C3516     1.0  0.88710  0.25979  0.51118  1.0000
  C   C3517     1.0  0.90736  0.47782  0.60468  1.0000
  H   H3513     1.0  0.91115  0.46636  0.71809  1.0000
  H   H3514     1.0  0.89081  0.09975  0.49485  1.0000
  C   C3518     1.0  0.90031  0.46601  0.69336  1.0000
  C   C3519     1.0  0.97059  0.46675  0.65546  1.0000
  H   H3515     1.0  0.90239  0.27149  0.48709  1.0000
  H   H3516     1.0  0.86488  0.22469  0.49156  1.0000
  S   S1203     1.0  0.83711  0.04963  0.50646  1.0000
  C   C3520     1.0  0.89265  0.26753  0.50355  1.0000
  H   H3517     1.0  0.92974  0.26184  0.50348  1.0000
  S   S1204     1.0  0.93268  0.09134  0.48857  1.0000
  S   S1205     1.0  0.97895  0.37994  0.54534  1.0000
  S   S1206     1.0  0.98669  0.30512  0.49780  1.0000
  H   H3518     1.0  0.88786  0.23549  0.52068  1.0000
  H   H3519     1.0  0.88123  0.09147  0.54300  1.0000
  C   C3521     1.0  0.93217  0.23219  0.54137  1.0000
  C   C3522     1.0  0.88078  0.09259  0.51869  1.0000
  C   C3523     1.0  0.88953  0.08390  0.51630  1.0000
  C   C3524     1.0  0.88761  0.07377  0.51629  1.0000
  C   C3525     1.0  0.87694  0.07234  0.51830  1.0000
  C   C3526     1.0  0.86818  0.08113  0.52038  1.0000
  C   C3527     1.0  0.87010  0.09118  0.52068  1.0000
  H   H3520     1.0  0.89779  0.08489  0.51466  1.0000
  H   H3521     1.0  0.89443  0.06702  0.51458  1.0000
  H   H3522     1.0  0.92278  0.48178  0.58662  1.0000
  H   H3523     1.0  0.97804  0.44069  0.67013  1.0000
  C   C3528     1.0  0.88174  0.18166  0.51919  1.0000
  C   C3529     1.0  0.97383  0.37825  0.51094  1.0000
  C   C3530     1.0  0.93442  0.48553  0.59305  1.0000
  H   H3524     1.0  0.85677  0.07987  0.49304  1.0000
  H   H3525     1.0  0.96228  0.24741  0.49565  1.0000
  H   H3526     1.0  0.88046  0.37019  0.51320  1.0000
  C   C3531     1.0  0.94675  0.45312  0.70635  1.0000
  N   N291      1.0  0.96283  0.42596  0.58821  1.0000
  C   C3532     1.0  0.91250  0.15216  0.50113  1.0000
  C   C3533     1.0  0.91001  0.16366  0.49776  1.0000
  C   C3534     1.0  0.91006  0.17023  0.50472  1.0000
  C   C3535     1.0  0.91280  0.16528  0.51495  1.0000
  C   C3536     1.0  0.91561  0.15379  0.51813  1.0000
  C   C3537     1.0  0.91546  0.14724  0.51124  1.0000
  C   C3538     1.0  0.79599  0.04094  0.53129  1.0000
  H   H3527     1.0  0.90776  0.17908  0.50223  1.0000
  H   H3528     1.0  0.91775  0.14992  0.52603  1.0000
  H   H3529     1.0  0.91748  0.13837  0.51386  1.0000
  H   H3530     1.0  0.87200  0.38641  0.49485  1.0000
  C   C3539     1.0  0.97947  0.19590  0.52344  1.0000
  C   C3540     1.0  0.97419  0.18843  0.52217  1.0000
  C   C3541     1.0  0.97985  0.17765  0.52143  1.0000
  C   C3542     1.0  0.89770  0.25603  0.49039  1.0000
  C   C3543     1.0  0.88773  0.34557  0.51573  1.0000
  H   H3531     1.0  0.97494  0.20403  0.52449  1.0000
  H   H3532     1.0  0.96563  0.19094  0.52200  1.0000
  H   H3533     1.0  0.96419  0.28549  0.53547  1.0000
  C   C3544     1.0  0.91286  0.24164  0.55408  1.0000
  C   C3545     1.0  0.95734  0.11248  0.53932  1.0000
  C   C3546     1.0  0.95198  0.10500  0.54760  1.0000
  C   C3547     1.0  0.94260  0.10269  0.54651  1.0000
  C   C3548     1.0  0.93845  0.10769  0.53704  1.0000
  C   C3549     1.0  0.94378  0.11517  0.52861  1.0000
  C   C3550     1.0  0.95322  0.11763  0.52978  1.0000
  H   H3534     1.0  0.95508  0.10100  0.55498  1.0000
  H   H3535     1.0  0.93854  0.09695  0.55307  1.0000
  H   H3536     1.0  0.94058  0.11914  0.52129  1.0000
  H   H3537     1.0  0.95726  0.12347  0.52335  1.0000
  H   H3538     1.0  0.97484  0.47170  0.63761  1.0000
  C   C3551     1.0  0.97835  0.44875  0.57177  1.0000
  H   H3539     1.0  0.79963  0.01458  0.54161  1.0000
  H   H3540     1.0  0.94678  0.37038  0.51374  1.0000
  H   H3541     1.0  0.78936  0.98980  0.49097  1.0000
  C   C3552     1.0  0.95540  0.37757  0.52091  1.0000
  H   H3542     1.0  0.79112  0.03478  0.53435  1.0000
  C   C3553     1.0  0.88370  0.10470  0.49130  1.0000
  C   C3554     1.0  0.97157  0.45798  0.66466  1.0000
  C   C3555     1.0  0.80492  0.00791  0.54651  1.0000
  C   C3556     1.0  0.90336  0.41263  0.54604  1.0000
  C   C3557     1.0  0.90573  0.41543  0.55471  1.0000
  C   C3558     1.0  0.90204  0.42623  0.55647  1.0000
  C   C3559     1.0  0.89571  0.43426  0.54971  1.0000
  C   C3560     1.0  0.89334  0.43147  0.54104  1.0000
  C   C3561     1.0  0.89724  0.42073  0.53914  1.0000
  H   H3543     1.0  0.91048  0.40920  0.56008  1.0000
  H   H3544     1.0  0.90399  0.42829  0.56311  1.0000
  H   H3545     1.0  0.88850  0.43765  0.53573  1.0000
  H   H3546     1.0  0.89534  0.41867  0.53246  1.0000
  C   C3562     1.0  0.81170  0.04751  0.53128  1.0000
  H   H3547     1.0  0.94968  0.43480  0.58060  1.0000
  H   H3548     1.0  0.95643  0.26240  0.51532  1.0000
  H   H3549     1.0  0.96531  0.41576  0.57696  1.0000
  H   H3550     1.0  0.87946  0.11105  0.49624  1.0000
  C   C3563     1.0  0.98031  0.41558  0.58063  1.0000
  C   C3564     1.0  0.96326  0.37026  0.50453  1.0000
  Fe  Fe597     1.0  0.97373  0.48136  0.59962  1.0000
  N   N292      1.0  0.96984  0.42429  0.48951  1.0000
  H   H3551     1.0  0.88775  0.32821  0.51990  1.0000
  C   C3565     1.0  0.91802  0.34365  0.52250  1.0000
  C   C3566     1.0  0.91571  0.34745  0.51200  1.0000
  C   C3567     1.0  0.91422  0.34011  0.50666  1.0000
  C   C3568     1.0  0.91504  0.32895  0.51182  1.0000
  C   C3569     1.0  0.91772  0.32507  0.52215  1.0000
  C   C3570     1.0  0.91923  0.33241  0.52746  1.0000
  H   H3552     1.0  0.91490  0.35605  0.50805  1.0000
  H   H3553     1.0  0.91234  0.34311  0.49858  1.0000
  H   H3554     1.0  0.91842  0.31645  0.52615  1.0000
  H   H3555     1.0  0.92107  0.32939  0.53556  1.0000
  H   H3556     1.0  0.93502  0.32581  0.49790  1.0000
  C   C3571     1.0  0.94803  0.41666  0.51272  1.0000
  C   C3572     1.0  0.93736  0.41863  0.51146  1.0000
  C   C3573     1.0  0.93460  0.41194  0.50631  1.0000
  C   C3574     1.0  0.94257  0.40349  0.50214  1.0000
  C   C3575     1.0  0.95324  0.40174  0.50313  1.0000
  C   C3576     1.0  0.95593  0.40819  0.50857  1.0000
  H   H3557     1.0  0.93121  0.42526  0.51453  1.0000
  H   H3558     1.0  0.92635  0.41347  0.50538  1.0000
  H   H3559     1.0  0.95943  0.39539  0.49969  1.0000
  H   H3560     1.0  0.96419  0.40683  0.50913  1.0000
  C   C3577     1.0  0.92989  0.48403  0.61273  1.0000
  H   H3561     1.0  0.86289  0.11147  0.49032  1.0000
  H   H3562     1.0  0.89000  0.10717  0.53970  1.0000
  H   H3563     1.0  0.91430  0.08673  0.54450  1.0000
  H   H3564     1.0  0.92009  0.21049  0.55091  1.0000
  C   C3578     1.0  0.95535  0.45523  0.70922  1.0000
  H   H3565     1.0  0.88199  0.15335  0.49616  1.0000
  N   N293      1.0  0.97288  0.37294  0.50362  1.0000
  C   C3579     1.0  0.86647  0.43990  0.56365  1.0000
  H   H3566     1.0  0.92106  0.25410  0.49354  1.0000
  S   S1207     1.0  0.98343  0.13900  0.53810  1.0000
  C   C3580     1.0  0.87027  0.21706  0.48986  1.0000
  C   C3581     1.0  0.81330  0.06405  0.49018  1.0000
  C   C3582     1.0  0.88169  0.24200  0.51677  1.0000
  H   H3567     1.0  0.89057  0.14681  0.51232  1.0000
  C   C3583     1.0  0.95956  0.26329  0.53053  1.0000
  H   H3568     1.0  0.98383  0.19067  0.54817  1.0000
  Fe  Fe598     1.0  0.98216  0.15057  0.52175  1.0000
  H   H3569     1.0  0.87762  0.23807  0.51291  1.0000
  H   H3570     1.0  0.87541  0.24560  0.52335  1.0000
  C   C3584     1.0  0.98802  0.29171  0.50622  1.0000
  H   H3571     1.0  0.95986  0.19198  0.49826  1.0000
  C   C3585     1.0  0.92068  0.24787  0.54852  1.0000
  C   C3586     1.0  0.89353  0.46502  0.70399  1.0000
  H   H3572     1.0  0.88205  0.43181  0.59965  1.0000
  H   H3573     1.0  0.93292  0.18075  0.50598  1.0000
  C   C3587     1.0  0.87629  0.17004  0.49840  1.0000
  H   H3574     1.0  0.96308  0.45511  0.70329  1.0000
  C   C3588     1.0  0.85856  0.09626  0.49161  1.0000
  H   H3575     1.0  0.98423  0.09650  0.53197  1.0000
  H   H3576     1.0  0.92568  0.21545  0.53659  1.0000
  H   H3577     1.0  0.93191  0.48431  0.62020  1.0000
  H   H3578     1.0  0.85811  0.43842  0.56598  1.0000
  N   N294      1.0  0.88150  0.17377  0.51311  1.0000
  S   S1208     1.0  0.96524  0.45953  0.67823  1.0000
  H   H3579     1.0  0.95186  0.15993  0.52197  1.0000
  S   S1209     1.0  0.96912  0.47719  0.69576  1.0000
  C   C3589     1.0  0.90802  0.46642  0.71126  1.0000
  N   N295      1.0  0.93729  0.43917  0.54547  1.0000
  C   C3590     1.0  0.92916  0.44839  0.54407  1.0000
  C   C3591     1.0  0.93680  0.42969  0.54313  1.0000
  C   C3592     1.0  0.92054  0.44841  0.53968  1.0000
  C   C3593     1.0  0.92831  0.42942  0.53874  1.0000
  C   C3594     1.0  0.92026  0.43891  0.53682  1.0000
  C   C3595     1.0  0.94651  0.43929  0.54968  1.0000
  H   H3580     1.0  0.92933  0.45579  0.54630  1.0000
  H   H3581     1.0  0.94319  0.42236  0.54430  1.0000
  H   H3582     1.0  0.91411  0.45571  0.53850  1.0000
  H   H3583     1.0  0.92813  0.42196  0.53661  1.0000
  H   H3584     1.0  0.91376  0.43888  0.53321  1.0000
  H   H3585     1.0  0.95431  0.43537  0.54474  1.0000
  H   H3586     1.0  0.94710  0.44780  0.54922  1.0000
  H   H3587     1.0  0.94564  0.43481  0.55844  1.0000
  H   H3588     1.0  0.96735  0.27010  0.54990  1.0000
  C   C3596     1.0  0.93864  0.27071  0.48862  1.0000
  S   S1210     1.0  0.85849  0.02481  0.49931  1.0000
  H   H3589     1.0  0.91808  0.06770  0.54201  1.0000
  C   C3597     1.0  0.93538  0.45581  0.72402  1.0000
  C   C3598     1.0  0.90157  0.06873  0.54132  1.0000
  H   H3590     1.0  0.96249  0.29300  0.51621  1.0000
  S   S1211     1.0  0.82331  0.04581  0.53637  1.0000
  S   S1212     1.0  0.96503  0.47266  0.61586  1.0000
  H   H3591     1.0  0.86328  0.09788  0.52252  1.0000
  C   C3599     1.0  0.91100  0.46709  0.69172  1.0000
  H   H3592     1.0  0.91913  0.25642  0.54901  1.0000
  Fe  Fe599     1.0  0.98059  0.39738  0.53734  1.0000
  N   N296      1.0  0.81611  0.01588  0.49904  1.0000
  Fe  Fe600     1.0  0.85417  0.04014  0.50600  1.0000
  C   C3600     1.0  0.89796  0.26563  0.49308  1.0000
  C   C3601     1.0  0.88745  0.20389  0.49034  1.0000
  Fe  Fe601     1.0  0.98011  0.31887  0.50695  1.0000
  C   C3602     1.0  0.89115  0.07542  0.54176  1.0000
  H   H3593     1.0  0.89046  0.16004  0.52290  1.0000
  C   C3603     1.0  0.91480  0.46738  0.70066  1.0000
  H   H3594     1.0  0.90889  0.46897  0.60461  1.0000
  C   C3604     1.0  0.88051  0.21376  0.49251  1.0000
  H   H3595     1.0  0.92759  0.45616  0.72988  1.0000
  C   C3605     1.0  0.88155  0.15902  0.50112  1.0000
  N   N297      1.0  0.88696  0.25036  0.50850  1.0000
  C   C3606     1.0  0.80605  0.03309  0.50386  1.0000
  H   H3596     1.0  0.92299  0.46845  0.69935  1.0000
  H   H3597     1.0  0.95551  0.43711  0.48974  1.0000
  C   C3607     1.0  0.85172  0.01482  0.50868  1.0000
  C   C3608     1.0  0.95111  0.42953  0.58869  1.0000
  N   N298      1.0  0.94330  0.16480  0.50891  1.0000
  C   C3609     1.0  0.93693  0.17328  0.50297  1.0000
  N   N299      1.0  0.95402  0.45741  0.71933  1.0000
  C   C3610     1.0  0.94004  0.16258  0.48941  1.0000
  C   C3611     1.0  0.94459  0.16589  0.51941  1.0000
  S   S1213     1.0  0.98189  0.22381  0.50714  1.0000
  H   H3598     1.0  0.91497  0.47893  0.62131  1.0000
  H   H3599     1.0  0.94576  0.17425  0.51870  1.0000
  H   H3600     1.0  0.93720  0.16448  0.52594  1.0000
  C   C3612     1.0  0.80643  0.02328  0.50111  1.0000
  H   H3601     1.0  0.88844  0.08280  0.49302  1.0000
  H   H3602     1.0  0.88903  0.17895  0.52287  1.0000
  H   H3603     1.0  0.89294  0.27486  0.50585  1.0000
  C   C3613     1.0  0.92627  0.21499  0.54512  1.0000
  C   C3614     1.0  0.98697  0.28994  0.51760  1.0000
  C   C3615     1.0  0.92025  0.48107  0.61332  1.0000
  H   H3604     1.0  0.88225  0.18986  0.51359  1.0000
  H   H3605     1.0  0.93969  0.22857  0.53630  1.0000
  C   C3616     1.0  0.78901  0.99961  0.55515  1.0000
  H   H3606     1.0  0.81547  0.04289  0.50660  1.0000
  H   H3607     1.0  0.90862  0.22604  0.55719  1.0000
  H   H3608     1.0  0.89730  0.46577  0.68649  1.0000
  H   H3609     1.0  0.93007  0.45139  0.71188  1.0000
  H   H3610     1.0  0.87245  0.17301  0.49138  1.0000
  H   H3611     1.0  0.94783  0.45150  0.69828  1.0000
  C   C3617     1.0  0.87881  0.43331  0.59239  1.0000
  H   H3612     1.0  0.90771  0.16750  0.48993  1.0000
  H   H3613     1.0  0.93446  0.21016  0.54632  1.0000
  N   N300      1.0  0.88931  0.35410  0.51895  1.0000
  C   C3618     1.0  0.88878  0.36497  0.51147  1.0000
  C   C3619     1.0  0.87616  0.17730  0.50466  1.0000
  C   C3620     1.0  0.86677  0.44468  0.58052  1.0000
  C   C3621     1.0  0.88866  0.38801  0.49054  1.0000
  H   H3614     1.0  0.85993  0.08010  0.52196  1.0000
  N   N301      1.0  0.93925  0.34717  0.54987  1.0000
  C   C3622     1.0  0.94875  0.34455  0.55339  1.0000
  C   C3623     1.0  0.93379  0.35791  0.54750  1.0000
  C   C3624     1.0  0.95287  0.35274  0.55487  1.0000
  C   C3625     1.0  0.93767  0.36634  0.54890  1.0000
  C   C3626     1.0  0.94731  0.36372  0.55258  1.0000
  C   C3627     1.0  0.93518  0.33848  0.54815  1.0000
  H   H3615     1.0  0.95318  0.33606  0.55513  1.0000
  H   H3616     1.0  0.92634  0.36002  0.54456  1.0000
  H   H3617     1.0  0.96034  0.35055  0.55780  1.0000
  H   H3618     1.0  0.93319  0.37483  0.54716  1.0000
  H   H3619     1.0  0.95049  0.37015  0.55366  1.0000
  H   H3620     1.0  0.93756  0.33048  0.55384  1.0000
  H   H3621     1.0  0.92615  0.34051  0.54969  1.0000
  H   H3622     1.0  0.93855  0.33742  0.53953  1.0000
  N   N302      1.0  0.94291  0.45080  0.65987  1.0000
  C   C3628     1.0  0.93315  0.44838  0.66079  1.0000
  C   C3629     1.0  0.95019  0.45202  0.64992  1.0000
  C   C3630     1.0  0.93051  0.44699  0.65159  1.0000
  C   C3631     1.0  0.94773  0.45087  0.64051  1.0000
  C   C3632     1.0  0.93781  0.44836  0.64137  1.0000
  C   C3633     1.0  0.94561  0.45233  0.66950  1.0000
  H   H3623     1.0  0.92723  0.44772  0.66860  1.0000
  H   H3624     1.0  0.95792  0.45394  0.64922  1.0000
  H   H3625     1.0  0.92270  0.44521  0.65230  1.0000
  H   H3626     1.0  0.95344  0.45198  0.63258  1.0000
  H   H3627     1.0  0.93569  0.44767  0.63410  1.0000
  H   H3628     1.0  0.93952  0.45019  0.67722  1.0000
  H   H3629     1.0  0.95366  0.44705  0.67064  1.0000
  H   H3630     1.0  0.94583  0.46110  0.66839  1.0000
  C   C3634     1.0  0.90774  0.08359  0.54377  1.0000
  H   H3631     1.0  0.98349  0.11385  0.50407  1.0000
  C   C3635     1.0  0.97980  0.36159  0.53851  1.0000
  C   C3636     1.0  0.87067  0.44263  0.59007  1.0000
  H   H3632     1.0  0.88178  0.42261  0.57037  1.0000
  N   N303      1.0  0.89756  0.09021  0.54384  1.0000
  H   H3633     1.0  0.97108  0.45532  0.71791  1.0000
  C   C3637     1.0  0.91490  0.23071  0.55315  1.0000
  C   C3638     1.0  0.97889  0.42716  0.59286  1.0000
  H   H3634     1.0  0.98275  0.43073  0.59697  1.0000
  H   H3635     1.0  0.93656  0.24788  0.53769  1.0000
  H   H3636     1.0  0.79259  0.99484  0.52536  1.0000
  C   C3639     1.0  0.93676  0.45321  0.71390  1.0000
  C   C3640     1.0  0.94795  0.15517  0.50539  1.0000
  H   H3637     1.0  0.98086  0.37706  0.48683  1.0000
  S   S1214     1.0  0.98048  0.33638  0.49809  1.0000
  C   C3641     1.0  0.92622  0.25984  0.48896  1.0000
  H   H3638     1.0  0.81330  0.06325  0.52055  1.0000
  H   H3639     1.0  0.89163  0.32522  0.53835  1.0000
  C   C3642     1.0  0.80855  0.05699  0.52350  1.0000
  C   C3643     1.0  0.88928  0.08621  0.54301  1.0000
  H   H3640     1.0  0.87193  0.18582  0.50258  1.0000
  C   C3644     1.0  0.89067  0.33339  0.53303  1.0000
  C   C3645     1.0  0.96519  0.38045  0.51982  1.0000
  S   S1215     1.0  0.91988  0.46781  0.67867  1.0000
  C   C3646     1.0  0.88847  0.33508  0.52268  1.0000
  C   C3647     1.0  0.80538  0.03950  0.53522  1.0000
  C   C3648     1.0  0.96257  0.28034  0.53107  1.0000
  H   H3641     1.0  0.95884  0.25489  0.53449  1.0000
  C   C3649     1.0  0.94644  0.15395  0.49556  1.0000
  H   H3642     1.0  0.87167  0.43472  0.55776  1.0000
  C   C3650     1.0  0.98139  0.45444  0.64324  1.0000
  H   H3643     1.0  0.95610  0.48537  0.63792  1.0000
  C   C3651     1.0  0.97358  0.44383  0.56653  1.0000
  H   H3644     1.0  0.88625  0.34676  0.50761  1.0000
  H   H3645     1.0  0.94682  0.43435  0.59514  1.0000
  H   H3646     1.0  0.98293  0.41029  0.48866  1.0000
  Fe  Fe602     1.0  0.85980  0.05669  0.51528  1.0000
  S   S1216     1.0  0.86131  0.05502  0.49807  1.0000
  C   C3652     1.0  0.89119  0.35258  0.52919  1.0000
  H   H3647     1.0  0.90298  0.10461  0.54299  1.0000
  H   H3648     1.0  0.86759  0.44836  0.59552  1.0000
  H   H3649     1.0  0.95282  0.14836  0.51020  1.0000
  C   C3653     1.0  0.89197  0.34221  0.53636  1.0000
  C   C3654     1.0  0.87317  0.08013  0.49279  1.0000
  H   H3650     1.0  0.86636  0.44860  0.55914  1.0000
  N   N304      1.0  0.80006  0.99824  0.55140  1.0000
  N   N305      1.0  0.94799  0.31219  0.49446  1.0000
  C   C3655     1.0  0.88637  0.15535  0.51020  1.0000
  H   H3651     1.0  0.87431  0.18256  0.52588  1.0000
  H   H3652     1.0  0.97968  0.34759  0.53273  1.0000
  C   C3656     1.0  0.95827  0.26744  0.51968  1.0000
  H   H3653     1.0  0.97345  0.36008  0.54576  1.0000
  C   C3657     1.0  0.94222  0.32046  0.50103  1.0000
  N   N306      1.0  0.87635  0.09782  0.49173  1.0000
  H   H3654     1.0  0.85766  0.00314  0.49820  1.0000
  C   C3658     1.0  0.95440  0.37248  0.51319  1.0000
  Fe  Fe603     1.0  0.95287  0.48826  0.70027  1.0000
  H   H3655     1.0  0.97808  0.18112  0.56005  1.0000
  Fe  Fe604     1.0  0.96182  0.46293  0.60576  1.0000
  H   H3656     1.0  0.81878  0.00675  0.48689  1.0000
  H   H3657     1.0  0.98186  0.16204  0.55051  1.0000
  H   H3658     1.0  0.88462  0.07239  0.54080  1.0000
  Fe  Fe605     1.0  0.84410  0.06464  0.50016  1.0000
  H   H3659     1.0  0.96237  0.36644  0.49849  1.0000
  H   H3660     1.0  0.90316  0.06044  0.54006  1.0000
  H   H3661     1.0  0.96483  0.44521  0.56813  1.0000
  C   C3659     1.0  0.98173  0.18243  0.55108  1.0000
  H   H3662     1.0  0.96270  0.45658  0.73130  1.0000
  H   H3663     1.0  0.96607  0.47485  0.65664  1.0000
  H   H3664     1.0  0.88529  0.46410  0.70524  1.0000
  H   H3665     1.0  0.96605  0.38454  0.52569  1.0000
  S   S1217     1.0  0.84282  0.06735  0.51690  1.0000
  S   S1218     1.0  0.97326  0.42992  0.55440  1.0000
  H   H3666     1.0  0.83302  0.02969  0.50222  1.0000
  C   C3660     1.0  0.97612  0.18306  0.49247  1.0000
  H   H3667     1.0  0.81972  0.07075  0.49983  1.0000
  S   S1219     1.0  0.97831  0.42833  0.52334  1.0000
  H   H3668     1.0  0.80693  0.06141  0.49697  1.0000
  H   H3669     1.0  0.90513  0.24535  0.55881  1.0000
  C   C3661     1.0  0.95874  0.30749  0.49430  1.0000
  C   C3662     1.0  0.94411  0.45803  0.72656  1.0000
  S   S1220     1.0  0.88859  0.46429  0.72619  1.0000
  H   H3670     1.0  0.96322  0.31026  0.49846  1.0000
  H   H3671     1.0  0.82248  0.99872  0.49963  1.0000
  N   N307      1.0  0.91759  0.48073  0.60396  1.0000
  C   C3663     1.0  0.98433  0.37073  0.53645  1.0000
  C   C3664     1.0  0.96312  0.45954  0.72229  1.0000
  Fe  Fe606     1.0  0.96303  0.47615  0.68163  1.0000
  H   H3672     1.0  0.98129  0.38083  0.50994  1.0000
  S   S1221     1.0  0.94332  0.48550  0.71800  1.0000
  Fe  Fe607     1.0  0.98093  0.46041  0.61547  1.0000
  C   C3665     1.0  0.96761  0.43020  0.59374  1.0000
  H   H3673     1.0  0.80846  0.00326  0.49905  1.0000
  H   H3674     1.0  0.97769  0.10179  0.51029  1.0000
  C   C3666     1.0  0.92464  0.48264  0.59395  1.0000
  C   C3667     1.0  0.97491  0.42930  0.49504  1.0000
  C   C3668     1.0  0.86230  0.08493  0.49249  1.0000
  C   C3669     1.0  0.96417  0.29898  0.48877  1.0000
  C   C3670     1.0  0.98231  0.44578  0.65246  1.0000
  H   H3675     1.0  0.98715  0.27788  0.53296  1.0000
  H   H3676     1.0  0.92998  0.17894  0.48854  1.0000
  C   C3671     1.0  0.98790  0.27919  0.52417  1.0000
  H   H3677     1.0  0.98696  0.43767  0.65137  1.0000
  C   C3672     1.0  0.94863  0.48760  0.72817  1.0000
  H   H3678     1.0  0.97560  0.18263  0.54655  1.0000
  Fe  Fe608     1.0  0.98330  0.33823  0.51371  1.0000
  C   C3673     1.0  0.98197  0.37060  0.49438  1.0000
  H   H3679     1.0  0.93394  0.31255  0.48908  1.0000
  H   H3680     1.0  0.98041  0.42294  0.49993  1.0000
  C   C3674     1.0  0.79274  0.05055  0.52367  1.0000
  C   C3675     1.0  0.98333  0.14417  0.48730  1.0000
  H   H3681     1.0  0.96277  0.46852  0.72011  1.0000
  H   H3682     1.0  0.88183  0.48771  0.72174  1.0000
  C   C3676     1.0  0.95990  0.42952  0.48710  1.0000
  H   H3683     1.0  0.97649  0.11171  0.51820  1.0000
  S   S1222     1.0  0.90855  0.47590  0.73507  1.0000
  H   H3684     1.0  0.98259  0.36240  0.49287  1.0000
  H   H3685     1.0  0.98554  0.29683  0.52136  1.0000
  Fe  Fe609     1.0  0.96417  0.48316  0.79202  1.0000
  C   C3677     1.0  0.89462  0.44351  0.78443  1.0000
  C   C3678     1.0  0.90572  0.44338  0.78097  1.0000
  S   S1223     1.0  0.93921  0.45978  0.79496  1.0000
  S   S1224     1.0  0.80218  0.46763  0.93665  1.0000
  H   H3686     1.0  0.98627  0.48112  0.77331  1.0000
  H   H3687     1.0  0.90693  0.44835  0.81369  1.0000
  Fe  Fe610     1.0  0.81474  0.47563  0.92344  1.0000
  S   S1225     1.0  0.83177  0.46758  0.91550  1.0000
  S   S1226     1.0  0.94819  0.48164  0.80366  1.0000
  S   S1227     1.0  0.87065  0.48580  0.83977  1.0000
  H   H3688     1.0  0.91996  0.44361  0.78577  1.0000
  C   C3679     1.0  0.85279  0.44359  0.90605  1.0000
  Fe  Fe611     1.0  0.88776  0.47121  0.76337  1.0000
  S   S1228     1.0  0.90220  0.47821  0.76081  1.0000
  C   C3680     1.0  0.82495  0.46855  0.97540  1.0000
  H   H3689     1.0  0.86661  0.47237  0.80265  1.0000
  H   H3690     1.0  0.95768  0.44534  0.82314  1.0000
  H   H3691     1.0  0.90988  0.44340  0.77242  1.0000
  Fe  Fe612     1.0  0.91129  0.46515  0.75134  1.0000
  S   S1229     1.0  0.92723  0.45367  0.75366  1.0000
  S   S1230     1.0  0.87680  0.46919  0.78052  1.0000
  C   C3681     1.0  0.92667  0.48654  0.86607  1.0000
  S   S1231     1.0  0.89708  0.45736  0.75488  1.0000
  H   H3692     1.0  0.83362  0.48633  0.95593  1.0000
  Fe  Fe613     1.0  0.86868  0.47388  0.85631  1.0000
  C   C3682     1.0  0.97889  0.47261  0.81169  1.0000
  S   S1232     1.0  0.85214  0.46994  0.86478  1.0000
  Fe  Fe614     1.0  0.89202  0.47153  0.85784  1.0000
  H   H3693     1.0  0.93479  0.45717  0.81742  1.0000
  S   S1233     1.0  0.90550  0.46341  0.86701  1.0000
  H   H3694     1.0  0.88067  0.44421  0.79801  1.0000
  N   N308      1.0  0.86093  0.44506  0.88673  1.0000
  Fe  Fe615     1.0  0.88694  0.47453  0.83552  1.0000
  C   C3683     1.0  0.81762  0.47086  0.96852  1.0000
  H   H3695     1.0  0.87424  0.47291  0.81802  1.0000
  S   S1234     1.0  0.88438  0.46185  0.85138  1.0000
  C   C3684     1.0  0.95532  0.45416  0.81915  1.0000
  C   C3685     1.0  0.92986  0.47519  0.87012  1.0000
  C   C3686     1.0  0.92323  0.46811  0.87064  1.0000
  C   C3687     1.0  0.91352  0.47233  0.86690  1.0000
  C   C3688     1.0  0.94269  0.48634  0.73916  1.0000
  H   H3696     1.0  0.96416  0.48425  0.81666  1.0000
  H   H3697     1.0  0.85051  0.44554  0.87649  1.0000
  H   H3698     1.0  0.92570  0.45935  0.87381  1.0000
  H   H3699     1.0  0.95414  0.45477  0.81079  1.0000
  S   S1235     1.0  0.89566  0.48333  0.84172  1.0000
  C   C3689     1.0  0.88212  0.47051  0.79110  1.0000
  C   C3690     1.0  0.89329  0.46959  0.78963  1.0000
  C   C3691     1.0  0.89757  0.46993  0.79824  1.0000
  C   C3692     1.0  0.89076  0.47106  0.80852  1.0000
  C   C3693     1.0  0.87956  0.47207  0.81009  1.0000
  H   H3700     1.0  0.92896  0.48253  0.89128  1.0000
  C   C3694     1.0  0.98711  0.46396  0.81533  1.0000
  S   S1236     1.0  0.96926  0.47549  0.89953  1.0000
  S   S1237     1.0  0.88264  0.48221  0.74800  1.0000
  H   H3701     1.0  0.82060  0.47010  0.96001  1.0000
  N   N309      1.0  0.94539  0.45949  0.82600  1.0000
  C   C3695     1.0  0.84290  0.44343  0.90415  1.0000
  Fe  Fe616     1.0  0.97229  0.47264  0.85919  1.0000
  C   C3696     1.0  0.87526  0.47175  0.80139  1.0000
  H   H3702     1.0  0.94533  0.47974  0.89855  1.0000
  C   C3697     1.0  0.87043  0.44620  0.87757  1.0000
  S   S1238     1.0  0.87608  0.48227  0.86426  1.0000
  S   S1239     1.0  0.98269  0.47752  0.86737  1.0000
  C   C3698     1.0  0.97870  0.46518  0.83436  1.0000
  H   H3703     1.0  0.94495  0.44127  0.78480  1.0000
  C   C3699     1.0  0.93663  0.45834  0.78297  1.0000
  C   C3700     1.0  0.93079  0.46730  0.77652  1.0000
  C   C3701     1.0  0.92828  0.46601  0.76721  1.0000
  C   C3702     1.0  0.93161  0.45578  0.76433  1.0000
  C   C3703     1.0  0.93792  0.44694  0.77046  1.0000
  C   C3704     1.0  0.94029  0.44818  0.77990  1.0000
  H   H3704     1.0  0.92798  0.47518  0.77881  1.0000
  H   H3705     1.0  0.92388  0.47299  0.76220  1.0000
  H   H3706     1.0  0.94061  0.43904  0.76818  1.0000
  H   H3707     1.0  0.89877  0.46799  0.78206  1.0000
  C   C3705     1.0  0.83670  0.47061  0.90107  1.0000
  C   C3706     1.0  0.83024  0.47129  0.89387  1.0000
  C   C3707     1.0  0.83498  0.47156  0.88262  1.0000
  C   C3708     1.0  0.84612  0.47142  0.87847  1.0000
  C   C3709     1.0  0.85241  0.47145  0.88556  1.0000
  C   C3710     1.0  0.84774  0.47092  0.89684  1.0000
  H   H3708     1.0  0.82176  0.47093  0.89707  1.0000
  H   H3709     1.0  0.83007  0.47152  0.87719  1.0000
  H   H3710     1.0  0.86100  0.47128  0.88251  1.0000
  H   H3711     1.0  0.85279  0.47034  0.90238  1.0000
  C   C3711     1.0  0.98285  0.47647  0.91192  1.0000
  H   H3712     1.0  0.96215  0.45820  0.81792  1.0000
  C   C3712     1.0  0.80644  0.47396  0.97274  1.0000
  H   H3713     1.0  0.93516  0.48353  0.74146  1.0000
  H   H3714     1.0  0.91024  0.48689  0.79720  1.0000
  S   S1240     1.0  0.97900  0.46028  0.84843  1.0000
  N   N310      1.0  0.90618  0.44405  0.79919  1.0000
  H   H3715     1.0  0.79471  0.45277  0.98388  1.0000
  H   H3716     1.0  0.93734  0.47184  0.87296  1.0000
  S   S1241     1.0  0.95877  0.47113  0.87441  1.0000
  Fe  Fe617     1.0  0.89362  0.46907  0.73919  1.0000
  C   C3713     1.0  0.98216  0.47369  0.90243  1.0000
  H   H3717     1.0  0.86941  0.44474  0.89868  1.0000
  C   C3714     1.0  0.93672  0.46815  0.84137  1.0000
  C   C3715     1.0  0.98690  0.46014  0.82662  1.0000
  H   H3718     1.0  0.91920  0.47300  0.84445  1.0000
  C   C3716     1.0  0.92656  0.46926  0.83926  1.0000
  C   C3717     1.0  0.97046  0.47748  0.81942  1.0000
  H   H3719     1.0  0.88998  0.44382  0.77856  1.0000
  S   S1242     1.0  0.98000  0.47782  0.79743  1.0000
  C   C3718     1.0  0.92588  0.46533  0.83056  1.0000
  H   H3720     1.0  0.96393  0.47764  0.83667  1.0000
  H   H3721     1.0  0.83361  0.46607  0.97217  1.0000
  C   C3719     1.0  0.85130  0.44471  0.88482  1.0000
  H   H3722     1.0  0.91799  0.46607  0.82891  1.0000
  Fe  Fe618     1.0  0.78976  0.48085  0.92858  1.0000
  S   S1243     1.0  0.96174  0.47535  0.77978  1.0000
  C   C3720     1.0  0.88939  0.44367  0.79539  1.0000
  C   C3721     1.0  0.89534  0.44390  0.80273  1.0000
  H   H3723     1.0  0.91847  0.44962  0.80256  1.0000
  Fe  Fe619     1.0  0.96837  0.47816  0.88171  1.0000
  H   H3724     1.0  0.89112  0.44448  0.81112  1.0000
  H   H3725     1.0  0.91659  0.43605  0.81031  1.0000
  C   C3722     1.0  0.93543  0.46035  0.82404  1.0000
  H   H3726     1.0  0.87403  0.45292  0.87782  1.0000
  H   H3727     1.0  0.83574  0.44334  0.91088  1.0000
  H   H3728     1.0  0.85333  0.44355  0.91427  1.0000
  C   C3723     1.0  0.91047  0.48363  0.86275  1.0000
  Fe  Fe620     1.0  0.80143  0.47993  0.94613  1.0000
  C   C3724     1.0  0.97043  0.47385  0.83075  1.0000
  C   C3725     1.0  0.86180  0.44436  0.89719  1.0000
  S   S1244     1.0  0.89682  0.47055  0.81922  1.0000
  H   H3729     1.0  0.86819  0.44844  0.86943  1.0000
  C   C3726     1.0  0.91234  0.44448  0.80685  1.0000
  C   C3727     1.0  0.91140  0.44358  0.78853  1.0000
  C   C3728     1.0  0.94611  0.46314  0.83466  1.0000
  H   H3730     1.0  0.83440  0.44413  0.89188  1.0000
  H   H3731     1.0  0.87667  0.43837  0.87806  1.0000
  C   C3729     1.0  0.80262  0.47475  0.98379  1.0000
  C   C3730     1.0  0.84214  0.44392  0.89349  1.0000
  Fe  Fe621     1.0  0.94512  0.47537  0.79064  1.0000
  H   H3732     1.0  0.90626  0.46902  0.79697  1.0000
  H   H3733     1.0  0.95397  0.46211  0.83647  1.0000
  H   H3734     1.0  0.93732  0.47105  0.84822  1.0000
  S   S1245     1.0  0.79684  0.47665  0.96472  1.0000
  H   H3735     1.0  0.97549  0.47996  0.91725  1.0000
  C   C3731     1.0  0.98636  0.48523  0.76475  1.0000
  H   H3736     1.0  0.90315  0.48687  0.85968  1.0000
  S   S1246     1.0  0.81509  0.48668  0.93388  1.0000
  Fe  Fe622     1.0  0.89791  0.48813  0.74489  1.0000
  C   C3732     1.0  0.93976  0.48774  0.89752  1.0000
  S   S1247     1.0  0.80246  0.48772  0.91437  1.0000
  H   H3737     1.0  0.94147  0.48840  0.75550  1.0000
  Fe  Fe623     1.0  0.95206  0.48863  0.86677  1.0000
  C   C3733     1.0  0.82112  0.46944  0.98646  1.0000
  H   H3738     1.0  0.79228  0.50805  0.01157  1.0000
  Fe  Fe624     1.0  0.92543  0.56229  0.16618  1.0000
  S   S1248     1.0  0.90898  0.56219  0.17755  1.0000
  S   S1249     1.0  0.93374  0.57647  0.16022  1.0000
  Fe  Fe625     1.0  0.92821  0.53961  0.16240  1.0000
  S   S1250     1.0  0.91207  0.53730  0.17333  1.0000
  S   S1251     1.0  0.94008  0.52667  0.15413  1.0000
  Fe  Fe626     1.0  0.90613  0.55482  0.16509  1.0000
  S   S1252     1.0  0.89060  0.56071  0.15920  1.0000
  Fe  Fe627     1.0  0.91638  0.54473  0.18484  1.0000
  S   S1253     1.0  0.91521  0.53539  0.20254  1.0000
  S   S1254     1.0  0.92194  0.55643  0.15311  1.0000
  S   S1255     1.0  0.93315  0.54549  0.17451  1.0000
  S   S1256     1.0  0.81484  0.50999  0.01609  1.0000
  Fe  Fe628     1.0  0.97361  0.55457  0.19453  1.0000
  H   H3739     1.0  0.91432  0.50614  0.10842  1.0000
  S   S1257     1.0  0.96859  0.57242  0.18694  1.0000
  Fe  Fe629     1.0  0.96552  0.53452  0.20897  1.0000
  H   H3740     1.0  0.81202  0.55039  0.00372  1.0000
  C   C3734     1.0  0.95471  0.50235  0.20760  1.0000
  C   C3735     1.0  0.85231  0.52992  0.06568  1.0000
  C   C3736     1.0  0.79217  0.56251  0.03428  1.0000
  S   S1258     1.0  0.88430  0.49348  0.06613  1.0000
  S   S1259     1.0  0.91455  0.48897  0.06939  1.0000
  S   S1260     1.0  0.96974  0.54836  0.21276  1.0000
  S   S1261     1.0  0.96764  0.54172  0.19087  1.0000
  H   H3741     1.0  0.80233  0.50048  0.98816  1.0000
  C   C3737     1.0  0.91711  0.51774  0.05994  1.0000
  C   C3738     1.0  0.97935  0.50227  0.09740  1.0000
  H   H3742     1.0  0.94197  0.50380  0.15552  1.0000
  Fe  Fe630     1.0  0.89829  0.55493  0.10076  1.0000
  S   S1262     1.0  0.90909  0.55438  0.08394  1.0000
  S   S1263     1.0  0.89420  0.56980  0.10800  1.0000
  Fe  Fe631     1.0  0.89475  0.53208  0.10460  1.0000
  S   S1264     1.0  0.90562  0.52932  0.08842  1.0000
  S   S1265     1.0  0.88502  0.52015  0.11623  1.0000
  Fe  Fe632     1.0  0.91663  0.53748  0.09232  1.0000
  S   S1266     1.0  0.93478  0.53103  0.08906  1.0000
  Fe  Fe633     1.0  0.89691  0.54642  0.08160  1.0000
  S   S1267     1.0  0.89228  0.54871  0.06537  1.0000
  S   S1268     1.0  0.90659  0.53849  0.10929  1.0000
  S   S1269     1.0  0.88536  0.54865  0.09765  1.0000
  H   H3743     1.0  0.93310  0.53523  0.06626  1.0000
  C   C3739     1.0  0.84745  0.53650  0.08276  1.0000
  C   C3740     1.0  0.90805  0.53483  0.22457  1.0000
  H   H3744     1.0  0.90841  0.57921  0.12470  1.0000
  Fe  Fe634     1.0  0.97859  0.55016  0.10350  1.0000
  C   C3741     1.0  0.96584  0.56109  0.15284  1.0000
  S   S1270     1.0  0.96046  0.55666  0.10455  1.0000
  C   C3742     1.0  0.81484  0.54245  0.00103  1.0000
  H   H3745     1.0  0.95849  0.50525  0.16338  1.0000
  H   H3746     1.0  0.80541  0.56734  0.02122  1.0000
  H   H3747     1.0  0.97929  0.52330  0.10818  1.0000
  C   C3743     1.0  0.98178  0.51527  0.10624  1.0000
  H   H3748     1.0  0.91188  0.58186  0.10405  1.0000
  S   S1271     1.0  0.84778  0.54752  0.03707  1.0000
  S   S1272     1.0  0.84284  0.56277  0.06127  1.0000
  H   H3749     1.0  0.91175  0.52613  0.22565  1.0000
  H   H3750     1.0  0.84450  0.52951  0.08901  1.0000
  C   C3744     1.0  0.82091  0.51268  0.02516  1.0000
  C   C3745     1.0  0.82875  0.51908  0.02114  1.0000
  H   H3751     1.0  0.94042  0.57539  0.10428  1.0000
  H   H3752     1.0  0.91553  0.57934  0.20485  1.0000
  C   C3746     1.0  0.79761  0.56511  0.02325  1.0000
  C   C3747     1.0  0.98742  0.49426  0.10205  1.0000
  H   H3753     1.0  0.83127  0.52224  0.01237  1.0000
  N   N311      1.0  0.85562  0.53235  0.07367  1.0000
  C   C3748     1.0  0.91405  0.52919  0.05720  1.0000
  S   S1273     1.0  0.91473  0.50251  0.13694  1.0000
  C   C3749     1.0  0.82570  0.56910  0.00139  1.0000
  C   C3750     1.0  0.83627  0.56287  0.99873  1.0000
  H   H3754     1.0  0.85087  0.54088  0.08678  1.0000
  C   C3751     1.0  0.95707  0.54714  0.15261  1.0000
  H   H3755     1.0  0.82319  0.57258  0.00864  1.0000
  C   C3752     1.0  0.90292  0.55253  0.21264  1.0000
  H   H3756     1.0  0.94586  0.50605  0.06883  1.0000
  C   C3753     1.0  0.88087  0.49362  0.13235  1.0000
  H   H3757     1.0  0.89575  0.52427  0.21455  1.0000
  H   H3758     1.0  0.97594  0.52302  0.15617  1.0000
  C   C3754     1.0  0.81876  0.50007  0.98860  1.0000
  H   H3759     1.0  0.89420  0.50816  0.23041  1.0000
  C   C3755     1.0  0.90816  0.54141  0.21392  1.0000
  S   S1274     1.0  0.83567  0.52057  0.04901  1.0000
  C   C3756     1.0  0.89070  0.52775  0.13832  1.0000
  C   C3757     1.0  0.87853  0.55287  0.06426  1.0000
  C   C3758     1.0  0.87021  0.55655  0.07276  1.0000
  C   C3759     1.0  0.85934  0.55972  0.07163  1.0000
  C   C3760     1.0  0.85666  0.55904  0.06212  1.0000
  H   H3760     1.0  0.89497  0.52134  0.13376  1.0000
  C   C3761     1.0  0.87587  0.55232  0.05468  1.0000
  H   H3761     1.0  0.87215  0.55713  0.08012  1.0000
  H   H3762     1.0  0.85296  0.56272  0.07817  1.0000
  H   H3763     1.0  0.87952  0.49243  0.11250  1.0000
  C   C3762     1.0  0.94190  0.53811  0.09342  1.0000
  C   C3763     1.0  0.93638  0.54518  0.10059  1.0000
  C   C3764     1.0  0.94221  0.55055  0.10420  1.0000
  C   C3765     1.0  0.95355  0.54909  0.10051  1.0000
  C   C3766     1.0  0.95908  0.54190  0.09345  1.0000
  C   C3767     1.0  0.95325  0.53642  0.08993  1.0000
  H   H3764     1.0  0.92764  0.54642  0.10345  1.0000
  H   H3765     1.0  0.93791  0.55573  0.10997  1.0000
  H   H3766     1.0  0.96781  0.54072  0.09054  1.0000
  H   H3767     1.0  0.95756  0.53093  0.08440  1.0000
  C   C3768     1.0  0.86705  0.51010  0.09661  1.0000
  C   C3769     1.0  0.86139  0.51339  0.10647  1.0000
  C   C3770     1.0  0.86690  0.51654  0.11253  1.0000
  C   C3771     1.0  0.87796  0.51669  0.10854  1.0000
  C   C3772     1.0  0.88347  0.51379  0.09850  1.0000
  C   C3773     1.0  0.87805  0.51042  0.09258  1.0000
  H   H3768     1.0  0.85289  0.51307  0.10964  1.0000
  H   H3769     1.0  0.86260  0.51883  0.12030  1.0000
  H   H3770     1.0  0.89205  0.51369  0.09547  1.0000
  H   H3771     1.0  0.88244  0.50795  0.08492  1.0000
  S   S1275     1.0  0.98220  0.52368  0.20767  1.0000
  C   C3774     1.0  0.89804  0.55712  0.22199  1.0000
  H   H3772     1.0  0.93663  0.51949  0.18975  1.0000
  N   N312      1.0  0.92465  0.55399  0.22707  1.0000
  H   H3773     1.0  0.87636  0.50179  0.13412  1.0000
  H   H3774     1.0  0.81061  0.57664  0.99617  1.0000
  H   H3775     1.0  0.85626  0.50889  0.03599  1.0000
  H   H3776     1.0  0.92685  0.56199  0.19948  1.0000
  H   H3777     1.0  0.84372  0.53138  0.06586  1.0000
  H   H3778     1.0  0.94677  0.51904  0.07045  1.0000
  H   H3779     1.0  0.80849  0.53772  0.04733  1.0000
  H   H3780     1.0  0.97242  0.57030  0.13685  1.0000
  Fe  Fe635     1.0  0.83719  0.55883  0.04809  1.0000
  N   N313      1.0  0.85218  0.49604  0.04959  1.0000
  H   H3781     1.0  0.83589  0.49880  0.98668  1.0000
  H   H3782     1.0  0.79663  0.56802  0.00633  1.0000
  C   C3775     1.0  0.94096  0.49354  0.10129  1.0000
  H   H3783     1.0  0.93808  0.51112  0.08106  1.0000
  H   H3784     1.0  0.93187  0.49428  0.14907  1.0000
  C   C3776     1.0  0.89846  0.55065  0.23263  1.0000
  Fe  Fe636     1.0  0.98486  0.53223  0.18971  1.0000
  H   H3785     1.0  0.85291  0.49494  0.07578  1.0000
  C   C3777     1.0  0.95675  0.51070  0.21112  1.0000
  C   C3778     1.0  0.94807  0.51875  0.21506  1.0000
  C   C3779     1.0  0.84101  0.48957  0.07116  1.0000
  C   C3780     1.0  0.93536  0.51011  0.21198  1.0000
  C   C3781     1.0  0.98360  0.57516  0.22639  1.0000
  H   H3786     1.0  0.80984  0.53459  0.02906  1.0000
  H   H3787     1.0  0.87707  0.52044  0.05019  1.0000
  H   H3788     1.0  0.98170  0.51109  0.16566  1.0000
  C   C3782     1.0  0.89262  0.56361  0.14481  1.0000
  C   C3783     1.0  0.88563  0.57257  0.13965  1.0000
  C   C3784     1.0  0.88643  0.57454  0.12829  1.0000
  C   C3785     1.0  0.89393  0.56730  0.12209  1.0000
  C   C3786     1.0  0.90106  0.55837  0.12720  1.0000
  C   C3787     1.0  0.90050  0.55661  0.13854  1.0000
  H   H3789     1.0  0.87952  0.57798  0.14447  1.0000
  H   H3790     1.0  0.88097  0.58150  0.12436  1.0000
  H   H3791     1.0  0.90706  0.55289  0.12242  1.0000
  H   H3792     1.0  0.90586  0.54961  0.14253  1.0000
  C   C3788     1.0  0.94266  0.57598  0.16828  1.0000
  C   C3789     1.0  0.94315  0.56805  0.17810  1.0000
  C   C3790     1.0  0.95086  0.56721  0.18407  1.0000
  C   C3791     1.0  0.95814  0.57425  0.18019  1.0000
  C   C3792     1.0  0.95737  0.58247  0.17060  1.0000
  C   C3793     1.0  0.94964  0.58331  0.16463  1.0000
  H   H3793     1.0  0.93761  0.56257  0.18107  1.0000
  H   H3794     1.0  0.95111  0.56117  0.19174  1.0000
  H   H3795     1.0  0.96293  0.58798  0.16762  1.0000
  H   H3796     1.0  0.94924  0.58952  0.15708  1.0000
  C   C3794     1.0  0.96792  0.56394  0.14135  1.0000
  Fe  Fe637     1.0  0.83418  0.53866  0.04316  1.0000
  H   H3797     1.0  0.85727  0.52383  0.05075  1.0000
  H   H3798     1.0  0.88790  0.49490  0.12530  1.0000
  H   H3799     1.0  0.87529  0.55057  0.15434  1.0000
  C   C3795     1.0  0.92212  0.50920  0.14135  1.0000
  N   N314      1.0  0.95911  0.55000  0.14134  1.0000
  C   C3796     1.0  0.93581  0.50854  0.15094  1.0000
  C   C3797     1.0  0.93335  0.52004  0.14893  1.0000
  C   C3798     1.0  0.92551  0.52615  0.14286  1.0000
  C   C3799     1.0  0.92009  0.52072  0.13884  1.0000
  C   C3800     1.0  0.98561  0.56962  0.20662  1.0000
  C   C3801     1.0  0.97636  0.51271  0.09972  1.0000
  H   H3800     1.0  0.92372  0.53505  0.14116  1.0000
  H   H3801     1.0  0.91416  0.52549  0.13399  1.0000
  H   H3802     1.0  0.88290  0.52479  0.06491  1.0000
  H   H3803     1.0  0.98270  0.57726  0.23420  1.0000
  H   H3804     1.0  0.89415  0.56577  0.22097  1.0000
  C   C3802     1.0  0.97476  0.57873  0.22127  1.0000
  H   H3805     1.0  0.87497  0.55808  0.12549  1.0000
  C   C3803     1.0  0.87955  0.54416  0.14979  1.0000
  S   S1276     1.0  0.98308  0.54056  0.11947  1.0000
  H   H3806     1.0  0.86302  0.55483  0.04624  1.0000
  H   H3807     1.0  0.84050  0.54257  0.07965  1.0000
  H   H3808     1.0  0.92544  0.57695  0.09674  1.0000
  C   C3804     1.0  0.83349  0.52128  0.02849  1.0000
  C   C3805     1.0  0.93906  0.57782  0.12036  1.0000
  S   S1277     1.0  0.82536  0.54811  0.02981  1.0000
  H   H3809     1.0  0.89750  0.51939  0.15255  1.0000
  H   H3810     1.0  0.85546  0.49681  0.03226  1.0000
  C   C3806     1.0  0.90343  0.49636  0.22052  1.0000
  C   C3807     1.0  0.93485  0.57682  0.11198  1.0000
  C   C3808     1.0  0.88652  0.53492  0.15467  1.0000
  H   H3811     1.0  0.92827  0.50388  0.06701  1.0000
  H   H3812     1.0  0.90264  0.48929  0.22731  1.0000
  S   S1278     1.0  0.82827  0.57045  0.03518  1.0000
  H   H3813     1.0  0.96620  0.56051  0.12673  1.0000
  C   C3809     1.0  0.86497  0.55529  0.05365  1.0000
  H   H3814     1.0  0.79868  0.55797  0.99333  1.0000
  C   C3810     1.0  0.89860  0.50696  0.22222  1.0000
  H   H3815     1.0  0.97556  0.50948  0.15556  1.0000
  C   C3811     1.0  0.91507  0.57277  0.22220  1.0000
  C   C3812     1.0  0.92460  0.56257  0.20805  1.0000
  C   C3813     1.0  0.86646  0.53044  0.07349  1.0000
  H   H3816     1.0  0.94772  0.57725  0.11907  1.0000
  N   N315      1.0  0.90977  0.50377  0.20126  1.0000
  C   C3814     1.0  0.88383  0.53721  0.13362  1.0000
  H   H3817     1.0  0.95818  0.53513  0.13811  1.0000
  H   H3818     1.0  0.86909  0.53233  0.07984  1.0000
  H   H3819     1.0  0.86341  0.55275  0.13451  1.0000
  H   H3820     1.0  0.86290  0.50035  0.05653  1.0000
  C   C3815     1.0  0.89939  0.51596  0.21334  1.0000
  C   C3816     1.0  0.87108  0.55496  0.13424  1.0000
  H   H3821     1.0  0.91254  0.51271  0.05843  1.0000
  H   H3822     1.0  0.96714  0.58359  0.22502  1.0000
  H   H3823     1.0  0.90552  0.52127  0.19599  1.0000
  C   C3817     1.0  0.89208  0.52664  0.14890  1.0000
  C   C3818     1.0  0.80163  0.53579  0.04573  1.0000
  S   S1279     1.0  0.79795  0.56262  0.04500  1.0000
  C   C3819     1.0  0.91969  0.57584  0.10491  1.0000
  C   C3820     1.0  0.85568  0.49715  0.05813  1.0000
  H   H3824     1.0  0.90708  0.53318  0.05349  1.0000
  N   N316      1.0  0.87843  0.54529  0.13932  1.0000
  H   H3825     1.0  0.94079  0.50731  0.17666  1.0000
  C   C3821     1.0  0.87433  0.52612  0.06507  1.0000
  H   H3826     1.0  0.91724  0.54443  0.05771  1.0000
  S   S1280     1.0  0.82424  0.54899  0.05509  1.0000
  N   N317      1.0  0.92395  0.57739  0.11356  1.0000
  S   S1281     1.0  0.84572  0.56133  0.00657  1.0000
  N   N318      1.0  0.79218  0.53553  0.05361  1.0000
  H   H3827     1.0  0.82012  0.50745  0.05261  1.0000
  C   C3822     1.0  0.92876  0.53025  0.06434  1.0000
  H   H3828     1.0  0.88283  0.53808  0.12537  1.0000
  C   C3823     1.0  0.91821  0.57228  0.21108  1.0000
  C   C3824     1.0  0.92605  0.51277  0.06479  1.0000
  C   C3825     1.0  0.93204  0.57949  0.13037  1.0000
  C   C3826     1.0  0.90499  0.51420  0.20283  1.0000
  N   N319      1.0  0.93187  0.51900  0.06675  1.0000
  H   H3829     1.0  0.93517  0.58031  0.13696  1.0000
  C   C3827     1.0  0.95692  0.51032  0.16929  1.0000
  C   C3828     1.0  0.96040  0.55264  0.15853  1.0000
  C   C3829     1.0  0.81791  0.50837  0.03648  1.0000
  H   H3830     1.0  0.81170  0.50360  0.03965  1.0000
  H   H3831     1.0  0.88226  0.54956  0.04803  1.0000
  C   C3830     1.0  0.92776  0.55345  0.21619  1.0000
  C   C3831     1.0  0.80244  0.53404  0.03534  1.0000
  C   C3832     1.0  0.85996  0.52560  0.05712  1.0000
  C   C3833     1.0  0.94684  0.51148  0.17676  1.0000
  C   C3834     1.0  0.93006  0.50313  0.14731  1.0000
  H   H3832     1.0  0.79335  0.50777  0.03051  1.0000
  C   C3835     1.0  0.83041  0.51705  0.03982  1.0000
  H   H3833     1.0  0.95846  0.54635  0.12641  1.0000
  Fe  Fe638     1.0  0.81632  0.55933  0.04125  1.0000
  H   H3834     1.0  0.90278  0.55764  0.20446  1.0000
  H   H3835     1.0  0.91544  0.58124  0.13972  1.0000
  C   C3836     1.0  0.96444  0.55830  0.13568  1.0000
  C   C3837     1.0  0.90912  0.49491  0.20995  1.0000
  C   C3838     1.0  0.94403  0.50218  0.20784  1.0000
  H   H3836     1.0  0.96865  0.52608  0.17691  1.0000
  H   H3837     1.0  0.83956  0.52626  0.02538  1.0000
  C   C3839     1.0  0.91703  0.57890  0.12339  1.0000
  C   C3840     1.0  0.93740  0.51840  0.21556  1.0000
  H   H3838     1.0  0.95871  0.55045  0.16747  1.0000
  H   H3839     1.0  0.91814  0.56741  0.10704  1.0000
  S   S1282     1.0  0.95038  0.52927  0.21945  1.0000
  H   H3840     1.0  0.86909  0.56184  0.13852  1.0000
  H   H3841     1.0  0.94629  0.54622  0.13711  1.0000
  H   H3842     1.0  0.96854  0.56537  0.15733  1.0000
  H   H3843     1.0  0.95282  0.54058  0.15704  1.0000
  H   H3844     1.0  0.95417  0.49799  0.10454  1.0000
  C   C3841     1.0  0.91983  0.53552  0.05949  1.0000
  N   N320      1.0  0.93889  0.50821  0.11017  1.0000
  C   C3842     1.0  0.94543  0.49983  0.10532  1.0000
  C   C3843     1.0  0.92786  0.51047  0.11129  1.0000
  H   H3845     1.0  0.79925  0.53695  0.06600  1.0000
  H   H3846     1.0  0.96501  0.51083  0.21090  1.0000
  C   C3844     1.0  0.92310  0.50434  0.10739  1.0000
  C   C3845     1.0  0.94372  0.51438  0.11473  1.0000
  H   H3847     1.0  0.93073  0.52471  0.21850  1.0000
  H   H3848     1.0  0.92265  0.51697  0.11532  1.0000
  H   H3849     1.0  0.79419  0.53046  0.02501  1.0000
  C   C3846     1.0  0.87104  0.52371  0.05682  1.0000
  C   C3847     1.0  0.82265  0.51057  0.04383  1.0000
  H   H3850     1.0  0.93834  0.52256  0.11555  1.0000
  H   H3851     1.0  0.94512  0.50970  0.12300  1.0000
  H   H3852     1.0  0.95157  0.51596  0.10918  1.0000
  N   N321      1.0  0.96452  0.51570  0.16928  1.0000
  C   C3848     1.0  0.96248  0.52207  0.17676  1.0000
  S   S1283     1.0  0.86083  0.50449  0.08986  1.0000
  C   C3849     1.0  0.95245  0.52349  0.18427  1.0000
  C   C3850     1.0  0.95532  0.54418  0.13544  1.0000
  C   C3851     1.0  0.94452  0.51831  0.18410  1.0000
  C   C3852     1.0  0.97495  0.51475  0.16125  1.0000
  H   H3853     1.0  0.86689  0.49644  0.03741  1.0000
  C   C3853     1.0  0.92094  0.58005  0.13191  1.0000
  H   H3854     1.0  0.95078  0.52855  0.19022  1.0000
  Fe  Fe639     1.0  0.83796  0.55821  0.02469  1.0000
  H   H3855     1.0  0.88766  0.53428  0.16282  1.0000
  C   C3854     1.0  0.92971  0.49583  0.10235  1.0000
  H   H3856     1.0  0.90984  0.58016  0.22472  1.0000
  H   H3857     1.0  0.96882  0.51515  0.23481  1.0000
  C   C3855     1.0  0.94110  0.51351  0.07201  1.0000
  H   H3858     1.0  0.97000  0.51887  0.09633  1.0000
  S   S1284     1.0  0.97353  0.49951  0.08812  1.0000
  H   H3859     1.0  0.93251  0.54585  0.21377  1.0000
  C   C3856     1.0  0.85798  0.49976  0.03823  1.0000
  H   H3860     1.0  0.92709  0.51011  0.21203  1.0000
  C   C3857     1.0  0.91545  0.50190  0.19021  1.0000
  S   S1285     1.0  0.94151  0.49287  0.20190  1.0000
  H   H3861     1.0  0.93701  0.54353  0.23513  1.0000
  H   H3862     1.0  0.81658  0.50162  0.99682  1.0000
  C   C3858     1.0  0.90326  0.53942  0.23387  1.0000
  H   H3863     1.0  0.84041  0.49087  0.04485  1.0000
  H   H3864     1.0  0.91124  0.49698  0.18766  1.0000
  H   H3865     1.0  0.97484  0.49082  0.13136  1.0000
  C   C3859     1.0  0.85012  0.49401  0.06904  1.0000
  C   C3860     1.0  0.81858  0.57134  0.99436  1.0000
  H   H3866     1.0  0.92613  0.49100  0.09930  1.0000
  C   C3861     1.0  0.91843  0.56351  0.23013  1.0000
  C   C3862     1.0  0.79115  0.53835  0.06411  1.0000
  H   H3867     1.0  0.96905  0.57869  0.20718  1.0000
  H   H3868     1.0  0.96141  0.49607  0.20469  1.0000
  H   H3869     1.0  0.97710  0.54946  0.22978  1.0000
  H   H3870     1.0  0.81452  0.53573  0.00854  1.0000
  C   C3863     1.0  0.79361  0.53177  0.03309  1.0000
  C   C3864     1.0  0.79268  0.56540  0.01483  1.0000
  H   H3871     1.0  0.92398  0.49734  0.19026  1.0000
  S   S1286     1.0  0.97229  0.48925  0.18479  1.0000
  Fe  Fe640     1.0  0.87404  0.49125  0.08324  1.0000
  C   C3865     1.0  0.97581  0.57596  0.21130  1.0000
  H   H3872     1.0  0.91569  0.50974  0.18394  1.0000
  C   C3866     1.0  0.84317  0.49182  0.05160  1.0000
  Fe  Fe641     1.0  0.81636  0.49174  0.02097  1.0000
  C   C3867     1.0  0.80996  0.53185  0.99095  1.0000
  C   C3868     1.0  0.83953  0.55849  0.98929  1.0000
  H   H3873     1.0  0.98648  0.56751  0.19883  1.0000
  H   H3874     1.0  0.92722  0.53677  0.23390  1.0000
  H   H3875     1.0  0.84771  0.55367  0.98722  1.0000
  H   H3876     1.0  0.81645  0.52501  0.99331  1.0000
  H   H3877     1.0  0.92046  0.50536  0.23448  1.0000
  H   H3878     1.0  0.96965  0.52948  0.23138  1.0000
  H   H3879     1.0  0.82341  0.54190  0.99632  1.0000
  Fe  Fe642     1.0  0.98672  0.53808  0.21033  1.0000
  N   N322      1.0  0.80809  0.54151  0.99419  1.0000
  C   C3869     1.0  0.80001  0.55019  0.99107  1.0000
  H   H3880     1.0  0.96513  0.49704  0.23359  1.0000
  H   H3881     1.0  0.93297  0.49490  0.23434  1.0000
  C   C3870     1.0  0.92828  0.54439  0.23540  1.0000
  C   C3871     1.0  0.98222  0.54784  0.23547  1.0000
  C   C3872     1.0  0.94768  0.80599  0.48286  1.0000
  H   H3882     1.0  0.97576  0.68113  0.41305  1.0000
  S   S1287     1.0  0.95190  0.89371  0.46357  1.0000
  H   H3883     1.0  0.94884  0.65957  0.43378  1.0000
  H   H3884     1.0  0.88042  0.61707  0.47907  1.0000
  S   S1288     1.0  0.80184  0.94378  0.48033  1.0000
  Fe  Fe643     1.0  0.90059  0.53755  0.36900  1.0000
  S   S1289     1.0  0.91772  0.52964  0.36219  1.0000
  S   S1290     1.0  0.88697  0.52858  0.37466  1.0000
  Fe  Fe644     1.0  0.90589  0.55988  0.36588  1.0000
  S   S1291     1.0  0.92339  0.55378  0.35789  1.0000
  S   S1292     1.0  0.90135  0.57741  0.36827  1.0000
  Fe  Fe645     1.0  0.91700  0.54524  0.34910  1.0000
  S   S1293     1.0  0.92483  0.54302  0.33181  1.0000
  Fe  Fe646     1.0  0.92221  0.53898  0.37181  1.0000
  S   S1294     1.0  0.93455  0.53259  0.38235  1.0000
  S   S1295     1.0  0.89954  0.55281  0.35549  1.0000
  S   S1296     1.0  0.90506  0.54532  0.38009  1.0000
  H   H3885     1.0  0.93336  0.51232  0.27085  1.0000
  Fe  Fe647     1.0  0.96721  0.56882  0.38226  1.0000
  H   H3886     1.0  0.88764  0.50341  0.39616  1.0000
  S   S1297     1.0  0.94933  0.57444  0.38344  1.0000
  C   C3873     1.0  0.97128  0.76392  0.42810  1.0000
  H   H3887     1.0  0.87839  0.90374  0.48365  1.0000
  H   H3888     1.0  0.90870  0.76595  0.47720  1.0000
  S   S1298     1.0  0.97384  0.56489  0.39735  1.0000
  C   C3874     1.0  0.87287  0.72351  0.47195  1.0000
  C   C3875     1.0  0.97423  0.56497  0.33510  1.0000
  H   H3889     1.0  0.88127  0.88109  0.48070  1.0000
  Fe  Fe648     1.0  0.89887  0.54786  0.26003  1.0000
  S   S1299     1.0  0.91024  0.53129  0.26103  1.0000
  S   S1300     1.0  0.89493  0.48989  0.25011  1.0000
  Fe  Fe649     1.0  0.90021  0.54934  0.28291  1.0000
  S   S1301     1.0  0.91169  0.53297  0.28531  1.0000
  S   S1302     1.0  0.89537  0.55850  0.29667  1.0000
  Fe  Fe650     1.0  0.91985  0.53853  0.26773  1.0000
  S   S1303     1.0  0.93772  0.53726  0.26132  1.0000
  Fe  Fe651     1.0  0.90080  0.52757  0.27849  1.0000
  S   S1304     1.0  0.89741  0.51097  0.28707  1.0000
  S   S1305     1.0  0.90922  0.55542  0.26568  1.0000
  S   S1306     1.0  0.88849  0.54358  0.27715  1.0000
  S   S1307     1.0  0.98089  0.49158  0.27633  1.0000
  C   C3876     1.0  0.89763  0.48898  0.27043  1.0000
  S   S1308     1.0  0.97759  0.49603  0.35598  1.0000
  H   H3890     1.0  0.92125  0.49906  0.27606  1.0000
  S   S1309     1.0  0.98044  0.68263  0.46520  1.0000
  Fe  Fe652     1.0  0.97216  0.53581  0.29720  1.0000
  S   S1310     1.0  0.95848  0.52721  0.30223  1.0000
  S   S1311     1.0  0.96851  0.55410  0.29192  1.0000
  Fe  Fe653     1.0  0.89506  0.59832  0.42207  1.0000
  S   S1312     1.0  0.90918  0.59111  0.43038  1.0000
  S   S1313     1.0  0.88950  0.58585  0.41687  1.0000
  Fe  Fe654     1.0  0.89317  0.62138  0.42517  1.0000
  S   S1314     1.0  0.90730  0.61586  0.43326  1.0000
  S   S1315     1.0  0.88531  0.63949  0.42296  1.0000
  Fe  Fe655     1.0  0.91512  0.60619  0.42023  1.0000
  S   S1316     1.0  0.93224  0.60691  0.41128  1.0000
  Fe  Fe656     1.0  0.89983  0.60150  0.44270  1.0000
  S   S1317     1.0  0.89795  0.59489  0.46109  1.0000
  S   S1318     1.0  0.90168  0.61287  0.41110  1.0000
  S   S1319     1.0  0.88507  0.60752  0.43538  1.0000
  S   S1320     1.0  0.94370  0.64027  0.43121  1.0000
  Fe  Fe657     1.0  0.89938  0.86463  0.46562  1.0000
  S   S1321     1.0  0.89704  0.88287  0.45901  1.0000
  H   H3891     1.0  0.91492  0.63367  0.43691  1.0000
  Fe  Fe658     1.0  0.89005  0.86107  0.44833  1.0000
  S   S1322     1.0  0.88691  0.87906  0.44021  1.0000
  S   S1323     1.0  0.88703  0.84937  0.44009  1.0000
  Fe  Fe659     1.0  0.90347  0.87831  0.44257  1.0000
  S   S1324     1.0  0.91598  0.88505  0.42837  1.0000
  Fe  Fe660     1.0  0.88073  0.88193  0.45743  1.0000
  S   S1325     1.0  0.86552  0.89318  0.46494  1.0000
  S   S1326     1.0  0.90708  0.86011  0.44930  1.0000
  S   S1327     1.0  0.88257  0.86389  0.46541  1.0000
  Fe  Fe661     1.0  0.89812  0.69417  0.46451  1.0000
  S   S1328     1.0  0.88283  0.69314  0.46073  1.0000
  S   S1329     1.0  0.95975  0.61727  0.48014  1.0000
  Fe  Fe662     1.0  0.91189  0.68863  0.44292  1.0000
  S   S1330     1.0  0.89761  0.68755  0.43740  1.0000
  S   S1331     1.0  0.92746  0.68412  0.43085  1.0000
  Fe  Fe663     1.0  0.88924  0.70278  0.44401  1.0000
  S   S1332     1.0  0.87846  0.71722  0.43518  1.0000
  Fe  Fe664     1.0  0.89283  0.67804  0.45465  1.0000
  S   S1333     1.0  0.88863  0.66135  0.45951  1.0000
  S   S1334     1.0  0.90398  0.70473  0.44801  1.0000
  S   S1335     1.0  0.90767  0.67820  0.45990  1.0000
  Fe  Fe665     1.0  0.87842  0.79014  0.46122  1.0000
  S   S1336     1.0  0.89477  0.78165  0.46466  1.0000
  S   S1337     1.0  0.87185  0.80553  0.46804  1.0000
  Fe  Fe666     1.0  0.87712  0.77058  0.45309  1.0000
  S   S1338     1.0  0.89335  0.76057  0.45618  1.0000
  S   S1339     1.0  0.86633  0.76407  0.44685  1.0000
  Fe  Fe667     1.0  0.88796  0.76660  0.47185  1.0000
  H   H3892     1.0  0.91309  0.72319  0.48533  1.0000
  Fe  Fe668     1.0  0.89848  0.77666  0.44862  1.0000
  S   S1340     1.0  0.91474  0.77774  0.43739  1.0000
  S   S1341     1.0  0.87123  0.77528  0.46954  1.0000
  S   S1342     1.0  0.88262  0.78644  0.44435  1.0000
  S   S1343     1.0  0.95096  0.90794  0.43265  1.0000
  S   S1344     1.0  0.95880  0.72907  0.44350  1.0000
  S   S1345     1.0  0.81667  0.98161  0.43542  1.0000
  S   S1346     1.0  0.98306  0.73673  0.44973  1.0000
  H   H3893     1.0  0.84141  0.89078  0.45609  1.0000
  C   C3877     1.0  0.97672  0.77005  0.44133  1.0000
  H   H3894     1.0  0.93588  0.89560  0.44971  1.0000
  C   C3878     1.0  0.90909  0.52086  0.32665  1.0000
  H   H3895     1.0  0.95266  0.51013  0.33154  1.0000
  C   C3879     1.0  0.91752  0.78999  0.43794  1.0000
  C   C3880     1.0  0.90916  0.79803  0.44238  1.0000
  Fe  Fe669     1.0  0.97347  0.69991  0.45694  1.0000
  C   C3881     1.0  0.92837  0.85883  0.41949  1.0000
  H   H3896     1.0  0.87163  0.49735  0.37873  1.0000
  C   C3882     1.0  0.92824  0.79137  0.43481  1.0000
  H   H3897     1.0  0.90080  0.79726  0.44437  1.0000
  H   H3898     1.0  0.85311  0.88147  0.42509  1.0000
  C   C3883     1.0  0.83847  0.89622  0.43537  1.0000
  Fe  Fe670     1.0  0.94365  0.81262  0.44580  1.0000
  C   C3884     1.0  0.96982  0.52160  0.25666  1.0000
  C   C3885     1.0  0.80410  0.95451  0.48451  1.0000
  C   C3886     1.0  0.90286  0.61502  0.48251  1.0000
  S   S1347     1.0  0.94652  0.49663  0.36727  1.0000
  C   C3887     1.0  0.92548  0.72246  0.41792  1.0000
  C   C3888     1.0  0.96441  0.91506  0.48617  1.0000
  C   C3889     1.0  0.98655  0.81432  0.48315  1.0000
  C   C3890     1.0  0.91237  0.64626  0.42251  1.0000
  S   S1348     1.0  0.79735  0.96297  0.45253  1.0000
  C   C3891     1.0  0.86946  0.50517  0.28807  1.0000
  C   C3892     1.0  0.95781  0.79912  0.48402  1.0000
  H   H3899     1.0  0.91705  0.66551  0.43781  1.0000
  C   C3893     1.0  0.90872  0.86551  0.48624  1.0000
  S   S1349     1.0  0.97480  0.80297  0.44383  1.0000
  H   H3900     1.0  0.89906  0.74261  0.42818  1.0000
  C   C3894     1.0  0.97986  0.56375  0.34328  1.0000
  C   C3895     1.0  0.97636  0.52011  0.26404  1.0000
  C   C3896     1.0  0.80996  0.97170  0.47995  1.0000
  H   H3901     1.0  0.90979  0.66059  0.40948  1.0000
  S   S1350     1.0  0.98138  0.70959  0.44088  1.0000
  C   C3897     1.0  0.87598  0.73029  0.43811  1.0000
  C   C3898     1.0  0.88208  0.73266  0.44414  1.0000
  C   C3899     1.0  0.87960  0.74322  0.44642  1.0000
  C   C3900     1.0  0.87083  0.75127  0.44298  1.0000
  C   C3901     1.0  0.86481  0.74882  0.43698  1.0000
  C   C3902     1.0  0.86747  0.73846  0.43443  1.0000
  H   H3902     1.0  0.88863  0.72638  0.44708  1.0000
  H   H3903     1.0  0.88421  0.74496  0.45120  1.0000
  H   H3904     1.0  0.85801  0.75497  0.43431  1.0000
  H   H3905     1.0  0.86273  0.73670  0.42976  1.0000
  Fe  Fe671     1.0  0.98328  0.55156  0.27830  1.0000
  C   C3903     1.0  0.95289  0.69860  0.41638  1.0000
  C   C3904     1.0  0.94515  0.69227  0.41863  1.0000
  C   C3905     1.0  0.93664  0.69257  0.42799  1.0000
  C   C3906     1.0  0.93579  0.69930  0.43507  1.0000
  H   H3906     1.0  0.96779  0.68513  0.43891  1.0000
  H   H3907     1.0  0.95948  0.69832  0.40915  1.0000
  H   H3908     1.0  0.94578  0.68707  0.41314  1.0000
  H   H3909     1.0  0.92922  0.69956  0.44232  1.0000
  H   H3910     1.0  0.89981  0.51566  0.39415  1.0000
  C   C3907     1.0  0.85738  0.90323  0.45647  1.0000
  C   C3908     1.0  0.84754  0.90950  0.46140  1.0000
  C   C3909     1.0  0.84049  0.91701  0.45492  1.0000
  C   C3910     1.0  0.84323  0.91827  0.44345  1.0000
  C   C3911     1.0  0.85317  0.91215  0.43852  1.0000
  C   C3912     1.0  0.86023  0.90466  0.44499  1.0000
  H   H3911     1.0  0.84527  0.90841  0.47028  1.0000
  H   H3912     1.0  0.83282  0.92162  0.45880  1.0000
  H   H3913     1.0  0.85539  0.91316  0.42965  1.0000
  H   H3914     1.0  0.86781  0.89993  0.44109  1.0000
  C   C3913     1.0  0.92530  0.89145  0.43030  1.0000
  C   C3914     1.0  0.93157  0.89700  0.42090  1.0000
  C   C3915     1.0  0.93929  0.90206  0.42183  1.0000
  H   H3915     1.0  0.94400  0.90643  0.41448  1.0000
  H   H3916     1.0  0.79294  0.98592  0.43999  1.0000
  C   C3916     1.0  0.92687  0.89087  0.44075  1.0000
  H   H3917     1.0  0.93040  0.89751  0.41282  1.0000
  C   C3917     1.0  0.97760  0.65740  0.45427  1.0000
  C   C3918     1.0  0.85420  0.87627  0.45561  1.0000
  H   H3918     1.0  0.92201  0.88662  0.44806  1.0000
  C   C3919     1.0  0.88349  0.83693  0.44811  1.0000
  C   C3920     1.0  0.87977  0.83532  0.45956  1.0000
  C   C3921     1.0  0.87626  0.82562  0.46562  1.0000
  C   C3922     1.0  0.87672  0.81738  0.46030  1.0000
  C   C3923     1.0  0.88085  0.81882  0.44893  1.0000
  C   C3924     1.0  0.88407  0.82864  0.44283  1.0000
  H   H3919     1.0  0.87929  0.84166  0.46370  1.0000
  H   H3920     1.0  0.83272  0.89317  0.43273  1.0000
  H   H3921     1.0  0.88123  0.81250  0.44477  1.0000
  H   H3922     1.0  0.88689  0.82983  0.43397  1.0000
  H   H3923     1.0  0.89123  0.89567  0.47765  1.0000
  H   H3924     1.0  0.92864  0.75802  0.48295  1.0000
  C   C3925     1.0  0.91243  0.88339  0.48398  1.0000
  H   H3925     1.0  0.94670  0.55104  0.29537  1.0000
  H   H3926     1.0  0.96609  0.66299  0.42093  1.0000
  C   C3926     1.0  0.96279  0.66705  0.42780  1.0000
  C   C3927     1.0  0.94417  0.86891  0.45432  1.0000
  C   C3928     1.0  0.96277  0.51457  0.37648  1.0000
  H   H3927     1.0  0.93285  0.71676  0.41501  1.0000
  C   C3929     1.0  0.93547  0.61617  0.41678  1.0000
  C   C3930     1.0  0.93858  0.62573  0.40990  1.0000
  C   C3931     1.0  0.94096  0.63323  0.41438  1.0000
  C   C3932     1.0  0.94059  0.63097  0.42568  1.0000
  C   C3933     1.0  0.93755  0.62137  0.43256  1.0000
  C   C3934     1.0  0.93476  0.61410  0.42815  1.0000
  H   H3928     1.0  0.93897  0.62743  0.40114  1.0000
  H   H3929     1.0  0.94321  0.64070  0.40907  1.0000
  H   H3930     1.0  0.93714  0.61966  0.44132  1.0000
  H   H3931     1.0  0.93226  0.60676  0.43350  1.0000
  C   C3935     1.0  0.88651  0.64564  0.43294  1.0000
  C   C3936     1.0  0.88957  0.63914  0.44265  1.0000
  C   C3937     1.0  0.89060  0.64407  0.45053  1.0000
  C   C3938     1.0  0.88842  0.65555  0.44886  1.0000
  C   C3939     1.0  0.88551  0.66210  0.43909  1.0000
  C   C3940     1.0  0.88449  0.65714  0.43117  1.0000
  H   H3932     1.0  0.89083  0.63030  0.44427  1.0000
  H   H3933     1.0  0.89286  0.63896  0.45805  1.0000
  H   H3934     1.0  0.88372  0.67098  0.43777  1.0000
  H   H3935     1.0  0.88210  0.66221  0.42367  1.0000
  C   C3941     1.0  0.95310  0.66498  0.43511  1.0000
  C   C3942     1.0  0.98452  0.58169  0.41222  1.0000
  C   C3943     1.0  0.90388  0.61236  0.46434  1.0000
  C   C3944     1.0  0.90021  0.60259  0.46916  1.0000
  H   H3936     1.0  0.92553  0.50852  0.39519  1.0000
  H   H3937     1.0  0.91624  0.68835  0.47998  1.0000
  C   C3945     1.0  0.97055  0.84286  0.44517  1.0000
  H   H3938     1.0  0.90561  0.61522  0.45551  1.0000
  H   H3939     1.0  0.97584  0.56738  0.35035  1.0000
  C   C3946     1.0  0.91542  0.72005  0.41907  1.0000
  H   H3940     1.0  0.86440  0.71764  0.45895  1.0000
  H   H3941     1.0  0.94742  0.54800  0.31483  1.0000
  C   C3947     1.0  0.96421  0.84608  0.46378  1.0000
  H   H3942     1.0  0.87868  0.74362  0.48005  1.0000
  C   C3948     1.0  0.96759  0.52250  0.23818  1.0000
  C   C3949     1.0  0.94349  0.53444  0.27269  1.0000
  C   C3950     1.0  0.95191  0.53938  0.27200  1.0000
  C   C3951     1.0  0.95660  0.53708  0.28106  1.0000
  C   C3952     1.0  0.95280  0.52990  0.29084  1.0000
  C   C3953     1.0  0.94437  0.52498  0.29154  1.0000
  C   C3954     1.0  0.93978  0.52718  0.28242  1.0000
  H   H3943     1.0  0.95485  0.54497  0.26446  1.0000
  H   H3944     1.0  0.96315  0.54088  0.28042  1.0000
  H   H3945     1.0  0.94142  0.51945  0.29910  1.0000
  H   H3946     1.0  0.93354  0.52305  0.28289  1.0000
  C   C3955     1.0  0.97496  0.85225  0.44185  1.0000
  H   H3947     1.0  0.87308  0.82453  0.47443  1.0000
  H   H3948     1.0  0.98053  0.82855  0.47136  1.0000
  H   H3949     1.0  0.96594  0.93928  0.47428  1.0000
  H   H3950     1.0  0.96269  0.63977  0.47334  1.0000
  N   N323      1.0  0.97837  0.94529  0.47706  1.0000
  C   C3956     1.0  0.95565  0.54450  0.35318  1.0000
  C   C3957     1.0  0.98294  0.81346  0.46619  1.0000
  C   C3958     1.0  0.89617  0.50513  0.27705  1.0000
  C   C3959     1.0  0.89296  0.51189  0.26750  1.0000
  C   C3960     1.0  0.89219  0.50718  0.25934  1.0000
  C   C3961     1.0  0.98489  0.59287  0.42440  1.0000
  C   C3962     1.0  0.97052  0.49740  0.30705  1.0000
  H   H3951     1.0  0.89105  0.52075  0.26640  1.0000
  H   H3952     1.0  0.88990  0.51241  0.25185  1.0000
  S   S1351     1.0  0.96606  0.91308  0.45253  1.0000
  C   C3963     1.0  0.98309  0.81964  0.47337  1.0000
  C   C3964     1.0  0.98338  0.91646  0.48063  1.0000
  C   C3965     1.0  0.92486  0.50204  0.26746  1.0000
  H   H3953     1.0  0.95067  0.51880  0.36160  1.0000
  H   H3954     1.0  0.96588  0.56955  0.33591  1.0000
  C   C3966     1.0  0.86084  0.87097  0.43807  1.0000
  C   C3967     1.0  0.91735  0.86144  0.41932  1.0000
  H   H3955     1.0  0.92747  0.49122  0.38396  1.0000
  H   H3956     1.0  0.94761  0.85372  0.43595  1.0000
  C   C3968     1.0  0.89786  0.57983  0.38178  1.0000
  C   C3969     1.0  0.89835  0.58998  0.38333  1.0000
  C   C3970     1.0  0.89582  0.59200  0.39402  1.0000
  C   C3971     1.0  0.89259  0.58393  0.40324  1.0000
  C   C3972     1.0  0.89188  0.57389  0.40165  1.0000
  C   C3973     1.0  0.89461  0.57181  0.39101  1.0000
  H   H3957     1.0  0.90074  0.59628  0.37623  1.0000
  H   H3958     1.0  0.89619  0.59984  0.39513  1.0000
  H   H3959     1.0  0.88926  0.56767  0.40872  1.0000
  H   H3960     1.0  0.89394  0.56408  0.38995  1.0000
  C   C3974     1.0  0.93776  0.54414  0.38422  1.0000
  C   C3975     1.0  0.93189  0.55471  0.38045  1.0000
  C   C3976     1.0  0.93545  0.56400  0.38022  1.0000
  C   C3977     1.0  0.94450  0.56279  0.38444  1.0000
  C   C3978     1.0  0.94984  0.55225  0.38910  1.0000
  C   C3979     1.0  0.94656  0.54291  0.38887  1.0000
  H   H3961     1.0  0.92461  0.55580  0.37764  1.0000
  H   H3962     1.0  0.93122  0.57211  0.37666  1.0000
  H   H3963     1.0  0.95654  0.55126  0.39284  1.0000
  H   H3964     1.0  0.95095  0.53477  0.39212  1.0000
  C   C3980     1.0  0.91636  0.54710  0.32237  1.0000
  C   C3981     1.0  0.92008  0.54337  0.31254  1.0000
  C   C3982     1.0  0.91370  0.54682  0.30463  1.0000
  C   C3983     1.0  0.90350  0.55397  0.30652  1.0000
  C   C3984     1.0  0.89981  0.55778  0.31634  1.0000
  C   C3985     1.0  0.90622  0.55435  0.32425  1.0000
  H   H3965     1.0  0.92802  0.53793  0.31092  1.0000
  H   H3966     1.0  0.91694  0.54431  0.29690  1.0000
  H   H3967     1.0  0.89201  0.56346  0.31778  1.0000
  H   H3968     1.0  0.90342  0.55751  0.33167  1.0000
  S   S1352     1.0  0.97525  0.88923  0.44503  1.0000
  H   H3969     1.0  0.96939  0.66545  0.46782  1.0000
  C   C3986     1.0  0.90586  0.72736  0.42271  1.0000
  C   C3987     1.0  0.92285  0.56872  0.29181  1.0000
  H   H3970     1.0  0.94456  0.50241  0.32113  1.0000
  C   C3988     1.0  0.87882  0.50077  0.37518  1.0000
  C   C3989     1.0  0.87851  0.51135  0.37607  1.0000
  C   C3990     1.0  0.88781  0.51575  0.37196  1.0000
  C   C3991     1.0  0.89744  0.50958  0.36656  1.0000
  C   C3992     1.0  0.89767  0.49899  0.36541  1.0000
  H   H3971     1.0  0.91094  0.64718  0.45565  1.0000
  H   H3972     1.0  0.87106  0.51602  0.38029  1.0000
  H   H3973     1.0  0.90477  0.51275  0.36363  1.0000
  C   C3993     1.0  0.86537  0.63997  0.45885  1.0000
  Fe  Fe672     1.0  0.82027  0.93979  0.44182  1.0000
  N   N324      1.0  0.92367  0.58087  0.40128  1.0000
  C   C3994     1.0  0.92765  0.57873  0.41053  1.0000
  C   C3995     1.0  0.91881  0.57354  0.39977  1.0000
  C   C3996     1.0  0.92689  0.56896  0.41850  1.0000
  C   C3997     1.0  0.91794  0.56368  0.40752  1.0000
  C   C3998     1.0  0.92199  0.56141  0.41696  1.0000
  C   C3999     1.0  0.92403  0.59137  0.39327  1.0000
  H   H3974     1.0  0.93127  0.58467  0.41185  1.0000
  H   H3975     1.0  0.91559  0.57525  0.39249  1.0000
  H   H3976     1.0  0.92989  0.56738  0.42591  1.0000
  H   H3977     1.0  0.91403  0.55796  0.40621  1.0000
  H   H3978     1.0  0.92121  0.55386  0.42312  1.0000
  H   H3979     1.0  0.93097  0.59470  0.39327  1.0000
  H   H3980     1.0  0.92515  0.59029  0.38477  1.0000
  H   H3981     1.0  0.91633  0.59745  0.39530  1.0000
  C   C4000     1.0  0.91352  0.66434  0.42303  1.0000
  H   H3982     1.0  0.95362  0.55226  0.34743  1.0000
  H   H3983     1.0  0.93646  0.84317  0.45199  1.0000
  C   C4001     1.0  0.97537  0.50146  0.31296  1.0000
  C   C4002     1.0  0.96257  0.63687  0.48203  1.0000
  H   H3984     1.0  0.95811  0.74926  0.45599  1.0000
  C   C4003     1.0  0.98006  0.75903  0.44664  1.0000
  C   C4004     1.0  0.96529  0.83972  0.45620  1.0000
  C   C4005     1.0  0.92518  0.49837  0.23965  1.0000
  C   C4006     1.0  0.90075  0.49025  0.39110  1.0000
  H   H3985     1.0  0.97559  0.49378  0.30023  1.0000
  C   C4007     1.0  0.96895  0.50598  0.32187  1.0000
  H   H3986     1.0  0.88689  0.49268  0.31113  1.0000
  H   H3987     1.0  0.98587  0.79718  0.46346  1.0000
  C   C4008     1.0  0.93194  0.74330  0.47693  1.0000
  H   H3988     1.0  0.97275  0.65127  0.45707  1.0000
  C   C4009     1.0  0.98354  0.58811  0.32385  1.0000
  H   H3989     1.0  0.81257  0.97859  0.47387  1.0000
  C   C4010     1.0  0.93155  0.50954  0.26456  1.0000
  S   S1353     1.0  0.96629  0.86386  0.46984  1.0000
  H   H3990     1.0  0.80794  0.96429  0.46803  1.0000
  C   C4011     1.0  0.91580  0.66006  0.43352  1.0000
  N   N325      1.0  0.87371  0.63425  0.47445  1.0000
  S   S1354     1.0  0.95164  0.79484  0.45032  1.0000
  H   H3991     1.0  0.98533  0.78130  0.48335  1.0000
  H   H3992     1.0  0.92146  0.63585  0.45122  1.0000
  H   H3993     1.0  0.90083  0.52638  0.31319  1.0000
  C   C4012     1.0  0.92287  0.49840  0.25917  1.0000
  H   H3994     1.0  0.97546  0.59251  0.32717  1.0000
  H   H3995     1.0  0.97880  0.93693  0.46491  1.0000
  H   H3996     1.0  0.98021  0.81750  0.45857  1.0000
  H   H3997     1.0  0.92710  0.60851  0.48089  1.0000
  C   C4013     1.0  0.98540  0.51662  0.24291  1.0000
  C   C4014     1.0  0.90209  0.80244  0.47279  1.0000
  C   C4015     1.0  0.97886  0.75044  0.44281  1.0000
  C   C4016     1.0  0.95777  0.50651  0.32471  1.0000
  H   H3998     1.0  0.97522  0.91216  0.47077  1.0000
  C   C4017     1.0  0.97782  0.67660  0.42110  1.0000
  H   H3999     1.0  0.93967  0.55813  0.32256  1.0000
  C   C4018     1.0  0.86886  0.49791  0.28220  1.0000
  H   H4000     1.0  0.91707  0.74626  0.42653  1.0000
  Fe  Fe673     1.0  0.97606  0.61190  0.44159  1.0000
  H   H4001     1.0  0.92041  0.49183  0.24310  1.0000
  C   C4019     1.0  0.89468  0.49573  0.26076  1.0000
  H   H4002     1.0  0.92537  0.74626  0.47261  1.0000
  C   C4020     1.0  0.87453  0.50108  0.29702  1.0000
  H   H4003     1.0  0.98408  0.50093  0.31073  1.0000
  N   N326      1.0  0.89159  0.53479  0.33732  1.0000
  C   C4021     1.0  0.90002  0.52908  0.34233  1.0000
  C   C4022     1.0  0.89186  0.53393  0.32694  1.0000
  C   C4023     1.0  0.90885  0.52198  0.33712  1.0000
  C   C4024     1.0  0.90057  0.52690  0.32148  1.0000
  C   C4025     1.0  0.95472  0.49252  0.30450  1.0000
  C   C4026     1.0  0.88256  0.54240  0.34282  1.0000
  H   H4004     1.0  0.89996  0.53009  0.35037  1.0000
  H   H4005     1.0  0.88545  0.53888  0.32272  1.0000
  S   S1355     1.0  0.98600  0.53323  0.28281  1.0000
  C   C4027     1.0  0.95320  0.50226  0.31870  1.0000
  H   H4006     1.0  0.97037  0.95069  0.46374  1.0000
  H   H4007     1.0  0.88438  0.55073  0.34042  1.0000
  H   H4008     1.0  0.87482  0.54293  0.34059  1.0000
  H   H4009     1.0  0.88122  0.53960  0.35197  1.0000
  H   H4010     1.0  0.83255  0.98205  0.46543  1.0000
  C   C4028     1.0  0.91852  0.64494  0.44946  1.0000
  S   S1356     1.0  0.98448  0.53303  0.40196  1.0000
  H   H4011     1.0  0.91366  0.87612  0.47055  1.0000
  C   C4029     1.0  0.94851  0.77051  0.46900  1.0000
  H   H4012     1.0  0.82693  0.97272  0.45418  1.0000
  H   H4013     1.0  0.93460  0.55765  0.28222  1.0000
  S   S1357     1.0  0.97410  0.62835  0.42975  1.0000
  Fe  Fe674     1.0  0.96447  0.62198  0.46162  1.0000
  H   H4014     1.0  0.84273  0.90164  0.42815  1.0000
  H   H4015     1.0  0.92792  0.62264  0.47677  1.0000
  H   H4016     1.0  0.95215  0.72097  0.48234  1.0000
  H   H4017     1.0  0.96533  0.55047  0.36021  1.0000
  H   H4018     1.0  0.94632  0.53624  0.34811  1.0000
  H   H4019     1.0  0.89800  0.72562  0.42355  1.0000
  H   H4020     1.0  0.95590  0.59413  0.43243  1.0000
  H   H4021     1.0  0.90512  0.49410  0.36152  1.0000
  H   H4022     1.0  0.91556  0.51754  0.34110  1.0000
  H   H4023     1.0  0.84112  0.96411  0.47757  1.0000
  C   C4030     1.0  0.92243  0.80787  0.44217  1.0000
  C   C4031     1.0  0.93662  0.73395  0.41980  1.0000
  H   H4024     1.0  0.91306  0.67302  0.41929  1.0000
  S   S1358     1.0  0.96471  0.79061  0.47483  1.0000
  H   H4025     1.0  0.86700  0.86208  0.45258  1.0000
  H   H4026     1.0  0.91718  0.51999  0.38766  1.0000
  S   S1359     1.0  0.95866  0.61479  0.45103  1.0000
  C   C4032     1.0  0.82888  0.98686  0.45858  1.0000
  C   C4033     1.0  0.96834  0.85566  0.46036  1.0000
  N   N327      1.0  0.94749  0.86559  0.44453  1.0000
  C   C4034     1.0  0.93897  0.77522  0.46511  1.0000
  S   S1360     1.0  0.97618  0.55318  0.37682  1.0000
  C   C4035     1.0  0.87829  0.72849  0.47642  1.0000
  C   C4036     1.0  0.93253  0.56098  0.28954  1.0000
  C   C4037     1.0  0.98555  0.58520  0.31373  1.0000
  C   C4038     1.0  0.91873  0.49390  0.38670  1.0000
  C   C4039     1.0  0.91465  0.64227  0.43301  1.0000
  H   H4027     1.0  0.91781  0.49249  0.26149  1.0000
  H   H4028     1.0  0.91447  0.89096  0.47865  1.0000
  H   H4029     1.0  0.94648  0.87601  0.45508  1.0000
  H   H4030     1.0  0.95999  0.84368  0.47226  1.0000
  C   C4040     1.0  0.90646  0.73688  0.42532  1.0000
  H   H4031     1.0  0.97124  0.51004  0.37379  1.0000
  H   H4032     1.0  0.96964  0.53282  0.37350  1.0000
  Fe  Fe675     1.0  0.95955  0.90195  0.44666  1.0000
  Fe  Fe676     1.0  0.96005  0.90339  0.46936  1.0000
  Fe  Fe677     1.0  0.79678  0.95274  0.44149  1.0000
  H   H4033     1.0  0.98532  0.73375  0.47289  1.0000
  S   S1361     1.0  0.96912  0.78624  0.42462  1.0000
  H   H4034     1.0  0.97263  0.50913  0.32652  1.0000
  C   C4041     1.0  0.95545  0.76115  0.46566  1.0000
  C   C4042     1.0  0.93386  0.50956  0.24543  1.0000
  H   H4035     1.0  0.93245  0.83098  0.42509  1.0000
  S   S1362     1.0  0.92573  0.81787  0.44659  1.0000
  C   C4043     1.0  0.86800  0.62909  0.45767  1.0000
  C   C4044     1.0  0.97867  0.55326  0.24423  1.0000
  H   H4036     1.0  0.91081  0.64079  0.41841  1.0000
  S   S1363     1.0  0.96247  0.71225  0.42115  1.0000
  C   C4045     1.0  0.93598  0.51342  0.25347  1.0000
  H   H4037     1.0  0.93356  0.78252  0.46763  1.0000
  C   C4046     1.0  0.86837  0.64243  0.46730  1.0000
  H   H4038     1.0  0.82662  0.93917  0.47538  1.0000
  C   C4047     1.0  0.97252  0.77252  0.43191  1.0000
  H   H4039     1.0  0.94322  0.72967  0.41388  1.0000
  C   C4048     1.0  0.98762  0.51702  0.26063  1.0000
  H   H4040     1.0  0.93898  0.80131  0.43449  1.0000
  H   H4041     1.0  0.95087  0.68146  0.45226  1.0000
  S   S1364     1.0  0.97531  0.89036  0.46977  1.0000
  C   C4049     1.0  0.94101  0.90145  0.43217  1.0000
  H   H4042     1.0  0.86688  0.65097  0.46777  1.0000
  H   H4043     1.0  0.85465  0.87507  0.46412  1.0000
  C   C4050     1.0  0.90370  0.82115  0.47139  1.0000
  C   C4051     1.0  0.87615  0.62355  0.47346  1.0000
  C   C4052     1.0  0.91667  0.73892  0.42430  1.0000
  H   H4044     1.0  0.97900  0.57787  0.42994  1.0000
  C   C4053     1.0  0.82085  0.98782  0.44348  1.0000
  H   H4045     1.0  0.93654  0.74289  0.41692  1.0000
  N   N328      1.0  0.84638  0.88695  0.44016  1.0000
  C   C4054     1.0  0.84674  0.88517  0.45099  1.0000
  C   C4055     1.0  0.98301  0.51420  0.39708  1.0000
  H   H4046     1.0  0.90532  0.83745  0.47089  1.0000
  H   H4047     1.0  0.93770  0.51231  0.23691  1.0000
  Fe  Fe678     1.0  0.97820  0.63469  0.44225  1.0000
  C   C4056     1.0  0.86121  0.86908  0.44911  1.0000
  C   C4057     1.0  0.82567  0.98159  0.45228  1.0000
  H   H4048     1.0  0.85228  0.72025  0.46963  1.0000
  C   C4058     1.0  0.82999  0.94253  0.48013  1.0000
  C   C4059     1.0  0.92016  0.57265  0.30144  1.0000
  C   C4060     1.0  0.87446  0.73960  0.47675  1.0000
  Fe  Fe679     1.0  0.98110  0.89962  0.45260  1.0000
  C   C4061     1.0  0.85334  0.88002  0.43369  1.0000
  H   H4049     1.0  0.92593  0.49515  0.36406  1.0000
  H   H4050     1.0  0.86639  0.86545  0.43297  1.0000
  Fe  Fe680     1.0  0.96117  0.80039  0.45858  1.0000
  H   H4051     1.0  0.87533  0.50684  0.30125  1.0000
  H   H4052     1.0  0.91504  0.71252  0.41721  1.0000
  C   C4062     1.0  0.89639  0.50057  0.39370  1.0000
  C   C4063     1.0  0.83408  0.95205  0.47512  1.0000
  H   H4053     1.0  0.95571  0.58625  0.39951  1.0000
  S   S1365     1.0  0.93661  0.72459  0.46924  1.0000
  H   H4054     1.0  0.95270  0.59998  0.39154  1.0000
  H   H4055     1.0  0.96669  0.59217  0.39021  1.0000
  S   S1366     1.0  0.89337  0.55687  0.24413  1.0000
  C   C4064     1.0  0.95874  0.59398  0.39606  1.0000
  H   H4056     1.0  0.96185  0.51637  0.38464  1.0000
  H   H4057     1.0  0.87574  0.61234  0.46406  1.0000
  H   H4058     1.0  0.89512  0.59145  0.48447  1.0000
  H   H4059     1.0  0.95050  0.77404  0.47466  1.0000
  H   H4060     1.0  0.87593  0.71489  0.47166  1.0000
  N   N329      1.0  0.92601  0.73181  0.42052  1.0000
  H   H4061     1.0  0.91724  0.57136  0.28632  1.0000
  C   C4065     1.0  0.97306  0.94299  0.46965  1.0000
  C   C4066     1.0  0.96379  0.67935  0.43787  1.0000
  N   N330      1.0  0.96000  0.59854  0.40468  1.0000
  H   H4062     1.0  0.96615  0.61187  0.39305  1.0000
  Fe  Fe681     1.0  0.95294  0.71796  0.45946  1.0000
  H   H4063     1.0  0.94028  0.61199  0.47716  1.0000
  H   H4064     1.0  0.96806  0.76580  0.42079  1.0000
  H   H4065     1.0  0.95397  0.58617  0.41798  1.0000
  S   S1367     1.0  0.82269  0.94948  0.45250  1.0000
  H   H4066     1.0  0.85306  0.74513  0.46480  1.0000
  C   C4067     1.0  0.87760  0.63712  0.48262  1.0000
  S   S1368     1.0  0.83402  0.92658  0.43517  1.0000
  H   H4067     1.0  0.94293  0.71078  0.43835  1.0000
  H   H4068     1.0  0.96786  0.62023  0.40734  1.0000
  C   C4068     1.0  0.96386  0.60796  0.40168  1.0000
  C   C4069     1.0  0.94319  0.49260  0.35702  1.0000
  H   H4069     1.0  0.95878  0.52476  0.24200  1.0000
  H   H4070     1.0  0.94245  0.84563  0.42160  1.0000
  H   H4071     1.0  0.96194  0.83248  0.45894  1.0000
  H   H4072     1.0  0.92922  0.77434  0.45471  1.0000
  H   H4073     1.0  0.93452  0.76231  0.44265  1.0000
  N   N331      1.0  0.96036  0.52484  0.36834  1.0000
  C   C4070     1.0  0.92817  0.83954  0.42341  1.0000
  N   N332      1.0  0.96796  0.67421  0.42921  1.0000
  H   H4074     1.0  0.91249  0.57840  0.30343  1.0000
  C   C4071     1.0  0.90528  0.61851  0.47100  1.0000
  Fe  Fe682     1.0  0.97458  0.72421  0.44884  1.0000
  C   C4072     1.0  0.86001  0.74032  0.46826  1.0000
  C   C4073     1.0  0.95718  0.59354  0.41557  1.0000
  N   N333      1.0  0.87901  0.49008  0.29993  1.0000
  H   H4075     1.0  0.91039  0.79964  0.46791  1.0000
  C   C4074     1.0  0.86523  0.74556  0.47269  1.0000
  H   H4076     1.0  0.96278  0.75733  0.46878  1.0000
  C   C4075     1.0  0.96461  0.53351  0.36785  1.0000
  Fe  Fe683     1.0  0.96469  0.82022  0.44036  1.0000
  H   H4077     1.0  0.86230  0.75427  0.47261  1.0000
  Fe  Fe684     1.0  0.95715  0.63160  0.44002  1.0000
  H   H4078     1.0  0.96107  0.52382  0.25937  1.0000
  C   C4076     1.0  0.95409  0.52566  0.36118  1.0000
  C   C4077     1.0  0.92162  0.51127  0.38803  1.0000
  C   C4078     1.0  0.93248  0.49213  0.35770  1.0000
  H   H4079     1.0  0.92811  0.51113  0.38035  1.0000
  N   N334      1.0  0.90206  0.81118  0.47792  1.0000
  S   S1369     1.0  0.80389  0.93670  0.45197  1.0000
  C   C4079     1.0  0.89797  0.59900  0.48069  1.0000
  C   C4080     1.0  0.97429  0.75291  0.43363  1.0000
  H   H4080     1.0  0.93543  0.86564  0.47131  1.0000
  S   S1370     1.0  0.97299  0.56408  0.31468  1.0000
  S   S1371     1.0  0.96833  0.71402  0.46536  1.0000
  S   S1372     1.0  0.96094  0.50003  0.25572  1.0000
  Fe  Fe685     1.0  0.96444  0.79867  0.43518  1.0000
  N   N335      1.0  0.91736  0.84220  0.42323  1.0000
  C   C4081     1.0  0.93067  0.80034  0.43688  1.0000
  C   C4082     1.0  0.89848  0.49369  0.27855  1.0000
  C   C4083     1.0  0.96487  0.61272  0.40970  1.0000
  N   N336      1.0  0.91436  0.50411  0.38899  1.0000
  C   C4084     1.0  0.93375  0.74995  0.48278  1.0000
  N   N337      1.0  0.97439  0.52011  0.24616  1.0000
  H   H4081     1.0  0.95970  0.48991  0.34753  1.0000
  C   C4085     1.0  0.94108  0.75665  0.44670  1.0000
  C   C4086     1.0  0.96224  0.54350  0.36033  1.0000
  H   H4082     1.0  0.97087  0.55902  0.24515  1.0000
  C   C4087     1.0  0.90334  0.50749  0.39250  1.0000
  C   C4088     1.0  0.97436  0.91440  0.47843  1.0000
  C   C4089     1.0  0.93505  0.85381  0.46269  1.0000
  H   H4083     1.0  0.92495  0.57163  0.31631  1.0000
  C   C4090     1.0  0.98214  0.67328  0.45698  1.0000
  C   C4091     1.0  0.91160  0.80700  0.44445  1.0000
  C   C4092     1.0  0.93934  0.55723  0.29702  1.0000
  H   H4084     1.0  0.90810  0.62607  0.46723  1.0000
  H   H4085     1.0  0.97816  0.51238  0.40538  1.0000
  C   C4093     1.0  0.95158  0.53551  0.35354  1.0000
  H   H4086     1.0  0.90463  0.83601  0.42140  1.0000
  H   H4087     1.0  0.90514  0.81303  0.44811  1.0000
  C   C4094     1.0  0.97380  0.85868  0.44939  1.0000
  C   C4095     1.0  0.91177  0.65738  0.41752  1.0000
  H   H4088     1.0  0.94794  0.87767  0.42958  1.0000
  C   C4096     1.0  0.93661  0.77059  0.45774  1.0000
  N   N338      1.0  0.91642  0.64914  0.43833  1.0000
  C   C4097     1.0  0.98594  0.65720  0.44474  1.0000
  C   C4098     1.0  0.80725  0.96361  0.47667  1.0000
  C   C4099     1.0  0.98254  0.58356  0.42286  1.0000
  C   C4100     1.0  0.92721  0.56874  0.30871  1.0000
  N   N339      1.0  0.95958  0.49772  0.31004  1.0000
  H   H4089     1.0  0.95777  0.87718  0.43710  1.0000
  C   C4101     1.0  0.94400  0.55700  0.31411  1.0000
  H   H4090     1.0  0.98264  0.57452  0.41112  1.0000
  C   C4102     1.0  0.93793  0.86306  0.46354  1.0000
  H   H4091     1.0  0.91679  0.82581  0.42343  1.0000
  H   H4092     1.0  0.90785  0.83156  0.43481  1.0000
  C   C4103     1.0  0.95357  0.87208  0.43478  1.0000
  C   C4104     1.0  0.93160  0.61443  0.48131  1.0000
  C   C4105     1.0  0.93386  0.84781  0.42150  1.0000
  C   C4106     1.0  0.97575  0.66539  0.46041  1.0000
  S   S1373     1.0  0.96101  0.63918  0.45155  1.0000
  H   H4093     1.0  0.86154  0.64652  0.45291  1.0000
  C   C4107     1.0  0.95815  0.59804  0.42379  1.0000
  C   C4108     1.0  0.88588  0.89768  0.48549  1.0000
  H   H4094     1.0  0.93257  0.86540  0.41811  1.0000
  H   H4095     1.0  0.86614  0.62714  0.45087  1.0000
  C   C4109     1.0  0.95278  0.75666  0.45839  1.0000
  C   C4110     1.0  0.91138  0.83346  0.42580  1.0000
  Fe  Fe686     1.0  0.96785  0.88146  0.46237  1.0000
  H   H4096     1.0  0.93843  0.74885  0.45119  1.0000
  S   S1374     1.0  0.95741  0.70288  0.45266  1.0000
  H   H4097     1.0  0.93875  0.73095  0.42801  1.0000
  H   H4098     1.0  0.88549  0.72376  0.47949  1.0000
  H   H4099     1.0  0.85447  0.73009  0.45657  1.0000
  H   H4100     1.0  0.92498  0.64848  0.45026  1.0000
  C   C4111     1.0  0.96196  0.60772  0.42081  1.0000
  H   H4101     1.0  0.95993  0.86664  0.42978  1.0000
  Fe  Fe687     1.0  0.80594  0.94734  0.46191  1.0000
  H   H4102     1.0  0.90487  0.82264  0.46251  1.0000
  S   S1375     1.0  0.98168  0.56027  0.26094  1.0000
  H   H4103     1.0  0.83363  0.90148  0.44132  1.0000
  H   H4104     1.0  0.98428  0.92471  0.44258  1.0000
  S   S1376     1.0  0.95179  0.81794  0.45579  1.0000
  C   C4112     1.0  0.94365  0.70551  0.43291  1.0000
  H   H4105     1.0  0.95076  0.56143  0.31115  1.0000
  S   S1377     1.0  0.97125  0.83569  0.43516  1.0000
  H   H4106     1.0  0.96466  0.69011  0.48362  1.0000
  H   H4107     1.0  0.97274  0.52129  0.27236  1.0000
  C   C4113     1.0  0.94883  0.67010  0.44402  1.0000
  H   H4108     1.0  0.94120  0.66873  0.44960  1.0000
  C   C4114     1.0  0.93877  0.73294  0.47654  1.0000
  C   C4115     1.0  0.83819  0.95657  0.48125  1.0000
  H   H4109     1.0  0.91597  0.51550  0.32245  1.0000
  H   H4110     1.0  0.97341  0.74633  0.43057  1.0000
  H   H4111     1.0  0.94840  0.75496  0.44003  1.0000
  H   H4112     1.0  0.96271  0.61129  0.42711  1.0000
  C   C4116     1.0  0.85846  0.72410  0.46305  1.0000
  C   C4117     1.0  0.87342  0.62081  0.46503  1.0000
  C   C4118     1.0  0.91193  0.85298  0.42129  1.0000
  H   H4113     1.0  0.90317  0.53423  0.24199  1.0000
  C   C4119     1.0  0.95229  0.70504  0.42365  1.0000
  N   N340      1.0  0.86397  0.72947  0.46777  1.0000
  Fe  Fe688     1.0  0.81389  0.96433  0.44208  1.0000
  H   H4114     1.0  0.96480  0.65207  0.48383  1.0000
  S   S1378     1.0  0.98238  0.59484  0.43788  1.0000
  N   N341      1.0  0.93661  0.56104  0.30649  1.0000
  H   H4115     1.0  0.89960  0.79520  0.47899  1.0000
  S   S1379     1.0  0.81295  0.95493  0.43038  1.0000
  C   C4120     1.0  0.93478  0.89585  0.44168  1.0000
  C   C4121     1.0  0.94474  0.85649  0.44363  1.0000
  N   N342      1.0  0.94358  0.76151  0.45437  1.0000
  Fe  Fe689     1.0  0.96481  0.71360  0.43712  1.0000
  S   S1380     1.0  0.95574  0.81625  0.42996  1.0000
  H   H4116     1.0  0.93472  0.78532  0.43113  1.0000
  H   H4117     1.0  0.91298  0.86998  0.41782  1.0000
  C   C4122     1.0  0.95422  0.67729  0.44547  1.0000
  H   H4118     1.0  0.90332  0.85510  0.42132  1.0000
  N   N343      1.0  0.92737  0.50215  0.24831  1.0000
  C   C4123     1.0  0.90610  0.76773  0.48533  1.0000
  H   H4119     1.0  0.97918  0.85467  0.43337  1.0000
  H   H4120     1.0  0.90888  0.73790  0.48308  1.0000
  C   C4124     1.0  0.97953  0.56070  0.32567  1.0000
  C   C4125     1.0  0.90397  0.82956  0.47607  1.0000
  H   H4121     1.0  0.98173  0.68176  0.42369  1.0000
  H   H4122     1.0  0.94134  0.51910  0.25115  1.0000
  S   S1381     1.0  0.97949  0.57845  0.37127  1.0000
  Fe  Fe690     1.0  0.97981  0.55321  0.30237  1.0000
  H   H4123     1.0  0.86640  0.51395  0.28547  1.0000
  H   H4124     1.0  0.83389  0.95600  0.46659  1.0000
  H   H4125     1.0  0.91821  0.77713  0.48234  1.0000
  H   H4126     1.0  0.86530  0.50101  0.27501  1.0000
  H   H4127     1.0  0.97770  0.77664  0.44432  1.0000
  H   H4128     1.0  0.95707  0.50919  0.37767  1.0000
  H   H4129     1.0  0.94378  0.80546  0.47677  1.0000
  H   H4130     1.0  0.92357  0.54513  0.24384  1.0000
  H   H4131     1.0  0.89628  0.80549  0.46724  1.0000
  S   S1382     1.0  0.98203  0.61785  0.45310  1.0000
  S   S1383     1.0  0.89354  0.70011  0.48021  1.0000
  C   C4126     1.0  0.93850  0.85046  0.45269  1.0000
  C   C4127     1.0  0.91181  0.87508  0.47940  1.0000
  H   H4132     1.0  0.97719  0.86593  0.44671  1.0000
  C   C4128     1.0  0.88837  0.49452  0.36992  1.0000
  S   S1384     1.0  0.90621  0.85593  0.48060  1.0000
  C   C4129     1.0  0.94723  0.72917  0.48217  1.0000
  S   S1385     1.0  0.95356  0.91108  0.48404  1.0000
  H   H4133     1.0  0.97906  0.58714  0.30937  1.0000
  H   H4134     1.0  0.93022  0.84920  0.46980  1.0000
  H   H4135     1.0  0.88523  0.64016  0.47858  1.0000
  C   C4130     1.0  0.98707  0.52384  0.39335  1.0000
  H   H4136     1.0  0.94691  0.49787  0.30271  1.0000
  H   H4137     1.0  0.98238  0.49930  0.39307  1.0000
  H   H4138     1.0  0.98110  0.58658  0.34535  1.0000
  H   H4139     1.0  0.98356  0.75719  0.45376  1.0000
  H   H4140     1.0  0.93534  0.88522  0.48341  1.0000
  S   S1386     1.0  0.98241  0.53493  0.30867  1.0000
  Fe  Fe691     1.0  0.98388  0.54989  0.39108  1.0000
  C   C4131     1.0  0.95661  0.49152  0.25027  1.0000
  C   C4132     1.0  0.96002  0.49156  0.23901  1.0000
  C   C4133     1.0  0.98531  0.50685  0.39011  1.0000
  C   C4134     1.0  0.98529  0.55158  0.25159  1.0000
  H   H4141     1.0  0.96016  0.49089  0.29655  1.0000
  H   H4142     1.0  0.98712  0.94352  0.43958  1.0000
  C   C4135     1.0  0.98625  0.80198  0.46894  1.0000
  H   H4143     1.0  0.91574  0.56388  0.23877  1.0000
  H   H4144     1.0  0.98388  0.66880  0.42009  1.0000
  Fe  Fe692     1.0  0.98700  0.57324  0.38606  1.0000
  C   C4136     1.0  0.95151  0.48905  0.34847  1.0000
  Fe  Fe693     1.0  0.97478  0.48917  0.26292  1.0000
  C   C4137     1.0  0.91342  0.69316  0.48625  1.0000
  H   H4145     1.0  0.98276  0.65780  0.48407  1.0000
  H   H4146     1.0  0.87144  0.64366  0.48637  1.0000
  Fe  Fe694     1.0  0.98570  0.48892  0.37027  1.0000
  Fe  Fe695     1.0  0.87803  0.54859  0.61034  1.0000
  S   S1387     1.0  0.87539  0.54021  0.59860  1.0000
  S   S1388     1.0  0.87056  0.54460  0.62851  1.0000
  Fe  Fe696     1.0  0.89357  0.56095  0.59252  1.0000
  S   S1389     1.0  0.89271  0.55350  0.57924  1.0000
  S   S1390     1.0  0.90363  0.57340  0.58925  1.0000
  Fe  Fe697     1.0  0.87486  0.55669  0.58676  1.0000
  S   S1391     1.0  0.86246  0.56325  0.57626  1.0000
  Fe  Fe698     1.0  0.89342  0.53769  0.59207  1.0000
  S   S1392     1.0  0.90432  0.52164  0.58856  1.0000
  S   S1393     1.0  0.87560  0.56536  0.59917  1.0000
  S   S1394     1.0  0.89612  0.54480  0.60473  1.0000
  Fe  Fe699     1.0  0.95256  0.55116  0.61493  1.0000
  S   S1395     1.0  0.94152  0.54299  0.61135  1.0000
  S   S1396     1.0  0.93670  0.54754  0.72320  1.0000
  Fe  Fe700     1.0  0.89208  0.54828  0.67626  1.0000
  S   S1397     1.0  0.89756  0.53000  0.68131  1.0000
  S   S1398     1.0  0.89504  0.55618  0.65813  1.0000
  Fe  Fe701     1.0  0.88552  0.55098  0.70018  1.0000
  S   S1399     1.0  0.89030  0.53291  0.70710  1.0000
  S   S1400     1.0  0.87784  0.56352  0.71071  1.0000
  Fe  Fe702     1.0  0.90486  0.53370  0.69304  1.0000
  S   S1401     1.0  0.92208  0.52595  0.69380  1.0000
  Fe  Fe703     1.0  0.88237  0.53114  0.69461  1.0000
  S   S1402     1.0  0.87109  0.51956  0.69964  1.0000
  S   S1403     1.0  0.90076  0.55195  0.68702  1.0000
  S   S1404     1.0  0.87624  0.54923  0.68877  1.0000
  Fe  Fe704     1.0  0.88032  0.61145  0.52876  1.0000
  S   S1405     1.0  0.88420  0.61961  0.53989  1.0000
  S   S1406     1.0  0.86667  0.60248  0.53440  1.0000
  Fe  Fe705     1.0  0.89700  0.61982  0.50872  1.0000
  S   S1407     1.0  0.90259  0.62828  0.51831  1.0000
  N   N344      1.0  0.93996  0.77784  0.51225  1.0000
  Fe  Fe706     1.0  0.90143  0.61309  0.53170  1.0000
  S   S1408     1.0  0.91465  0.60526  0.54104  1.0000
  Fe  Fe707     1.0  0.88493  0.63407  0.52548  1.0000
  S   S1409     1.0  0.87813  0.65223  0.52468  1.0000
  S   S1410     1.0  0.89757  0.60393  0.52146  1.0000
  S   S1411     1.0  0.87935  0.62656  0.51501  1.0000
  C   C4138     1.0  0.88583  0.76254  0.56369  1.0000
  H   H4147     1.0  0.87754  0.75133  0.56176  1.0000
  Fe  Fe708     1.0  0.91773  0.88426  0.53788  1.0000
  S   S1412     1.0  0.91602  0.87336  0.52808  1.0000
  S   S1413     1.0  0.93468  0.88033  0.54070  1.0000
  Fe  Fe709     1.0  0.89393  0.89611  0.54032  1.0000
  S   S1414     1.0  0.89022  0.88616  0.53072  1.0000
  S   S1415     1.0  0.88106  0.90929  0.54768  1.0000
  Fe  Fe710     1.0  0.90034  0.87175  0.54033  1.0000
  S   S1416     1.0  0.89630  0.85518  0.54882  1.0000
  Fe  Fe711     1.0  0.90622  0.88865  0.51942  1.0000
  C   C4139     1.0  0.97419  0.77838  0.54274  1.0000
  S   S1417     1.0  0.90280  0.88147  0.55095  1.0000
  S   S1418     1.0  0.90916  0.89983  0.52816  1.0000
  H   H4148     1.0  0.91966  0.84112  0.50880  1.0000
  S   S1419     1.0  0.95752  0.91742  0.54037  1.0000
  C   C4140     1.0  0.89399  0.73396  0.55860  1.0000
  Fe  Fe712     1.0  0.89539  0.69142  0.54644  1.0000
  S   S1420     1.0  0.91321  0.69086  0.54324  1.0000
  S   S1421     1.0  0.89055  0.67530  0.55509  1.0000
  C   C4141     1.0  0.87855  0.51487  0.67897  1.0000
  H   H4149     1.0  0.88150  0.55159  0.56295  1.0000
  H   H4150     1.0  0.89659  0.92639  0.53370  1.0000
  C   C4142     1.0  0.88154  0.54429  0.56040  1.0000
  C   C4143     1.0  0.90514  0.75590  0.56243  1.0000
  Fe  Fe713     1.0  0.90791  0.70683  0.54870  1.0000
  S   S1422     1.0  0.91479  0.70929  0.56163  1.0000
  N   N345      1.0  0.94083  0.88722  0.50668  1.0000
  S   S1423     1.0  0.89018  0.70664  0.55330  1.0000
  Fe  Fe714     1.0  0.90679  0.78755  0.54190  1.0000
  S   S1424     1.0  0.88918  0.79623  0.54549  1.0000
  S   S1425     1.0  0.91592  0.78083  0.55549  1.0000
  C   C4144     1.0  0.96035  0.55525  0.66054  1.0000
  H   H4151     1.0  0.89201  0.76060  0.53329  1.0000
  H   H4152     1.0  0.95078  0.77988  0.49656  1.0000
  Fe  Fe715     1.0  0.89343  0.80697  0.52862  1.0000
  S   S1426     1.0  0.88856  0.82524  0.52201  1.0000
  Fe  Fe716     1.0  0.88692  0.78462  0.53668  1.0000
  S   S1427     1.0  0.87281  0.77623  0.54241  1.0000
  S   S1428     1.0  0.91126  0.79916  0.52569  1.0000
  S   S1429     1.0  0.90416  0.77514  0.53442  1.0000
  C   C4145     1.0  0.97090  0.55706  0.65618  1.0000
  Fe  Fe717     1.0  0.83731  0.95401  0.52149  1.0000
  S   S1430     1.0  0.82094  0.95469  0.51895  1.0000
  S   S1431     1.0  0.85116  0.94064  0.51574  1.0000
  H   H4153     1.0  0.91163  0.73953  0.55969  1.0000
  Fe  Fe718     1.0  0.81410  0.96168  0.53404  1.0000
  H   H4154     1.0  0.90487  0.56344  0.71467  1.0000
  S   S1432     1.0  0.83052  0.95923  0.53773  1.0000
  H   H4155     1.0  0.90683  0.51843  0.55761  1.0000
  S   S1433     1.0  0.81366  0.97912  0.52486  1.0000
  H   H4156     1.0  0.86994  0.75823  0.51513  1.0000
  Fe  Fe719     1.0  0.89038  0.71589  0.53581  1.0000
  C   C4146     1.0  0.92413  0.78915  0.55609  1.0000
  C   C4147     1.0  0.92763  0.78751  0.56579  1.0000
  C   C4148     1.0  0.93448  0.79387  0.56629  1.0000
  C   C4149     1.0  0.93798  0.80173  0.55703  1.0000
  C   C4150     1.0  0.93443  0.80339  0.54735  1.0000
  C   C4151     1.0  0.92750  0.79712  0.54689  1.0000
  H   H4157     1.0  0.92503  0.78135  0.57295  1.0000
  H   H4158     1.0  0.93720  0.79257  0.57380  1.0000
  H   H4159     1.0  0.93693  0.80960  0.54022  1.0000
  H   H4160     1.0  0.92494  0.79834  0.53935  1.0000
  N   N346      1.0  0.89966  0.66969  0.51057  1.0000
  C   C4152     1.0  0.86645  0.74858  0.53966  1.0000
  C   C4153     1.0  0.86552  0.75867  0.54215  1.0000
  C   C4154     1.0  0.87466  0.76318  0.53969  1.0000
  C   C4155     1.0  0.88489  0.75724  0.53517  1.0000
  C   C4156     1.0  0.98686  0.52359  0.67143  1.0000
  H   H4161     1.0  0.85926  0.74533  0.54127  1.0000
  H   H4162     1.0  0.85761  0.76313  0.54576  1.0000
  Fe  Fe720     1.0  0.97555  0.91219  0.53376  1.0000
  C   C4157     1.0  0.92574  0.72431  0.54639  1.0000
  C   C4158     1.0  0.89129  0.53670  0.55781  1.0000
  H   H4163     1.0  0.86439  0.53141  0.55604  1.0000
  C   C4159     1.0  0.88184  0.52566  0.55375  1.0000
  C   C4160     1.0  0.92371  0.71828  0.55727  1.0000
  C   C4161     1.0  0.92859  0.71967  0.56496  1.0000
  C   C4162     1.0  0.93577  0.72681  0.56169  1.0000
  C   C4163     1.0  0.93107  0.57624  0.57224  1.0000
  C   C4164     1.0  0.96367  0.78081  0.54913  1.0000
  H   H4164     1.0  0.92695  0.71511  0.57342  1.0000
  H   H4165     1.0  0.93976  0.72762  0.56759  1.0000
  C   C4165     1.0  0.87209  0.91720  0.53914  1.0000
  C   C4166     1.0  0.87445  0.91654  0.52809  1.0000
  C   C4167     1.0  0.86776  0.92358  0.52108  1.0000
  C   C4168     1.0  0.85868  0.93131  0.52507  1.0000
  C   C4169     1.0  0.85615  0.93181  0.53617  1.0000
  C   C4170     1.0  0.86287  0.92476  0.54320  1.0000
  H   H4166     1.0  0.88161  0.91082  0.52488  1.0000
  H   H4167     1.0  0.86976  0.92320  0.51248  1.0000
  H   H4168     1.0  0.84910  0.93769  0.53932  1.0000
  H   H4169     1.0  0.86101  0.92524  0.55176  1.0000
  C   C4171     1.0  0.94057  0.89108  0.54033  1.0000
  C   C4172     1.0  0.93444  0.90170  0.54100  1.0000
  C   C4173     1.0  0.93960  0.90986  0.54107  1.0000
  C   C4174     1.0  0.95087  0.90738  0.54041  1.0000
  C   C4175     1.0  0.95689  0.89676  0.53973  1.0000
  C   C4176     1.0  0.95178  0.88873  0.53955  1.0000
  H   H4170     1.0  0.92574  0.90358  0.54164  1.0000
  H   H4171     1.0  0.93490  0.91807  0.54164  1.0000
  H   H4172     1.0  0.96548  0.89466  0.53961  1.0000
  H   H4173     1.0  0.95653  0.88057  0.53901  1.0000
  C   C4177     1.0  0.89317  0.84740  0.54146  1.0000
  C   C4178     1.0  0.89151  0.83679  0.54679  1.0000
  C   C4179     1.0  0.88996  0.82995  0.54092  1.0000
  C   C4180     1.0  0.88986  0.83380  0.52973  1.0000
  C   C4181     1.0  0.89118  0.84453  0.52447  1.0000
  C   C4182     1.0  0.89293  0.85131  0.53029  1.0000
  H   H4174     1.0  0.89163  0.83376  0.55545  1.0000
  H   H4175     1.0  0.88887  0.82171  0.54505  1.0000
  H   H4176     1.0  0.93456  0.81860  0.48899  1.0000
  H   H4177     1.0  0.89432  0.85944  0.52613  1.0000
  H   H4178     1.0  0.90570  0.87123  0.51116  1.0000
  H   H4179     1.0  0.96059  0.58284  0.66416  1.0000
  C   C4183     1.0  0.88833  0.51469  0.61716  1.0000
  C   C4184     1.0  0.92796  0.61419  0.54716  1.0000
  H   H4180     1.0  0.98729  0.63274  0.49876  1.0000
  S   S1434     1.0  0.97507  0.72939  0.52600  1.0000
  C   C4185     1.0  0.94227  0.74624  0.48830  1.0000
  C   C4186     1.0  0.91758  0.57135  0.72831  1.0000
  H   H4181     1.0  0.89879  0.53814  0.55853  1.0000
  S   S1435     1.0  0.94934  0.56560  0.62248  1.0000
  H   H4182     1.0  0.88340  0.52089  0.67696  1.0000
  C   C4187     1.0  0.88096  0.65847  0.53369  1.0000
  C   C4188     1.0  0.88535  0.65221  0.54275  1.0000
  C   C4189     1.0  0.88792  0.65748  0.54951  1.0000
  C   C4190     1.0  0.88650  0.66896  0.54699  1.0000
  C   C4191     1.0  0.88196  0.67522  0.53802  1.0000
  C   C4192     1.0  0.87905  0.66999  0.53149  1.0000
  H   H4183     1.0  0.88668  0.64333  0.54460  1.0000
  H   H4184     1.0  0.89119  0.65264  0.55661  1.0000
  H   H4185     1.0  0.88048  0.68409  0.53624  1.0000
  H   H4186     1.0  0.87545  0.67488  0.52461  1.0000
  C   C4193     1.0  0.87151  0.51294  0.68933  1.0000
  C   C4194     1.0  0.95684  0.49359  0.63323  1.0000
  H   H4187     1.0  0.79462  0.97645  0.51748  1.0000
  C   C4195     1.0  0.90436  0.74598  0.56073  1.0000
  H   H4188     1.0  0.89490  0.72735  0.56613  1.0000
  H   H4189     1.0  0.93524  0.89911  0.49314  1.0000
  H   H4190     1.0  0.93717  0.62927  0.48790  1.0000
  C   C4196     1.0  0.96774  0.59239  0.58982  1.0000
  C   C4197     1.0  0.97097  0.86910  0.52363  1.0000
  C   C4198     1.0  0.97022  0.52331  0.65240  1.0000
  H   H4191     1.0  0.80035  0.94852  0.52871  1.0000
  C   C4199     1.0  0.83849  0.95133  0.49218  1.0000
  N   N347      1.0  0.89133  0.52750  0.55457  1.0000
  H   H4192     1.0  0.88616  0.73443  0.55657  1.0000
  C   C4200     1.0  0.87879  0.51479  0.62545  1.0000
  N   N348      1.0  0.95220  0.50914  0.61877  1.0000
  H   H4193     1.0  0.90281  0.83408  0.49126  1.0000
  H   H4194     1.0  0.93741  0.49585  0.66607  1.0000
  C   C4201     1.0  0.93210  0.54316  0.71409  1.0000
  C   C4202     1.0  0.93889  0.54138  0.70398  1.0000
  C   C4203     1.0  0.93568  0.53638  0.69749  1.0000
  C   C4204     1.0  0.92553  0.53354  0.70097  1.0000
  C   C4205     1.0  0.91836  0.53623  0.71058  1.0000
  C   C4206     1.0  0.92172  0.54087  0.71725  1.0000
  H   H4195     1.0  0.94672  0.54352  0.70132  1.0000
  H   H4196     1.0  0.94108  0.53453  0.68990  1.0000
  H   H4197     1.0  0.91046  0.53416  0.71321  1.0000
  H   H4198     1.0  0.91641  0.54233  0.72502  1.0000
  C   C4207     1.0  0.86472  0.57343  0.56410  1.0000
  C   C4208     1.0  0.87413  0.57775  0.56048  1.0000
  C   C4209     1.0  0.87509  0.58651  0.55112  1.0000
  C   C4210     1.0  0.86663  0.59086  0.54542  1.0000
  C   C4211     1.0  0.85747  0.58624  0.54888  1.0000
  C   C4212     1.0  0.85652  0.57759  0.55816  1.0000
  H   H4199     1.0  0.88054  0.57452  0.56500  1.0000
  H   H4200     1.0  0.88222  0.59002  0.54844  1.0000
  H   H4201     1.0  0.85094  0.58954  0.54450  1.0000
  H   H4202     1.0  0.84925  0.57428  0.56087  1.0000
  C   C4213     1.0  0.91511  0.56559  0.59425  1.0000
  C   C4214     1.0  0.92048  0.57007  0.59929  1.0000
  C   C4215     1.0  0.92900  0.56325  0.60423  1.0000
  C   C4216     1.0  0.93193  0.55200  0.60422  1.0000
  C   C4217     1.0  0.92687  0.54770  0.59876  1.0000
  C   C4218     1.0  0.91860  0.55454  0.59362  1.0000
  H   H4203     1.0  0.91781  0.57866  0.59971  1.0000
  H   H4204     1.0  0.93296  0.56658  0.60842  1.0000
  H   H4205     1.0  0.92923  0.53904  0.59862  1.0000
  H   H4206     1.0  0.91477  0.55118  0.58932  1.0000
  C   C4219     1.0  0.89887  0.51376  0.58336  1.0000
  C   C4220     1.0  0.88806  0.51693  0.58228  1.0000
  C   C4221     1.0  0.88405  0.51074  0.57763  1.0000
  H   H4207     1.0  0.96170  0.70456  0.49405  1.0000
  C   C4222     1.0  0.90560  0.50429  0.57993  1.0000
  H   H4208     1.0  0.88281  0.52424  0.58486  1.0000
  H   H4209     1.0  0.87570  0.51329  0.57671  1.0000
  H   H4210     1.0  0.91401  0.50197  0.58056  1.0000
  C   C4223     1.0  0.87731  0.54787  0.63676  1.0000
  C   C4224     1.0  0.87474  0.54416  0.64826  1.0000
  C   C4225     1.0  0.88016  0.54661  0.65492  1.0000
  C   C4226     1.0  0.88807  0.55293  0.65009  1.0000
  C   C4227     1.0  0.89065  0.55660  0.63860  1.0000
  C   C4228     1.0  0.88534  0.55402  0.63195  1.0000
  H   H4211     1.0  0.86850  0.53944  0.65204  1.0000
  H   H4212     1.0  0.87811  0.54376  0.66379  1.0000
  H   H4213     1.0  0.89672  0.56151  0.63483  1.0000
  H   H4214     1.0  0.88732  0.55701  0.62310  1.0000
  C   C4229     1.0  0.98448  0.52028  0.60789  1.0000
  C   C4230     1.0  0.88203  0.88650  0.50432  1.0000
  C   C4231     1.0  0.94355  0.87628  0.51147  1.0000
  C   C4232     1.0  0.87901  0.87715  0.51183  1.0000
  H   H4215     1.0  0.80737  0.97040  0.55807  1.0000
  C   C4233     1.0  0.87697  0.86908  0.50795  1.0000
  C   C4234     1.0  0.97141  0.88388  0.49694  1.0000
  H   H4216     1.0  0.85992  0.77572  0.52532  1.0000
  C   C4235     1.0  0.90945  0.65396  0.52158  1.0000
  H   H4217     1.0  0.87833  0.87612  0.52059  1.0000
  H   H4218     1.0  0.93374  0.60640  0.54700  1.0000
  H   H4219     1.0  0.87468  0.86177  0.51369  1.0000
  H   H4220     1.0  0.90466  0.51742  0.61247  1.0000
  H   H4221     1.0  0.93832  0.77679  0.49659  1.0000
  H   H4222     1.0  0.94902  0.60499  0.56547  1.0000
  C   C4236     1.0  0.97383  0.87290  0.49617  1.0000
  H   H4223     1.0  0.97170  0.59515  0.62027  1.0000
  S   S1436     1.0  0.96967  0.49031  0.66997  1.0000
  H   H4224     1.0  0.94122  0.51154  0.70706  1.0000
  C   C4237     1.0  0.97283  0.67523  0.52764  1.0000
  C   C4238     1.0  0.94242  0.81331  0.48984  1.0000
  H   H4225     1.0  0.91294  0.75716  0.56258  1.0000
  C   C4239     1.0  0.90990  0.56938  0.71386  1.0000
  S   S1437     1.0  0.96122  0.53975  0.62760  1.0000
  H   H4226     1.0  0.86484  0.51022  0.64501  1.0000
  C   C4240     1.0  0.87193  0.53302  0.55644  1.0000
  H   H4227     1.0  0.85722  0.95767  0.52400  1.0000
  H   H4228     1.0  0.92208  0.84807  0.53843  1.0000
  C   C4241     1.0  0.94857  0.58196  0.64446  1.0000
  C   C4242     1.0  0.89085  0.50142  0.57396  1.0000
  H   H4229     1.0  0.90076  0.65310  0.51016  1.0000
  H   H4230     1.0  0.86020  0.49404  0.68542  1.0000
  H   H4231     1.0  0.97339  0.50285  0.70146  1.0000
  C   C4243     1.0  0.89564  0.50088  0.71087  1.0000
  C   C4244     1.0  0.89536  0.49352  0.69613  1.0000
  H   H4232     1.0  0.90697  0.49105  0.57224  1.0000
  C   C4245     1.0  0.96349  0.51000  0.63011  1.0000
  N   N349      1.0  0.87052  0.59621  0.57616  1.0000
  C   C4246     1.0  0.87069  0.60475  0.56710  1.0000
  C   C4247     1.0  0.86171  0.59143  0.58032  1.0000
  C   C4248     1.0  0.86182  0.60877  0.56201  1.0000
  C   C4249     1.0  0.85272  0.59524  0.57543  1.0000
  C   C4250     1.0  0.85281  0.60395  0.56620  1.0000
  C   C4251     1.0  0.88014  0.59161  0.58099  1.0000
  H   H4233     1.0  0.87779  0.60832  0.56359  1.0000
  H   H4234     1.0  0.86173  0.58438  0.58722  1.0000
  H   H4235     1.0  0.86210  0.61528  0.55459  1.0000
  H   H4236     1.0  0.84595  0.59114  0.57851  1.0000
  H   H4237     1.0  0.84610  0.60670  0.56203  1.0000
  H   H4238     1.0  0.87775  0.58939  0.59014  1.0000
  H   H4239     1.0  0.88497  0.58408  0.57797  1.0000
  H   H4240     1.0  0.88550  0.59753  0.57880  1.0000
  H   H4241     1.0  0.95811  0.67285  0.49318  1.0000
  C   C4252     1.0  0.90160  0.49810  0.57527  1.0000
  S   S1438     1.0  0.90384  0.49241  0.66092  1.0000
  C   C4253     1.0  0.89740  0.76372  0.49292  1.0000
  N   N350      1.0  0.91586  0.53481  0.65158  1.0000
  C   C4254     1.0  0.92096  0.53544  0.65920  1.0000
  C   C4255     1.0  0.91695  0.54177  0.64140  1.0000
  C   C4256     1.0  0.92757  0.54301  0.65658  1.0000
  C   C4257     1.0  0.92351  0.54941  0.63850  1.0000
  C   C4258     1.0  0.92882  0.55003  0.64616  1.0000
  C   C4259     1.0  0.90895  0.52683  0.65441  1.0000
  H   H4242     1.0  0.92021  0.52989  0.66726  1.0000
  H   H4243     1.0  0.91277  0.54141  0.63543  1.0000
  H   H4244     1.0  0.93179  0.54330  0.66255  1.0000
  H   H4245     1.0  0.92447  0.55479  0.63035  1.0000
  H   H4246     1.0  0.93392  0.55593  0.64405  1.0000
  H   H4247     1.0  0.90039  0.53078  0.65762  1.0000
  H   H4248     1.0  0.90933  0.52382  0.64706  1.0000
  H   H4249     1.0  0.91170  0.51950  0.66069  1.0000
  H   H4250     1.0  0.94729  0.50864  0.60464  1.0000
  H   H4251     1.0  0.92431  0.60037  0.49978  1.0000
  H   H4252     1.0  0.86606  0.52110  0.72183  1.0000
  H   H4253     1.0  0.89632  0.77200  0.56512  1.0000
  C   C4260     1.0  0.88688  0.52001  0.63689  1.0000
  S   S1439     1.0  0.97024  0.49978  0.59428  1.0000
  H   H4254     1.0  0.86180  0.52515  0.64077  1.0000
  S   S1440     1.0  0.98631  0.92420  0.52461  1.0000
  N   N351      1.0  0.87820  0.51733  0.63519  1.0000
  S   S1441     1.0  0.97548  0.55801  0.62346  1.0000
  C   C4261     1.0  0.94365  0.78295  0.51793  1.0000
  Fe  Fe721     1.0  0.95440  0.54786  0.71782  1.0000
  C   C4262     1.0  0.93278  0.51516  0.73298  1.0000
  C   C4263     1.0  0.86795  0.51777  0.64354  1.0000
  S   S1442     1.0  0.97469  0.70622  0.51035  1.0000
  C   C4264     1.0  0.91683  0.82871  0.52365  1.0000
  H   H4255     1.0  0.91325  0.66560  0.55779  1.0000
  H   H4256     1.0  0.94688  0.85094  0.55640  1.0000
  C   C4265     1.0  0.94226  0.77956  0.52939  1.0000
  N   N352      1.0  0.86649  0.77543  0.50833  1.0000
  H   H4257     1.0  0.95128  0.85892  0.54274  1.0000
  C   C4266     1.0  0.87414  0.94592  0.54087  1.0000
  C   C4267     1.0  0.95389  0.85407  0.55049  1.0000
  H   H4258     1.0  0.87162  0.80424  0.50508  1.0000
  H   H4259     1.0  0.98547  0.84266  0.52612  1.0000
  H   H4260     1.0  0.96039  0.84683  0.54851  1.0000
  C   C4268     1.0  0.97150  0.55958  0.67393  1.0000
  C   C4269     1.0  0.89581  0.76423  0.56389  1.0000
  C   C4270     1.0  0.91784  0.61576  0.54471  1.0000
  C   C4271     1.0  0.92256  0.67870  0.56710  1.0000
  C   C4272     1.0  0.93811  0.73254  0.55072  1.0000
  H   H4261     1.0  0.90061  0.73156  0.55161  1.0000
  C   C4273     1.0  0.94274  0.60330  0.57318  1.0000
  H   H4262     1.0  0.97304  0.77064  0.51207  1.0000
  N   N353      1.0  0.95771  0.86108  0.55506  1.0000
  C   C4274     1.0  0.96857  0.86102  0.55269  1.0000
  N   N354      1.0  0.92301  0.66803  0.56706  1.0000
  S   S1443     1.0  0.90454  0.62308  0.49050  1.0000
  N   N355      1.0  0.89457  0.74445  0.56038  1.0000
  C   C4275     1.0  0.87091  0.56891  0.73056  1.0000
  C   C4276     1.0  0.92473  0.58689  0.57021  1.0000
  H   H4263     1.0  0.86900  0.51824  0.65159  1.0000
  C   C4277     1.0  0.97130  0.58584  0.58201  1.0000
  H   H4264     1.0  0.94652  0.60145  0.58035  1.0000
  H   H4265     1.0  0.94730  0.55403  0.67504  1.0000
  C   C4278     1.0  0.94107  0.57450  0.57496  1.0000
  C   C4279     1.0  0.95028  0.86833  0.56088  1.0000
  H   H4266     1.0  0.92808  0.56933  0.57198  1.0000
  H   H4267     1.0  0.94592  0.56620  0.57685  1.0000
  C   C4280     1.0  0.96033  0.68901  0.49219  1.0000
  C   C4281     1.0  0.97241  0.92035  0.49811  1.0000
  C   C4282     1.0  0.87181  0.54240  0.55978  1.0000
  H   H4268     1.0  0.86419  0.54820  0.56195  1.0000
  H   H4269     1.0  0.87643  0.86419  0.49355  1.0000
  H   H4270     1.0  0.94162  0.86871  0.56234  1.0000
  H   H4271     1.0  0.97023  0.79384  0.49340  1.0000
  C   C4283     1.0  0.86535  0.49983  0.68362  1.0000
  N   N356      1.0  0.90864  0.57182  0.72460  1.0000
  C   C4284     1.0  0.79182  0.95199  0.53144  1.0000
  S   S1444     1.0  0.90776  0.71726  0.53168  1.0000
  H   H4272     1.0  0.90614  0.52320  0.54320  1.0000
  C   C4285     1.0  0.88534  0.75251  0.56199  1.0000
  C   C4286     1.0  0.94621  0.51441  0.60997  1.0000
  H   H4273     1.0  0.90044  0.51163  0.55180  1.0000
  C   C4287     1.0  0.90170  0.51983  0.55160  1.0000
  H   H4274     1.0  0.87854  0.76903  0.56464  1.0000
  H   H4275     1.0  0.88185  0.51827  0.55135  1.0000
  C   C4288     1.0  0.90318  0.65853  0.51360  1.0000
  C   C4289     1.0  0.89291  0.67427  0.50235  1.0000
  S   S1445     1.0  0.94724  0.80902  0.55738  1.0000
  C   C4290     1.0  0.88589  0.74690  0.53301  1.0000
  H   H4276     1.0  0.92188  0.72343  0.54047  1.0000
  H   H4277     1.0  0.93742  0.51708  0.61360  1.0000
  C   C4291     1.0  0.87661  0.74265  0.53511  1.0000
  C   C4292     1.0  0.96471  0.87594  0.56186  1.0000
  H   H4278     1.0  0.83469  0.93776  0.50543  1.0000
  H   H4279     1.0  0.94356  0.57951  0.66215  1.0000
  Fe  Fe722     1.0  0.90672  0.78767  0.51862  1.0000
  C   C4293     1.0  0.96758  0.60884  0.57487  1.0000
  S   S1446     1.0  0.95630  0.63781  0.55686  1.0000
  H   H4280     1.0  0.97238  0.78895  0.51518  1.0000
  C   C4294     1.0  0.90758  0.87225  0.50230  1.0000
  S   S1447     1.0  0.98017  0.90291  0.52035  1.0000
  H   H4281     1.0  0.90262  0.62714  0.54291  1.0000
  S   S1448     1.0  0.88928  0.79625  0.52022  1.0000
  C   C4295     1.0  0.91045  0.62589  0.54477  1.0000
  H   H4282     1.0  0.94921  0.52176  0.60455  1.0000
  S   S1449     1.0  0.95871  0.56435  0.71196  1.0000
  C   C4296     1.0  0.91226  0.66091  0.52631  1.0000
  S   S1450     1.0  0.95283  0.55314  0.65235  1.0000
  C   C4297     1.0  0.93070  0.62281  0.54959  1.0000
  S   S1451     1.0  0.89382  0.70058  0.52939  1.0000
  C   C4298     1.0  0.83437  0.94180  0.49693  1.0000
  H   H4283     1.0  0.89123  0.84742  0.51579  1.0000
  C   C4299     1.0  0.94190  0.78136  0.50022  1.0000
  C   C4300     1.0  0.90256  0.67656  0.51501  1.0000
  C   C4301     1.0  0.96290  0.49930  0.63599  1.0000
  C   C4302     1.0  0.91824  0.82931  0.55196  1.0000
  S   S1452     1.0  0.87723  0.73053  0.53121  1.0000
  Fe  Fe723     1.0  0.94528  0.64179  0.54530  1.0000
  C   C4303     1.0  0.88668  0.93756  0.52268  1.0000
  H   H4284     1.0  0.89974  0.68538  0.51265  1.0000
  S   S1453     1.0  0.96424  0.54146  0.73076  1.0000
  C   C4304     1.0  0.95547  0.55543  0.67163  1.0000
  C   C4305     1.0  0.93408  0.62325  0.50546  1.0000
  C   C4306     1.0  0.90889  0.67228  0.52295  1.0000
  Fe  Fe724     1.0  0.91133  0.70120  0.52662  1.0000
  C   C4307     1.0  0.91321  0.63448  0.54720  1.0000
  S   S1454     1.0  0.96408  0.85258  0.52062  1.0000
  H   H4285     1.0  0.87680  0.79570  0.48884  1.0000
  C   C4308     1.0  0.98040  0.77265  0.51232  1.0000
  C   C4309     1.0  0.87734  0.94595  0.52188  1.0000
  H   H4286     1.0  0.91123  0.74582  0.51613  1.0000
  C   C4310     1.0  0.91331  0.66487  0.56653  1.0000
  C   C4311     1.0  0.93195  0.68198  0.56685  1.0000
  H   H4287     1.0  0.80518  0.96134  0.50754  1.0000
  C   C4312     1.0  0.86689  0.52535  0.72755  1.0000
  H   H4288     1.0  0.89049  0.90151  0.48884  1.0000
  C   C4313     1.0  0.93284  0.73153  0.54316  1.0000
  H   H4289     1.0  0.88823  0.68277  0.50287  1.0000
  C   C4314     1.0  0.93467  0.76947  0.51772  1.0000
  C   C4315     1.0  0.93322  0.76582  0.52917  1.0000
  C   C4316     1.0  0.94081  0.89551  0.51240  1.0000
  C   C4317     1.0  0.96928  0.69596  0.53233  1.0000
  C   C4318     1.0  0.97881  0.52731  0.68004  1.0000
  C   C4319     1.0  0.88966  0.93326  0.53282  1.0000
  C   C4320     1.0  0.92340  0.63303  0.54939  1.0000
  H   H4290     1.0  0.91096  0.67776  0.52662  1.0000
  C   C4321     1.0  0.87264  0.50152  0.67339  1.0000
  N   N357      1.0  0.87114  0.94993  0.53095  1.0000
  H   H4291     1.0  0.93847  0.62155  0.55159  1.0000
  H   H4292     1.0  0.93624  0.61090  0.57363  1.0000
  C   C4322     1.0  0.89460  0.76537  0.50368  1.0000
  C   C4323     1.0  0.88338  0.93747  0.54198  1.0000
  H   H4293     1.0  0.89135  0.93411  0.51559  1.0000
  Fe  Fe725     1.0  0.97408  0.49243  0.68464  1.0000
  H   H4294     1.0  0.92922  0.75905  0.53349  1.0000
  C   C4324     1.0  0.91918  0.83883  0.51762  1.0000
  H   H4295     1.0  0.95715  0.55787  0.68682  1.0000
  S   S1455     1.0  0.98406  0.55115  0.71170  1.0000
  H   H4296     1.0  0.93160  0.69047  0.56674  1.0000
  C   C4325     1.0  0.96588  0.60389  0.58620  1.0000
  H   H4297     1.0  0.89373  0.74239  0.52939  1.0000
  Fe  Fe726     1.0  0.96951  0.55747  0.72409  1.0000
  C   C4326     1.0  0.93416  0.62300  0.49471  1.0000
  Fe  Fe727     1.0  0.83049  0.97626  0.52718  1.0000
  S   S1456     1.0  0.95823  0.50375  0.69006  1.0000
  H   H4298     1.0  0.92669  0.82718  0.55322  1.0000
  H   H4299     1.0  0.95571  0.91887  0.50192  1.0000
  H   H4300     1.0  0.87487  0.94901  0.51405  1.0000
  S   S1457     1.0  0.94777  0.83119  0.52995  1.0000
  S   S1458     1.0  0.79807  0.95980  0.54585  1.0000
  H   H4301     1.0  0.89995  0.81592  0.50293  1.0000
  C   C4327     1.0  0.86137  0.95872  0.52991  1.0000
  H   H4302     1.0  0.86359  0.96689  0.52700  1.0000
  C   C4328     1.0  0.97129  0.60230  0.56705  1.0000
  C   C4329     1.0  0.94214  0.66339  0.56674  1.0000
  C   C4330     1.0  0.98078  0.50477  0.70164  1.0000
  H   H4303     1.0  0.86922  0.94903  0.54808  1.0000
  C   C4331     1.0  0.89926  0.70598  0.49576  1.0000
  S   S1459     1.0  0.95248  0.73086  0.51882  1.0000
  H   H4304     1.0  0.96979  0.51460  0.65366  1.0000
  S   S1460     1.0  0.96749  0.54007  0.70513  1.0000
  C   C4332     1.0  0.96130  0.76298  0.54918  1.0000
  S   S1461     1.0  0.90931  0.89317  0.50100  1.0000
  C   C4333     1.0  0.93875  0.51872  0.64541  1.0000
  H   H4305     1.0  0.91685  0.58829  0.56827  1.0000
  C   C4334     1.0  0.96103  0.62255  0.49865  1.0000
  H   H4306     1.0  0.97753  0.89677  0.49887  1.0000
  C   C4335     1.0  0.90987  0.50241  0.69432  1.0000
  H   H4307     1.0  0.97592  0.88245  0.52613  1.0000
  Fe  Fe728     1.0  0.82136  0.97206  0.51001  1.0000
  H   H4308     1.0  0.97517  0.58667  0.64766  1.0000
  Fe  Fe729     1.0  0.95555  0.81562  0.54012  1.0000
  C   C4336     1.0  0.97619  0.50735  0.59939  1.0000
  C   C4337     1.0  0.96105  0.55754  0.67833  1.0000
  H   H4309     1.0  0.97287  0.57696  0.58469  1.0000
  Fe  Fe730     1.0  0.96356  0.64306  0.52474  1.0000
  H   H4310     1.0  0.91729  0.50513  0.68960  1.0000
  H   H4311     1.0  0.89779  0.77298  0.51489  1.0000
  H   H4312     1.0  0.94921  0.67669  0.56622  1.0000
  Fe  Fe731     1.0  0.97616  0.54413  0.61575  1.0000
  C   C4338     1.0  0.92955  0.72453  0.50632  1.0000
  H   H4313     1.0  0.90758  0.64235  0.54708  1.0000
  H   H4314     1.0  0.97568  0.53410  0.59784  1.0000
  Fe  Fe732     1.0  0.95961  0.55440  0.63412  1.0000
  Fe  Fe733     1.0  0.95241  0.82161  0.51688  1.0000
  C   C4339     1.0  0.87308  0.79138  0.49689  1.0000
  H   H4315     1.0  0.86332  0.79398  0.52350  1.0000
  S   S1462     1.0  0.92205  0.50469  0.63339  1.0000
  H   H4316     1.0  0.97472  0.55689  0.64765  1.0000
  H   H4317     1.0  0.94608  0.85956  0.50983  1.0000
  C   C4340     1.0  0.94180  0.67427  0.56661  1.0000
  C   C4341     1.0  0.91650  0.82570  0.53496  1.0000
  H   H4318     1.0  0.98183  0.59017  0.62845  1.0000
  C   C4342     1.0  0.80608  0.96185  0.49891  1.0000
  H   H4319     1.0  0.96156  0.53230  0.68631  1.0000
  Fe  Fe734     1.0  0.97266  0.55616  0.70019  1.0000
  C   C4343     1.0  0.87923  0.50906  0.67108  1.0000
  C   C4344     1.0  0.98314  0.50225  0.60670  1.0000
  C   C4345     1.0  0.96950  0.67633  0.53860  1.0000
  S   S1463     1.0  0.91542  0.78378  0.50231  1.0000
  S   S1464     1.0  0.92724  0.64422  0.55108  1.0000
  H   H4320     1.0  0.93745  0.71925  0.50696  1.0000
  C   C4346     1.0  0.93265  0.66042  0.56684  1.0000
  C   C4347     1.0  0.86472  0.76438  0.50977  1.0000
  H   H4321     1.0  0.91445  0.81791  0.53959  1.0000
  H   H4322     1.0  0.91691  0.65748  0.53269  1.0000
  C   C4348     1.0  0.98077  0.51023  0.70956  1.0000
  S   S1465     1.0  0.94791  0.74058  0.54640  1.0000
  Fe  Fe735     1.0  0.96447  0.65077  0.54445  1.0000
  H   H4323     1.0  0.92352  0.60393  0.56926  1.0000
  H   H4324     1.0  0.88377  0.89266  0.50738  1.0000
  S   S1466     1.0  0.94102  0.82305  0.50642  1.0000
  Fe  Fe736     1.0  0.97790  0.53561  0.71742  1.0000
  C   C4349     1.0  0.92014  0.69247  0.49330  1.0000
  H   H4325     1.0  0.97445  0.85538  0.54797  1.0000
  N   N358      1.0  0.86354  0.53655  0.72599  1.0000
  N   N359      1.0  0.91838  0.83261  0.54013  1.0000
  C   C4350     1.0  0.97818  0.87386  0.52594  1.0000
  S   S1467     1.0  0.96730  0.66488  0.54946  1.0000
  S   S1468     1.0  0.95868  0.80557  0.52764  1.0000
  H   H4326     1.0  0.98576  0.49320  0.56757  1.0000
  H   H4327     1.0  0.93164  0.76551  0.51320  1.0000
  H   H4328     1.0  0.80064  0.94685  0.50180  1.0000
  H   H4329     1.0  0.94979  0.65736  0.56658  1.0000
  H   H4330     1.0  0.92282  0.50083  0.72933  1.0000
  S   S1469     1.0  0.83832  0.97099  0.51122  1.0000
  H   H4331     1.0  0.97608  0.58567  0.56466  1.0000
  H   H4332     1.0  0.94179  0.52620  0.64298  1.0000
  C   C4351     1.0  0.95104  0.67808  0.50858  1.0000
  H   H4333     1.0  0.95685  0.51809  0.70797  1.0000
  C   C4352     1.0  0.90013  0.77152  0.50665  1.0000
  C   C4353     1.0  0.91002  0.88210  0.49544  1.0000
  H   H4334     1.0  0.93693  0.62966  0.50696  1.0000
  H   H4335     1.0  0.85607  0.76410  0.51367  1.0000
  N   N360      1.0  0.97315  0.52478  0.66192  1.0000
  C   C4354     1.0  0.97776  0.52526  0.60039  1.0000
  C   C4355     1.0  0.96373  0.64385  0.48798  1.0000
  H   H4336     1.0  0.95665  0.52987  0.67016  1.0000
  Fe  Fe737     1.0  0.95759  0.73843  0.52957  1.0000
  H   H4337     1.0  0.88805  0.76208  0.50968  1.0000
  H   H4338     1.0  0.90320  0.71054  0.50858  1.0000
  N   N361      1.0  0.88299  0.88774  0.49326  1.0000
  C   C4356     1.0  0.96190  0.49393  0.73325  1.0000
  C   C4357     1.0  0.92698  0.60675  0.51216  1.0000
  H   H4339     1.0  0.96251  0.62645  0.51319  1.0000
  C   C4358     1.0  0.80981  0.97061  0.49101  1.0000
  H   H4340     1.0  0.92407  0.60040  0.51896  1.0000
  H   H4341     1.0  0.93320  0.89664  0.51883  1.0000
  H   H4342     1.0  0.94824  0.67052  0.51266  1.0000
  H   H4343     1.0  0.96058  0.78867  0.55156  1.0000
  C   C4359     1.0  0.86488  0.50543  0.69162  1.0000
  C   C4360     1.0  0.91628  0.69848  0.50162  1.0000
  Fe  Fe738     1.0  0.95646  0.74544  0.50575  1.0000
  C   C4361     1.0  0.93081  0.49950  0.65163  1.0000
  S   S1470     1.0  0.96752  0.55501  0.60252  1.0000
  C   C4362     1.0  0.96775  0.68670  0.54092  1.0000
  C   C4363     1.0  0.95154  0.49866  0.62452  1.0000
  N   N362      1.0  0.93280  0.51250  0.72350  1.0000
  C   C4364     1.0  0.95856  0.69717  0.49798  1.0000
  C   C4365     1.0  0.98003  0.78304  0.51407  1.0000
  H   H4344     1.0  0.88685  0.66920  0.50375  1.0000
  N   N363      1.0  0.93847  0.59395  0.57326  1.0000
  H   H4345     1.0  0.85534  0.95858  0.53792  1.0000
  H   H4346     1.0  0.91454  0.82204  0.55606  1.0000
  H   H4347     1.0  0.94664  0.49430  0.62257  1.0000
  H   H4348     1.0  0.91529  0.82324  0.51955  1.0000
  H   H4349     1.0  0.94131  0.58018  0.64354  1.0000
  N   N364      1.0  0.82988  0.93773  0.49100  1.0000
  N   N365      1.0  0.94916  0.68621  0.51415  1.0000
  C   C4366     1.0  0.96254  0.79932  0.49231  1.0000
  H   H4350     1.0  0.93052  0.61504  0.52258  1.0000
  H   H4351     1.0  0.86151  0.55072  0.73225  1.0000
  H   H4352     1.0  0.94769  0.78969  0.51358  1.0000
  C   C4367     1.0  0.92069  0.84256  0.53428  1.0000
  H   H4353     1.0  0.83183  0.92039  0.49500  1.0000
  H   H4354     1.0  0.89131  0.57543  0.72772  1.0000
  H   H4355     1.0  0.88470  0.51058  0.66312  1.0000
  C   C4368     1.0  0.97780  0.94862  0.49459  1.0000
  C   C4369     1.0  0.92114  0.84581  0.52293  1.0000
  H   H4356     1.0  0.93418  0.73638  0.53485  1.0000
  S   S1471     1.0  0.92362  0.69668  0.51161  1.0000
  H   H4357     1.0  0.91319  0.65620  0.57095  1.0000
  H   H4358     1.0  0.97347  0.94914  0.50297  1.0000
  H   H4359     1.0  0.91494  0.68479  0.56720  1.0000
  H   H4360     1.0  0.93306  0.65199  0.56668  1.0000
  C   C4370     1.0  0.90694  0.86394  0.49769  1.0000
  Fe  Fe739     1.0  0.96459  0.83447  0.52355  1.0000
  C   C4371     1.0  0.97644  0.55930  0.66286  1.0000
  H   H4361     1.0  0.90568  0.67016  0.57027  1.0000
  C   C4372     1.0  0.90095  0.81748  0.49406  1.0000
  H   H4362     1.0  0.96517  0.68760  0.54939  1.0000
  H   H4363     1.0  0.86475  0.57510  0.72681  1.0000
  C   C4373     1.0  0.97352  0.85787  0.52374  1.0000
  H   H4364     1.0  0.96700  0.49550  0.64277  1.0000
  H   H4365     1.0  0.96334  0.87418  0.52182  1.0000
  H   H4366     1.0  0.91187  0.64511  0.52428  1.0000
  H   H4367     1.0  0.94784  0.89292  0.51641  1.0000
  H   H4368     1.0  0.96786  0.70395  0.53419  1.0000
  Fe  Fe740     1.0  0.97712  0.74429  0.51223  1.0000
  H   H4369     1.0  0.90121  0.74270  0.50415  1.0000
  C   C4374     1.0  0.90601  0.70548  0.50256  1.0000
  H   H4370     1.0  0.97726  0.68347  0.51063  1.0000
  C   C4375     1.0  0.90862  0.77581  0.49891  1.0000
  C   C4376     1.0  0.89840  0.57483  0.73076  1.0000
  S   S1472     1.0  0.96010  0.75371  0.51685  1.0000
  H   H4371     1.0  0.89112  0.71110  0.49690  1.0000
  H   H4372     1.0  0.96144  0.80736  0.50505  1.0000
  C   C4377     1.0  0.86545  0.79046  0.51629  1.0000
  H   H4373     1.0  0.97820  0.58079  0.62287  1.0000
  H   H4374     1.0  0.97159  0.92275  0.50571  1.0000
  H   H4375     1.0  0.96345  0.88906  0.49631  1.0000
  C   C4378     1.0  0.88104  0.49160  0.71311  1.0000
  S   S1473     1.0  0.81500  0.97983  0.49465  1.0000
  H   H4376     1.0  0.97420  0.66725  0.52578  1.0000
  S   S1474     1.0  0.97211  0.81954  0.53500  1.0000
  H   H4377     1.0  0.92301  0.85366  0.51827  1.0000
  H   H4378     1.0  0.81540  0.98681  0.55002  1.0000
  C   C4379     1.0  0.97596  0.75011  0.53956  1.0000
  S   S1475     1.0  0.95236  0.65568  0.53390  1.0000
  C   C4380     1.0  0.94373  0.86823  0.50609  1.0000
  C   C4381     1.0  0.90497  0.49686  0.68994  1.0000
  S   S1476     1.0  0.96860  0.82606  0.50949  1.0000
  H   H4379     1.0  0.94141  0.90359  0.50662  1.0000
  H   H4380     1.0  0.98662  0.81902  0.48885  1.0000
  H   H4381     1.0  0.91332  0.83612  0.55611  1.0000
  C   C4382     1.0  0.94133  0.51349  0.71461  1.0000
  H   H4382     1.0  0.93885  0.69262  0.52793  1.0000
  H   H4383     1.0  0.93765  0.67933  0.52775  1.0000
  H   H4384     1.0  0.88629  0.52240  0.64444  1.0000
  C   C4383     1.0  0.89650  0.52009  0.62875  1.0000
  C   C4384     1.0  0.87114  0.78097  0.49820  1.0000
  H   H4385     1.0  0.89736  0.60248  0.49625  1.0000
  H   H4386     1.0  0.95826  0.52326  0.61718  1.0000
  H   H4387     1.0  0.87939  0.62991  0.48943  1.0000
  Fe  Fe741     1.0  0.97456  0.81073  0.52143  1.0000
  S   S1477     1.0  0.96635  0.64866  0.50618  1.0000
  H   H4388     1.0  0.90725  0.57704  0.70789  1.0000
  C   C4385     1.0  0.97278  0.69482  0.52138  1.0000
  C   C4386     1.0  0.94017  0.51132  0.65535  1.0000
  H   H4389     1.0  0.88546  0.93389  0.54996  1.0000
  H   H4390     1.0  0.96925  0.49703  0.73086  1.0000
  C   C4387     1.0  0.89725  0.51731  0.61887  1.0000
  H   H4391     1.0  0.89944  0.80138  0.49430  1.0000
  C   C4388     1.0  0.92855  0.59570  0.57082  1.0000
  C   C4389     1.0  0.92920  0.50705  0.64178  1.0000
  C   C4390     1.0  0.95019  0.51718  0.71511  1.0000
  H   H4392     1.0  0.93200  0.52255  0.63112  1.0000
  S   S1478     1.0  0.95532  0.62951  0.53524  1.0000
  S   S1479     1.0  0.94629  0.51468  0.66399  1.0000
  N   N366      1.0  0.93081  0.61479  0.49274  1.0000
  C   C4391     1.0  0.93325  0.51662  0.63866  1.0000
  H   H4393     1.0  0.88876  0.51280  0.60938  1.0000
  C   C4392     1.0  0.97371  0.51883  0.59610  1.0000
  C   C4393     1.0  0.88663  0.55375  0.72940  1.0000
  H   H4394     1.0  0.90329  0.52243  0.63001  1.0000
  Fe  Fe742     1.0  0.96531  0.56853  0.61119  1.0000
  H   H4395     1.0  0.94897  0.77492  0.55734  1.0000
  C   C4394     1.0  0.96368  0.64015  0.49925  1.0000
  C   C4395     1.0  0.94901  0.73581  0.48805  1.0000
  C   C4396     1.0  0.95367  0.87582  0.56443  1.0000
  H   H4396     1.0  0.81856  0.92807  0.49253  1.0000
  H   H4397     1.0  0.95592  0.58445  0.62714  1.0000
  H   H4398     1.0  0.95554  0.73285  0.49241  1.0000
  H   H4399     1.0  0.95186  0.70185  0.51356  1.0000
  C   C4397     1.0  0.97946  0.88826  0.49824  1.0000
  C   C4398     1.0  0.92508  0.73277  0.51232  1.0000
  C   C4399     1.0  0.93633  0.50161  0.65840  1.0000
  N   N367      1.0  0.96630  0.58601  0.63640  1.0000
  C   C4400     1.0  0.92361  0.50851  0.72295  1.0000
  C   C4401     1.0  0.87790  0.87046  0.49668  1.0000
  H   H4400     1.0  0.94514  0.78369  0.53386  1.0000
  H   H4401     1.0  0.94771  0.88184  0.56866  1.0000
  C   C4402     1.0  0.79090  0.97990  0.56097  1.0000
  C   C4403     1.0  0.95030  0.51975  0.72483  1.0000
  C   C4404     1.0  0.94740  0.81385  0.49782  1.0000
  H   H4402     1.0  0.94118  0.86528  0.49154  1.0000
  H   H4403     1.0  0.97625  0.52561  0.64465  1.0000
  C   C4405     1.0  0.94472  0.58352  0.57532  1.0000
  C   C4406     1.0  0.95294  0.69561  0.50903  1.0000
  C   C4407     1.0  0.80326  0.95377  0.49568  1.0000
  N   N368      1.0  0.89097  0.49533  0.70656  1.0000
  H   H4404     1.0  0.90871  0.50904  0.70821  1.0000
  C   C4408     1.0  0.95842  0.49105  0.72534  1.0000
  C   C4409     1.0  0.95748  0.80689  0.49902  1.0000
  H   H4405     1.0  0.90457  0.85654  0.50299  1.0000
  C   C4410     1.0  0.96231  0.62949  0.50458  1.0000
  H   H4406     1.0  0.94563  0.87370  0.51948  1.0000
  H   H4407     1.0  0.95710  0.52257  0.72542  1.0000
  H   H4408     1.0  0.93803  0.79019  0.49786  1.0000
  C   C4411     1.0  0.86435  0.54186  0.73339  1.0000
  C   C4412     1.0  0.97223  0.86848  0.55598  1.0000
  H   H4409     1.0  0.92814  0.68707  0.49253  1.0000
  C   C4413     1.0  0.86362  0.78007  0.51730  1.0000
  C   C4414     1.0  0.96517  0.52812  0.67047  1.0000
  C   C4415     1.0  0.80664  0.98792  0.55267  1.0000
  H   H4410     1.0  0.97337  0.51252  0.71545  1.0000
  S   S1480     1.0  0.97823  0.56301  0.68203  1.0000
  C   C4416     1.0  0.98247  0.91921  0.49057  1.0000
  C   C4417     1.0  0.97496  0.58814  0.62658  1.0000
  C   C4418     1.0  0.91485  0.73944  0.51146  1.0000
  C   C4419     1.0  0.96338  0.91828  0.49591  1.0000
  H   H4411     1.0  0.96624  0.61769  0.57220  1.0000
  C   C4420     1.0  0.93707  0.77089  0.53502  1.0000
  C   C4421     1.0  0.93782  0.88261  0.49122  1.0000
  H   H4412     1.0  0.93595  0.76812  0.54390  1.0000
  C   C4422     1.0  0.95793  0.51487  0.62158  1.0000
  Fe  Fe743     1.0  0.97013  0.72317  0.51399  1.0000
  C   C4423     1.0  0.94358  0.68464  0.52583  1.0000
  C   C4424     1.0  0.95939  0.58348  0.65602  1.0000
  C   C4425     1.0  0.96788  0.52948  0.67963  1.0000
  H   H4413     1.0  0.95617  0.75703  0.55169  1.0000
  C   C4426     1.0  0.94982  0.58162  0.65490  1.0000
  C   C4427     1.0  0.97458  0.68442  0.51907  1.0000
  H   H4414     1.0  0.98410  0.74615  0.54144  1.0000
  H   H4415     1.0  0.92780  0.49202  0.65408  1.0000
  H   H4416     1.0  0.91847  0.56555  0.71043  1.0000
  S   S1481     1.0  0.97639  0.63892  0.53458  1.0000
  H   H4417     1.0  0.98455  0.56083  0.65946  1.0000
  H   H4418     1.0  0.92477  0.50654  0.71484  1.0000
  H   H4419     1.0  0.87352  0.77732  0.49108  1.0000
  H   H4420     1.0  0.92768  0.71734  0.49410  1.0000
  H   H4421     1.0  0.86152  0.55073  0.71296  1.0000
  H   H4422     1.0  0.96818  0.51454  0.63214  1.0000
  C   C4428     1.0  0.82537  0.92788  0.49617  1.0000
  Fe  Fe744     1.0  0.95333  0.50040  0.67629  1.0000
  H   H4423     1.0  0.94960  0.68080  0.53110  1.0000
  C   C4429     1.0  0.85861  0.54293  0.71665  1.0000
  S   S1482     1.0  0.88623  0.49483  0.56658  1.0000
  S   S1483     1.0  0.87349  0.49421  0.66354  1.0000
  H   H4424     1.0  0.89812  0.67454  0.49391  1.0000
  H   H4425     1.0  0.92571  0.56925  0.72333  1.0000
  H   H4426     1.0  0.86083  0.53834  0.70997  1.0000
  S   S1484     1.0  0.97378  0.73730  0.49979  1.0000
  H   H4427     1.0  0.86681  0.76182  0.50179  1.0000
  S   S1485     1.0  0.97365  0.60818  0.55273  1.0000
  Fe  Fe745     1.0  0.91245  0.49204  0.64345  1.0000
  H   H4428     1.0  0.96318  0.60902  0.59218  1.0000
  C   C4430     1.0  0.93777  0.89044  0.49679  1.0000
  H   H4429     1.0  0.89265  0.54816  0.72473  1.0000
  C   C4431     1.0  0.95716  0.77308  0.55237  1.0000
  C   C4432     1.0  0.94095  0.87143  0.49585  1.0000
  N   N369      1.0  0.91409  0.73031  0.49801  1.0000
  S   S1486     1.0  0.94444  0.75473  0.49544  1.0000
  H   H4430     1.0  0.85934  0.50396  0.69958  1.0000
  H   H4431     1.0  0.96005  0.61427  0.50281  1.0000
  H   H4432     1.0  0.96843  0.52283  0.59037  1.0000
  H   H4433     1.0  0.96741  0.88200  0.56417  1.0000
  H   H4434     1.0  0.95257  0.58214  0.57729  1.0000
  H   H4435     1.0  0.90861  0.49508  0.68182  1.0000
  C   C4433     1.0  0.87867  0.56176  0.72445  1.0000
  H   H4436     1.0  0.87180  0.51297  0.62400  1.0000
  H   H4437     1.0  0.96772  0.86938  0.49506  1.0000
  H   H4438     1.0  0.98107  0.52829  0.68708  1.0000
  Fe  Fe746     1.0  0.96704  0.62629  0.54613  1.0000
  H   H4439     1.0  0.91597  0.51484  0.72430  1.0000
  C   C4434     1.0  0.92716  0.60676  0.50130  1.0000
  H   H4440     1.0  0.92949  0.73394  0.51766  1.0000
  H   H4441     1.0  0.84961  0.54491  0.71941  1.0000
  N   N370      1.0  0.97169  0.76061  0.54304  1.0000
  C   C4435     1.0  0.93054  0.61501  0.51421  1.0000
  S   S1487     1.0  0.96563  0.58657  0.60414  1.0000
  C   C4436     1.0  0.97314  0.59078  0.57067  1.0000
  C   C4437     1.0  0.90511  0.50454  0.70481  1.0000
  C   C4438     1.0  0.96764  0.58558  0.64664  1.0000
  C   C4439     1.0  0.87017  0.79616  0.50599  1.0000
  S   S1488     1.0  0.98773  0.90058  0.54331  1.0000
  C   C4440     1.0  0.90069  0.80928  0.48912  1.0000
  C   C4441     1.0  0.95692  0.58423  0.63524  1.0000
  H   H4442     1.0  0.97679  0.75153  0.53053  1.0000
  C   C4442     1.0  0.80216  0.97860  0.55735  1.0000
  C   C4443     1.0  0.92395  0.72348  0.49907  1.0000
  H   H4443     1.0  0.96311  0.49190  0.71693  1.0000
  H   H4444     1.0  0.82194  0.92743  0.50514  1.0000
  C   C4444     1.0  0.95661  0.67936  0.49752  1.0000
  C   C4445     1.0  0.98387  0.52227  0.66242  1.0000
  H   H4445     1.0  0.84186  0.95464  0.49696  1.0000
  H   H4446     1.0  0.96214  0.52863  0.65134  1.0000
  C   C4446     1.0  0.90932  0.73784  0.50446  1.0000
  C   C4447     1.0  0.97811  0.76816  0.53980  1.0000
  H   H4447     1.0  0.89207  0.50249  0.71906  1.0000
  C   C4448     1.0  0.88078  0.87997  0.48942  1.0000
  H   H4448     1.0  0.89151  0.48937  0.69259  1.0000
  H   H4449     1.0  0.87393  0.49863  0.71316  1.0000
  C   C4449     1.0  0.94158  0.51866  0.73386  1.0000
  H   H4450     1.0  0.97927  0.78441  0.54000  1.0000
  H   H4451     1.0  0.97054  0.74420  0.54378  1.0000
  C   C4450     1.0  0.98342  0.85136  0.52608  1.0000
  H   H4452     1.0  0.98511  0.49337  0.60927  1.0000
  C   C4451     1.0  0.98415  0.86640  0.49694  1.0000
  S   S1489     1.0  0.88980  0.75707  0.48877  1.0000
  H   H4453     1.0  0.98083  0.86866  0.55370  1.0000
  H   H4454     1.0  0.98609  0.50005  0.73449  1.0000
  C   C4452     1.0  0.89922  0.60524  0.48737  1.0000
  C   C4453     1.0  0.96125  0.62619  0.48735  1.0000
  C   C4454     1.0  0.90289  0.69978  0.48766  1.0000
  H   H4455     1.0  0.98629  0.76634  0.53479  1.0000
  H   H4456     1.0  0.79103  0.98264  0.53638  1.0000
  C   C4455     1.0  0.91160  0.77390  0.48828  1.0000
  H   H4457     1.0  0.98597  0.85777  0.49668  1.0000
  C   C4456     1.0  0.98736  0.50873  0.61087  1.0000
  H   H4458     1.0  0.96452  0.94512  0.49053  1.0000
  C   C4457     1.0  0.90259  0.82767  0.48749  1.0000
  C   C4458     1.0  0.97279  0.94633  0.48751  1.0000
  C   C4459     1.0  0.78843  0.95773  0.53991  1.0000
  H   H4459     1.0  0.98681  0.61607  0.49340  1.0000
  H   H4460     1.0  0.90023  0.72943  0.49317  1.0000
  C   C4460     1.0  0.90881  0.73014  0.48950  1.0000
  C   C4461     1.0  0.87155  0.51921  0.73649  1.0000
  Fe  Fe747     1.0  0.81256  0.56440  0.93948  1.0000
  S   S1490     1.0  0.82266  0.57326  0.94392  1.0000
  Fe  Fe748     1.0  0.82173  0.54227  0.95280  1.0000
  S   S1491     1.0  0.83259  0.54885  0.95868  1.0000
  S   S1492     1.0  0.81877  0.52510  0.95837  1.0000
  Fe  Fe749     1.0  0.81845  0.56304  0.96102  1.0000
  C   C4462     1.0  0.83531  0.58409  0.96186  1.0000
  Fe  Fe750     1.0  0.83629  0.55859  0.94123  1.0000
  S   S1493     1.0  0.85388  0.55982  0.93481  1.0000
  S   S1494     1.0  0.80713  0.55551  0.95685  1.0000
  S   S1495     1.0  0.82667  0.55067  0.93508  1.0000
  C   C4463     1.0  0.95530  0.52544  0.87813  1.0000
  Fe  Fe751     1.0  0.91253  0.55709  0.77215  1.0000
  S   S1496     1.0  0.89485  0.56236  0.77958  1.0000
  S   S1497     1.0  0.92253  0.56994  0.76569  1.0000
  Fe  Fe752     1.0  0.91071  0.53404  0.77411  1.0000
  S   S1498     1.0  0.89292  0.53719  0.78194  1.0000
  S   S1499     1.0  0.91945  0.51744  0.77097  1.0000
  Fe  Fe753     1.0  0.89221  0.55280  0.76889  1.0000
  S   S1500     1.0  0.87831  0.56020  0.76029  1.0000
  Fe  Fe754     1.0  0.89736  0.54631  0.79185  1.0000
  S   S1501     1.0  0.88961  0.54500  0.80996  1.0000
  S   S1502     1.0  0.90973  0.54902  0.76032  1.0000
  S   S1503     1.0  0.91533  0.54164  0.78517  1.0000
  Fe  Fe755     1.0  0.97620  0.56025  0.88567  1.0000
  S   S1504     1.0  0.96004  0.56978  0.88193  1.0000
  C   C4464     1.0  0.82188  0.56713  0.98481  1.0000
  Fe  Fe756     1.0  0.89266  0.55948  0.87989  1.0000
  S   S1505     1.0  0.88940  0.55171  0.86803  1.0000
  S   S1506     1.0  0.88081  0.57348  0.88686  1.0000
  Fe  Fe757     1.0  0.91480  0.54422  0.88089  1.0000
  S   S1507     1.0  0.91338  0.53485  0.86947  1.0000
  S   S1508     1.0  0.92842  0.53800  0.88997  1.0000
  Fe  Fe758     1.0  0.90691  0.55132  0.85943  1.0000
  S   S1509     1.0  0.91407  0.55409  0.84106  1.0000
  Fe  Fe759     1.0  0.89615  0.53592  0.87887  1.0000
  S   S1510     1.0  0.88977  0.52059  0.88426  1.0000
  S   S1511     1.0  0.90963  0.56079  0.87021  1.0000
  S   S1512     1.0  0.89814  0.54362  0.89135  1.0000
  C   C4465     1.0  0.88609  0.51839  0.87323  1.0000
  C   C4466     1.0  0.88152  0.52720  0.86558  1.0000
  C   C4467     1.0  0.87868  0.52521  0.85676  1.0000
  C   C4468     1.0  0.88053  0.51442  0.85556  1.0000
  C   C4469     1.0  0.88520  0.50572  0.86314  1.0000
  C   C4470     1.0  0.88787  0.50764  0.87202  1.0000
  H   H4461     1.0  0.87987  0.53551  0.86661  1.0000
  C   C4471     1.0  0.97675  0.57796  0.83248  1.0000
  C   C4472     1.0  0.92569  0.50822  0.89439  1.0000
  H   H4462     1.0  0.92026  0.51628  0.89313  1.0000
  C   C4473     1.0  0.95116  0.56104  0.88429  1.0000
  C   C4474     1.0  0.94295  0.56409  0.87838  1.0000
  C   C4475     1.0  0.93601  0.55701  0.87997  1.0000
  C   C4476     1.0  0.93703  0.54702  0.88775  1.0000
  C   C4477     1.0  0.94512  0.54408  0.89381  1.0000
  C   C4478     1.0  0.95229  0.55098  0.89194  1.0000
  H   H4463     1.0  0.94205  0.57187  0.87244  1.0000
  H   H4464     1.0  0.92994  0.55928  0.87512  1.0000
  H   H4465     1.0  0.94592  0.53641  0.89990  1.0000
  H   H4466     1.0  0.95859  0.54861  0.89658  1.0000
  C   C4479     1.0  0.89694  0.54650  0.81872  1.0000
  C   C4480     1.0  0.89179  0.54653  0.82978  1.0000
  C   C4481     1.0  0.89709  0.54857  0.83679  1.0000
  C   C4482     1.0  0.90763  0.55046  0.83279  1.0000
  C   C4483     1.0  0.91291  0.55008  0.82181  1.0000
  C   C4484     1.0  0.90757  0.54816  0.81477  1.0000
  H   H4467     1.0  0.88356  0.54526  0.83287  1.0000
  H   H4468     1.0  0.89292  0.54886  0.84522  1.0000
  H   H4469     1.0  0.92107  0.55154  0.81866  1.0000
  H   H4470     1.0  0.91158  0.54821  0.80625  1.0000
  H   H4471     1.0  0.79707  0.51044  0.94317  1.0000
  C   C4485     1.0  0.90082  0.51993  0.74995  1.0000
  C   C4486     1.0  0.90547  0.52236  0.75723  1.0000
  C   C4487     1.0  0.91336  0.51433  0.76216  1.0000
  C   C4488     1.0  0.87889  0.56032  0.74651  1.0000
  S   S1513     1.0  0.80077  0.57112  0.92819  1.0000
  C   C4489     1.0  0.92109  0.50377  0.83361  1.0000
  H   H4472     1.0  0.90289  0.53044  0.75903  1.0000
  Fe  Fe760     1.0  0.97430  0.49465  0.86079  1.0000
  H   H4473     1.0  0.98297  0.51218  0.79577  1.0000
  C   C4490     1.0  0.97777  0.54646  0.74885  1.0000
  S   S1514     1.0  0.95809  0.54434  0.80239  1.0000
  C   C4491     1.0  0.93978  0.57380  0.78993  1.0000
  C   C4492     1.0  0.93582  0.56428  0.79200  1.0000
  C   C4493     1.0  0.93041  0.56306  0.78463  1.0000
  C   C4494     1.0  0.92925  0.57120  0.77505  1.0000
  C   C4495     1.0  0.93340  0.58060  0.77290  1.0000
  C   C4496     1.0  0.93851  0.58197  0.78042  1.0000
  H   H4474     1.0  0.93651  0.55807  0.79950  1.0000
  H   H4475     1.0  0.92716  0.55585  0.78640  1.0000
  H   H4476     1.0  0.93252  0.58691  0.76550  1.0000
  C   C4497     1.0  0.81078  0.49948  0.98373  1.0000
  C   C4498     1.0  0.85857  0.56359  0.92044  1.0000
  C   C4499     1.0  0.86497  0.55551  0.91463  1.0000
  C   C4500     1.0  0.87121  0.55852  0.90394  1.0000
  C   C4501     1.0  0.87131  0.56961  0.89912  1.0000
  C   C4502     1.0  0.86447  0.57771  0.90470  1.0000
  C   C4503     1.0  0.85810  0.57472  0.91533  1.0000
  H   H4477     1.0  0.86548  0.54689  0.91857  1.0000
  H   H4478     1.0  0.87617  0.55222  0.89960  1.0000
  H   H4479     1.0  0.86445  0.58631  0.90099  1.0000
  H   H4480     1.0  0.85334  0.58101  0.91981  1.0000
  H   H4481     1.0  0.93792  0.53616  0.82125  1.0000
  C   C4504     1.0  0.81533  0.52197  0.94764  1.0000
  C   C4505     1.0  0.82099  0.52494  0.93674  1.0000
  C   C4506     1.0  0.81787  0.52292  0.92812  1.0000
  C   C4507     1.0  0.80924  0.51771  0.93042  1.0000
  C   C4508     1.0  0.80382  0.51439  0.94136  1.0000
  C   C4509     1.0  0.80677  0.51665  0.94995  1.0000
  H   H4482     1.0  0.82785  0.52869  0.93495  1.0000
  H   H4483     1.0  0.82220  0.52534  0.91969  1.0000
  S   S1515     1.0  0.94568  0.57588  0.79950  1.0000
  H   H4484     1.0  0.80215  0.51466  0.95830  1.0000
  C   C4510     1.0  0.79332  0.54922  0.98486  1.0000
  C   C4511     1.0  0.98756  0.50936  0.86621  1.0000
  H   H4485     1.0  0.96175  0.57160  0.85857  1.0000
  H   H4486     1.0  0.86984  0.54026  0.74813  1.0000
  H   H4487     1.0  0.98057  0.54366  0.74121  1.0000
  H   H4488     1.0  0.92863  0.52981  0.84438  1.0000
  C   C4512     1.0  0.91026  0.50914  0.83371  1.0000
  H   H4489     1.0  0.80330  0.54807  0.93827  1.0000
  C   C4513     1.0  0.97118  0.55382  0.76856  1.0000
  C   C4514     1.0  0.97173  0.55720  0.74901  1.0000
  C   C4515     1.0  0.84600  0.58124  0.97488  1.0000
  H   H4490     1.0  0.94166  0.52044  0.74150  1.0000
  H   H4491     1.0  0.89474  0.52616  0.74614  1.0000
  H   H4492     1.0  0.97189  0.52772  0.84015  1.0000
  H   H4493     1.0  0.91480  0.49350  0.75039  1.0000
  N   N371      1.0  0.96635  0.53077  0.85636  1.0000
  C   C4516     1.0  0.95749  0.52620  0.85884  1.0000
  C   C4517     1.0  0.96945  0.53324  0.86445  1.0000
  N   N372      1.0  0.79503  0.54303  0.92921  1.0000
  C   C4518     1.0  0.78969  0.54155  0.94880  1.0000
  H   H4494     1.0  0.83426  0.49203  0.90815  1.0000
  H   H4495     1.0  0.93803  0.54806  0.74472  1.0000
  H   H4496     1.0  0.95576  0.53459  0.78408  1.0000
  S   S1516     1.0  0.93728  0.49190  0.78169  1.0000
  H   H4497     1.0  0.98464  0.57523  0.77235  1.0000
  H   H4498     1.0  0.98115  0.53236  0.84449  1.0000
  H   H4499     1.0  0.94478  0.51989  0.87173  1.0000
  C   C4519     1.0  0.93813  0.53476  0.75911  1.0000
  H   H4500     1.0  0.90533  0.50622  0.83016  1.0000
  C   C4520     1.0  0.87267  0.52459  0.74391  1.0000
  H   H4501     1.0  0.84555  0.49678  0.86691  1.0000
  H   H4502     1.0  0.98737  0.51753  0.74376  1.0000
  S   S1517     1.0  0.87698  0.51163  0.84473  1.0000
  C   C4521     1.0  0.98626  0.49595  0.74299  1.0000
  C   C4522     1.0  0.82770  0.59321  0.97743  1.0000
  H   H4503     1.0  0.87879  0.50706  0.82115  1.0000
  C   C4523     1.0  0.87092  0.56808  0.74153  1.0000
  H   H4504     1.0  0.80988  0.54759  0.91947  1.0000
  H   H4505     1.0  0.97632  0.53707  0.86244  1.0000
  C   C4524     1.0  0.91374  0.50117  0.88792  1.0000
  H   H4506     1.0  0.98579  0.53135  0.75825  1.0000
  H   H4507     1.0  0.87503  0.53201  0.85092  1.0000
  H   H4508     1.0  0.97477  0.50190  0.80008  1.0000
  Fe  Fe761     1.0  0.80229  0.49835  0.92546  1.0000
  H   H4509     1.0  0.92280  0.49768  0.76348  1.0000
  N   N373      1.0  0.90878  0.57802  0.81262  1.0000
  C   C4525     1.0  0.89950  0.57548  0.81982  1.0000
  C   C4526     1.0  0.91009  0.57901  0.80155  1.0000
  C   C4527     1.0  0.89132  0.57367  0.81600  1.0000
  C   C4528     1.0  0.90216  0.57710  0.79745  1.0000
  C   C4529     1.0  0.89275  0.57432  0.80476  1.0000
  C   C4530     1.0  0.91777  0.57879  0.81680  1.0000
  H   H4510     1.0  0.89859  0.57437  0.82864  1.0000
  H   H4511     1.0  0.91737  0.58113  0.79584  1.0000
  H   H4512     1.0  0.88416  0.57124  0.82177  1.0000
  H   H4513     1.0  0.90344  0.57755  0.78869  1.0000
  H   H4514     1.0  0.88669  0.57242  0.80177  1.0000
  H   H4515     1.0  0.92211  0.58517  0.81110  1.0000
  H   H4516     1.0  0.91485  0.58089  0.82505  1.0000
  H   H4517     1.0  0.92372  0.57075  0.81760  1.0000
  H   H4518     1.0  0.96688  0.53197  0.88194  1.0000
  H   H4519     1.0  0.84830  0.50963  0.89833  1.0000
  H   H4520     1.0  0.94153  0.58936  0.77883  1.0000
  H   H4521     1.0  0.97690  0.57821  0.82398  1.0000
  Fe  Fe762     1.0  0.87921  0.49337  0.84744  1.0000
  H   H4522     1.0  0.97992  0.49674  0.87790  1.0000
  C   C4531     1.0  0.90570  0.51032  0.79999  1.0000
  H   H4523     1.0  0.97550  0.51446  0.81519  1.0000
  H   H4524     1.0  0.86190  0.51242  0.88062  1.0000
  H   H4525     1.0  0.91416  0.49951  0.85969  1.0000
  C   C4532     1.0  0.97760  0.54324  0.76830  1.0000
  S   S1518     1.0  0.81299  0.57071  0.97583  1.0000
  H   H4526     1.0  0.79097  0.54284  0.95620  1.0000
  C   C4533     1.0  0.92727  0.50763  0.83832  1.0000
  C   C4534     1.0  0.94074  0.53087  0.76948  1.0000
  N   N374      1.0  0.90092  0.56338  0.90585  1.0000
  C   C4535     1.0  0.89137  0.56978  0.91030  1.0000
  C   C4536     1.0  0.90403  0.55258  0.91093  1.0000
  C   C4537     1.0  0.88453  0.56533  0.91996  1.0000
  C   C4538     1.0  0.89722  0.54780  0.92044  1.0000
  C   C4539     1.0  0.88737  0.55422  0.92493  1.0000
  C   C4540     1.0  0.90799  0.56828  0.89578  1.0000
  H   H4527     1.0  0.88883  0.57830  0.90617  1.0000
  H   H4528     1.0  0.91168  0.54753  0.90747  1.0000
  H   H4529     1.0  0.87685  0.57037  0.92334  1.0000
  H   H4530     1.0  0.89953  0.53914  0.92422  1.0000
  H   H4531     1.0  0.88184  0.55061  0.93213  1.0000
  H   H4532     1.0  0.91255  0.57325  0.89775  1.0000
  H   H4533     1.0  0.91395  0.56186  0.89170  1.0000
  H   H4534     1.0  0.90307  0.57363  0.88973  1.0000
  N   N375      1.0  0.92282  0.51671  0.84280  1.0000
  H   H4535     1.0  0.84691  0.58252  0.98248  1.0000
  C   C4541     1.0  0.91216  0.52190  0.84311  1.0000
  H   H4536     1.0  0.83006  0.50669  0.90761  1.0000
  C   C4542     1.0  0.90575  0.51828  0.83845  1.0000
  C   C4543     1.0  0.98441  0.50645  0.88612  1.0000
  H   H4537     1.0  0.92649  0.51902  0.85674  1.0000
  H   H4538     1.0  0.86181  0.57029  0.97219  1.0000
  H   H4539     1.0  0.90857  0.52886  0.84700  1.0000
  C   C4544     1.0  0.91658  0.50386  0.75983  1.0000
  H   H4540     1.0  0.98430  0.55105  0.83640  1.0000
  H   H4541     1.0  0.94921  0.49534  0.90313  1.0000
  N   N376      1.0  0.98541  0.57975  0.84577  1.0000
  C   C4545     1.0  0.89128  0.51643  0.81473  1.0000
  Fe  Fe763     1.0  0.95838  0.56092  0.80405  1.0000
  H   H4542     1.0  0.92472  0.49676  0.82979  1.0000
  H   H4543     1.0  0.88877  0.57901  0.74617  1.0000
  H   H4544     1.0  0.94612  0.55906  0.75193  1.0000
  H   H4545     1.0  0.92350  0.57288  0.74168  1.0000
  H   H4546     1.0  0.82776  0.58771  0.95907  1.0000
  C   C4546     1.0  0.88635  0.50803  0.81518  1.0000
  H   H4547     1.0  0.95935  0.50415  0.82318  1.0000
  H   H4548     1.0  0.91139  0.49828  0.78542  1.0000
  C   C4547     1.0  0.85529  0.50850  0.88146  1.0000
  S   S1519     1.0  0.80516  0.51541  0.91964  1.0000
  C   C4548     1.0  0.93479  0.52534  0.81311  1.0000
  C   C4549     1.0  0.94940  0.52054  0.82281  1.0000
  C   C4550     1.0  0.84756  0.50693  0.89142  1.0000
  C   C4551     1.0  0.79665  0.54450  0.93862  1.0000
  H   H4549     1.0  0.89735  0.52255  0.83852  1.0000
  C   C4552     1.0  0.94047  0.52813  0.81925  1.0000
  C   C4553     1.0  0.89120  0.50096  0.80788  1.0000
  S   S1520     1.0  0.96242  0.55516  0.82073  1.0000
  H   H4550     1.0  0.80499  0.52304  0.98195  1.0000
  H   H4551     1.0  0.97457  0.51637  0.74208  1.0000
  Fe  Fe764     1.0  0.96370  0.53832  0.81821  1.0000
  C   C4554     1.0  0.98531  0.58049  0.83504  1.0000
  H   H4552     1.0  0.91296  0.49354  0.88618  1.0000
  H   H4553     1.0  0.82322  0.50043  0.90177  1.0000
  H   H4554     1.0  0.92786  0.53120  0.81040  1.0000
  C   C4555     1.0  0.96412  0.53040  0.87549  1.0000
  C   C4556     1.0  0.95260  0.51014  0.82026  1.0000
  S   S1521     1.0  0.95688  0.52428  0.82993  1.0000
  H   H4555     1.0  0.88689  0.49749  0.86207  1.0000
  C   C4557     1.0  0.97700  0.57673  0.85413  1.0000
  H   H4556     1.0  0.79788  0.55499  0.91438  1.0000
  N   N377      1.0  0.83651  0.58591  0.97132  1.0000
  H   H4557     1.0  0.95015  0.55204  0.77047  1.0000
  H   H4558     1.0  0.83200  0.49436  0.88462  1.0000
  C   C4558     1.0  0.94708  0.54700  0.76719  1.0000
  H   H4559     1.0  0.84267  0.57575  0.94838  1.0000
  S   S1522     1.0  0.98228  0.53487  0.77997  1.0000
  C   C4559     1.0  0.94626  0.48908  0.74714  1.0000
  N   N378      1.0  0.94529  0.53694  0.77331  1.0000
  C   C4560     1.0  0.90109  0.51751  0.80717  1.0000
  C   C4561     1.0  0.94780  0.53299  0.78427  1.0000
  H   H4560     1.0  0.91333  0.51123  0.79416  1.0000
  C   C4562     1.0  0.90598  0.57627  0.74511  1.0000
  C   C4563     1.0  0.93826  0.51511  0.81018  1.0000
  H   H4561     1.0  0.98104  0.50209  0.89429  1.0000
  Fe  Fe765     1.0  0.94201  0.49828  0.79372  1.0000
  H   H4562     1.0  0.93809  0.51672  0.84574  1.0000
  N   N379      1.0  0.90066  0.50229  0.80029  1.0000
  H   H4563     1.0  0.90509  0.52393  0.80681  1.0000
  S   S1523     1.0  0.97560  0.56017  0.79458  1.0000
  C   C4564     1.0  0.94718  0.50753  0.81375  1.0000
  H   H4564     1.0  0.98632  0.57837  0.73806  1.0000
  C   C4565     1.0  0.83846  0.49844  0.88376  1.0000
  C   C4566     1.0  0.93048  0.48938  0.89344  1.0000
  H   H4565     1.0  0.93890  0.52308  0.77450  1.0000
  H   H4566     1.0  0.83503  0.55743  0.97496  1.0000
  H   H4567     1.0  0.96858  0.55672  0.77614  1.0000
  H   H4568     1.0  0.90496  0.57776  0.75322  1.0000
  C   C4567     1.0  0.90568  0.49470  0.79283  1.0000
  C   C4568     1.0  0.85449  0.50495  0.87256  1.0000
  C   C4569     1.0  0.98364  0.50351  0.87680  1.0000
  H   H4569     1.0  0.90636  0.50391  0.89410  1.0000
  C   C4570     1.0  0.93488  0.50687  0.89850  1.0000
  H   H4570     1.0  0.88735  0.49441  0.80830  1.0000
  C   C4571     1.0  0.85447  0.57428  0.96909  1.0000
  H   H4571     1.0  0.93563  0.50334  0.83837  1.0000
  N   N380      1.0  0.83920  0.50209  0.89242  1.0000
  C   C4572     1.0  0.98009  0.51395  0.74789  1.0000
  N   N381      1.0  0.98339  0.50192  0.75096  1.0000
  C   C4573     1.0  0.81378  0.49746  0.97311  1.0000
  H   H4572     1.0  0.87647  0.51991  0.75075  1.0000
  C   C4574     1.0  0.92933  0.52079  0.84765  1.0000
  C   C4575     1.0  0.83231  0.49662  0.97223  1.0000
  Fe  Fe766     1.0  0.97980  0.55304  0.81118  1.0000
  H   H4573     1.0  0.88752  0.52206  0.82026  1.0000
  H   H4574     1.0  0.87443  0.51035  0.73759  1.0000
  H   H4575     1.0  0.97899  0.50877  0.83397  1.0000
  C   C4576     1.0  0.83134  0.50021  0.90300  1.0000
  H   H4576     1.0  0.89304  0.54711  0.74424  1.0000
  S   S1524     1.0  0.98022  0.54958  0.90154  1.0000
  C   C4577     1.0  0.96833  0.56083  0.75889  1.0000
  Fe  Fe767     1.0  0.97570  0.54293  0.79446  1.0000
  S   S1525     1.0  0.98438  0.54722  0.87610  1.0000
  C   C4578     1.0  0.90389  0.50939  0.74778  1.0000
  S   S1526     1.0  0.95952  0.49853  0.75328  1.0000
  C   C4579     1.0  0.80350  0.53065  0.98460  1.0000
  H   H4577     1.0  0.80757  0.49684  0.96945  1.0000
  H   H4578     1.0  0.96358  0.56911  0.75906  1.0000
  C   C4580     1.0  0.82961  0.49855  0.98287  1.0000
  S   S1527     1.0  0.95832  0.50032  0.78295  1.0000
  C   C4581     1.0  0.88684  0.55315  0.74043  1.0000
  S   S1528     1.0  0.98472  0.50709  0.85467  1.0000
  H   H4579     1.0  0.96892  0.54199  0.84098  1.0000
  H   H4580     1.0  0.97553  0.51755  0.75514  1.0000
  C   C4582     1.0  0.85325  0.57226  0.95952  1.0000
  C   C4583     1.0  0.98495  0.57812  0.75505  1.0000
  H   H4581     1.0  0.86041  0.50613  0.86478  1.0000
  H   H4582     1.0  0.98143  0.50145  0.76799  1.0000
  C   C4584     1.0  0.94471  0.55105  0.75673  1.0000
  H   H4583     1.0  0.94131  0.53724  0.79026  1.0000
  H   H4584     1.0  0.78989  0.53840  0.97693  1.0000
  C   C4585     1.0  0.95178  0.52354  0.86976  1.0000
  H   H4585     1.0  0.86476  0.57362  0.74616  1.0000
  H   H4586     1.0  0.94836  0.52399  0.78727  1.0000
  H   H4587     1.0  0.95110  0.52321  0.88665  1.0000
  S   S1529     1.0  0.96029  0.49561  0.87532  1.0000
  S   S1530     1.0  0.93150  0.51193  0.80197  1.0000
  H   H4588     1.0  0.95489  0.52447  0.85239  1.0000
  H   H4589     1.0  0.89151  0.50079  0.87783  1.0000
  S   S1531     1.0  0.98150  0.53560  0.81019  1.0000
  C   C4586     1.0  0.91191  0.50143  0.75256  1.0000
  S   S1532     1.0  0.93458  0.49574  0.86549  1.0000
  C   C4587     1.0  0.83233  0.56058  0.98236  1.0000
  C   C4588     1.0  0.97234  0.53343  0.84491  1.0000
  C   C4589     1.0  0.80200  0.54678  0.91851  1.0000
  C   C4590     1.0  0.84608  0.49981  0.87372  1.0000
  H   H4590     1.0  0.84074  0.49550  0.96779  1.0000
  H   H4591     1.0  0.97696  0.57629  0.86263  1.0000
  H   H4592     1.0  0.82042  0.49369  0.95350  1.0000
  H   H4593     1.0  0.80387  0.54082  0.91316  1.0000
  H   H4594     1.0  0.89939  0.49289  0.78978  1.0000
  C   C4591     1.0  0.91639  0.57349  0.73864  1.0000
  H   H4595     1.0  0.91394  0.50754  0.88009  1.0000
  C   C4592     1.0  0.94015  0.54490  0.75271  1.0000
  H   H4596     1.0  0.96161  0.57258  0.83910  1.0000
  H   H4597     1.0  0.82831  0.60191  0.97380  1.0000
  C   C4593     1.0  0.94194  0.49654  0.90008  1.0000
  C   C4594     1.0  0.96823  0.57469  0.84097  1.0000
  C   C4595     1.0  0.82752  0.49420  0.95627  1.0000
  H   H4598     1.0  0.97966  0.58626  0.75469  1.0000
  N   N382      1.0  0.92357  0.49951  0.89198  1.0000
  H   H4599     1.0  0.81962  0.59220  0.97720  1.0000
  H   H4600     1.0  0.78817  0.50498  0.97412  1.0000
  S   S1533     1.0  0.96916  0.56644  0.73675  1.0000
  H   H4601     1.0  0.85964  0.56675  0.95500  1.0000
  C   C4596     1.0  0.84366  0.57727  0.95582  1.0000
  H   H4602     1.0  0.94985  0.49962  0.81156  1.0000
  C   C4597     1.0  0.96833  0.57408  0.85187  1.0000
  C   C4598     1.0  0.98283  0.50343  0.82819  1.0000
  N   N383      1.0  0.98559  0.49990  0.81025  1.0000
  C   C4599     1.0  0.95572  0.49320  0.74411  1.0000
  C   C4600     1.0  0.98077  0.53951  0.75848  1.0000
  C   C4601     1.0  0.98092  0.50663  0.81754  1.0000
  C   C4602     1.0  0.86899  0.53598  0.74241  1.0000
  H   H4603     1.0  0.93649  0.51380  0.90044  1.0000
  Fe  Fe768     1.0  0.95423  0.49239  0.77168  1.0000
  S   S1534     1.0  0.89760  0.50613  0.73923  1.0000
  C   C4603     1.0  0.98773  0.57193  0.76496  1.0000
  S   S1535     1.0  0.96515  0.48987  0.85132  1.0000
  H   H4604     1.0  0.78834  0.57055  0.95066  1.0000
  H   H4605     1.0  0.93433  0.53005  0.75617  1.0000
  N   N384      1.0  0.82443  0.49613  0.96748  1.0000
  C   C4604     1.0  0.98295  0.50330  0.79935  1.0000
  C   C4605     1.0  0.98362  0.49673  0.76169  1.0000
  H   H4606     1.0  0.92597  0.51456  0.73992  1.0000
  C   C4606     1.0  0.89691  0.57699  0.74114  1.0000
  C   C4607     1.0  0.91686  0.49074  0.86257  1.0000
  C   C4608     1.0  0.79505  0.53935  0.98167  1.0000
  H   H4607     1.0  0.83100  0.50109  0.95040  1.0000
  S   S1536     1.0  0.78856  0.49281  0.93865  1.0000
  H   H4608     1.0  0.82802  0.59120  0.98628  1.0000
