data_image0
_chemical_formula_structural       FeS2FeS2FeSFeS2FeS2FeS2FeSFeS3FeS2FeS2FeSFeHS2CHCFeS2H2CNH4C4HC3H5CH2C6H4C3H2C6H4C6H4C3HCHC2FeHCHCH4C2HCH2CH2C2HCH4CHCHNHNC7HCH2SCSNC2HSH2CHC3H2C4HCH2CH3CSHC5H3C2SCHCH5CNH5CHCHC3HCH2CHNC3H2NH5CHCHCH3FeC2HSCNCH3CHC3HCHCHC3H3CH2SHC2H2CH4CHS2FeHSHCFeS2CNC2HCHC4FeSFeSCFeCFeS3CH7CSC2FeHS2H5C2H2C8H4CHSHFeSC3SC7H3CSH3C7HNH2FeSCNSCHSHC2H5CH2FeHC2SHC3HCHC3HCHFeCHCSNH2C2NC2HCSHFeC2HCH2CNCHNHCSH3CSH2CH3SCFeS2CHFeSCHS2FeS2FeS2CFeS2FeSHFeSFeS3FeS2FeS2HFeSHSH2SCSHFeS2FeS2FeSFeS3HC4H2C2H3C3HCSH2FeS2CHCFeCFeCS2FeS2FeS2FeSFeHS2FeS2FeS2FeSFeCS2FeS2CSFeSFeSCSH4C6H6C6H4C6H4SC2H2C3H3C5HCH3C4H2C6H5CH2CH2C2HC6H4C6H4C6H4C6H3C6H4C6H4C6H4C6H4FeH2C2H2SCHCH2CFeC2SCH2CHCH2C2SCHCHCHCH2NC6H8FeCHCHFeCHC2HFeSFeC2H2C3HNC6H10NC2NCH2CNCSFeHNC6H8NC6H8NC2H3CHCH2CHCHNHNCH3S2C4HSC3H2FeCFeC2SHCN2C2H6CHCSH3CSCH4C3NH2CHSCHNCNSHCH3NC2H3CSHFeC2HCHCH2CSHSFeHNCHC2HC2HFeSH2CSH4CHFeH2FeNC2HSHSCH3C2HSHC2HC2H3CH6SH2C5H2CHCH3CHCHCH3C3SC3H4CHC2HC2FeS2FeS2FeSFeS3FeS2FeS2FeSFeS3FeS2FeS2FeSFeS3FeS2FeS2FeSFeS3CHSHC2HCNHFeCH2C2HCHFeS2FeS2FeHFeS3FeS2FeS2FeHFeS3HFeS2FeS2FeSFeS4CHFeS2FeS2FeSFeS3H2CHC2H4SH2CH2CHC3HSC6H4C6H4CH4CH3C3FeC2HC8H4C6H4C6H2CHCHC2HCSH2CHCHNH3C3H4C6H4C2HC2HSHCH2CHC6H4C6H4C6H4C6H4C6H4C6H4C6H4CHC2H2CHNHCHC3SCH2CHSHCSCNC6H8NH3C2HCNH3C3H4CSCFeNFeCH2C2HNC2H2SC4H2C3H2CH2NCFeSCSH2CHCHC2NC6H8CHCSHCHCHFeC2H2FeSHC2S2HCFeCSCHCH4C3H4CNH2C3HNHCNCH2CH2CHCH2SFeCH2C3H2CNCHCH2C2SHC2SH3NCH3NCHNC3H4C2HC3H9S2CHC4H3CH3CFeCHC2H2FeCH4CHCHC2H2SHCHSHCH2NHC2N2H2CHFeNC2HCHCNCH4C3SC2HC3H2NCHCH3C2FeHC3HC3NC2HCH3CHCH6CH2CH2SCH7FeSHFeS2FeSFeS3FeS2FeS2FeSFeS3CH2CFeS2FeS2FeSFeS3HC2NCH5C6H3C2HC4H6C4HCH6CH2CHSFeC6H4C6H4CSHC2HC2HC2H5CH3CFeC3SCH2C2SC3NFeHNC2HCHC2HFeCH2NC6H4CHCH3C2SCHCH3CHC2NC2H5CHC2HNCNC2NSCHSCHSCHCHC2SC4SNCHC2HCH6SC3HC2HCHC2HC2HCH2C2H3CH2C2H2C3H2C2H3CHC2HCHFeS2FeS2FeNFeS3FeS2FeSHFeSFeHS2HC2HSH3CHC2HNHCSHFeCSC2FeNCSH2NHCH2C2HCH3NCSC2H2C4HSC2H4C7H3CHNCHC6H4C6HNH3C2NH2CHSC2HSHSCH3C3S2H3CFeC2HC2HCH2SCFeHC4HCH2CH5C2HNH3C2HCSH2SCH4CFeHCH3C3HSHCHFeS2FeS2FeSFeCS2FeSFeS2FeCFeS3HSFeS2FeCFeSCSFeS2FeHFeCFeS5CS2FeSFeSH2FeS2FeS2Fe2CS3CFeSFeSC8H3C6H3C7H4C6H4C6H4C6H4C6H4C3H3CNC2HCH13C2H2CSC2HCH3C2H4C2HNC3HC2H5CH2NHCHNHCHCH4CH2CS2CSHSHCH4C2H3NC2H2CNH3FeC2H2C3HCNHFeCH2SC2HCSCSHCHC4H2CHCHSCHC2HC2H2CHC2H5NC2NH3C2SCH6CHCHC2HCH4C2SC2H2C2H2CHC2NH3CH4NCFeS2FeS2FeHFeS3FeS2FeS2FeCFeCS2CFeS2FeC4HS3H2CH2CFeS2FeS2FeCFeHS2FeS2FeS2FeHFeS3CSH2SFeSFeSCHC6H4C6H4CNHCH5CHC4H3CH2C2HC2HC7H3CH5CHC3HCHCH3FeHSHSHCHCH2CNC6H4C2H2CHSCNSC6H4C2HCH2CSH3SCSH3NC3H2CH8CHCFeHCHCH3CH5NH2FeCHSCHSC3FeH5NC3HSCH3FeC2H3CHFeCFeHNH2C2H2CHC2H2CHCH2SC4HC2H2SCNCHCFeCHCSHCFeHCSHCHS2C2H2CHSC2H3SNC2NC2SHCHCHCSHCFeCNCH2NHNCH2C2S2H2SFeSCFeSFe2CFeSH2FeS2FeSCFeSFeS3CSHSCFeHFeSNHFeS2FeHSFeHFeS3FeS2C8HSH2C6H4C6H3FeC2SH2C6H4C2HC2H2C2Fe2H3SHSC2HC2S2CH3C2H2SH4SH2CNSH4CH2NC6H8C4HCSCH2CH3C2HSC2HFeHCHSH2FeHCHCH2NH4CHC3H2C4H3SHCH2CSCFeS2FeSHSHCFeCSCHC4HFeS2FeS2FeSFeS3C3HCSHFeS2FeS2FeSFeS3C6H4C7H8CHCFeCHC6H4C5H3C2SC4H5S2CHCSHC5HCHCHCH3C6H4C6H8CHCH5SHCHCHC2HCH2CH2C5NHCHFeHCHNH2CHC2SHFeSHC5SCSNCHNHCHCH2CSC2H3CFeHFeHC4NC3H4NHC2SHNCNCHNC2H2C2HCH2C2H4CH4CHN2C6H10CH3SHSHCHCH2CHC4NSHC2H2CH2CH3C3SHCN2C3NH2CHCHCFeSHFeSCFeSFeS3FeS2FeS2FeSFeCS2FeS2FeS2FeSCS2CHC2H2C2HCH2FeS2FeS2FeSFeS3HCFeS2H2SFeHCFeS2FeHFeHS2H5C2H2CSHC5H2CHCH2CNH3SCHN2H2C2H2SC6H5CFeHC2HCH4CHCH2C2HC6H3SHC2SH2CH2SCN2HNH2C6H4C6H4C6H4C6H4C6H6CFeH3C2HCH2SH2C2H2CHSHCH2CFeHNHC3H7C2H2CHC2HC3H2CHCHC4H3CNC6H8CNC4FeCH4C3HCHSC2NCH2SHC2HCHCNC6HCHCSH2SHCH2CHCHC3HCH4SC5H5C2HCHCHCH2CHCHC2HC2H3C2HCNHNCSCFeS2FeSCS2FeS2FeSFeCHSHSHFeS2FeS2FeS2FeSFeS3FeS2FeS2FeSFeS3FeS2FeS2Fe2HS2H2C2HCHCNH2CFeS2FeSCFeCFeHS2H2CH2FeHSCHCH2C5HCNCH2CH3NH3SHC3H2CH3C6H5NC2H4C2HC3HC6H5C5H2SH2C6H4C2FeHC2H2C8H5SNC2HC6H4C6H3CH3C2NC5HNHCHC3H2SHC2HC3H2NC6H9FeHC3HCHSC5NHCSH3CHNHCH3CH3CHCHCHCHCHCH2CH4SCHCH2CHCHC2SHCSC3HCHCH2NCHFeCHCH2C2HC2HCHC4HC2NCHC2H2FeH3CHCHCH2C2HNH2CHSHC3NFeS2FeSFe2SFeS3FeS2FeS2FeSFeHS2NHCS2Fe2S2FeHC3H3S4HSCFeSFeS2CNH3CH2C2FeHC3SCFeHCHCSNSH2C3SH2C5FeH2CSCNHCHCH4SHCHC2HFeHC10H4C5H4SCH3SCHSHC2HNH2C6H4C6H4C6H4C2HSC2HSC2HCH2CHCHC3HCH2CH2CS2HNC2HCHC2H2SHC2HSCHC2H3C2H2CSC2H2CHC2SH2CSCH3CHN2C2SFeHC3H2FeHCHCHCHFeH2SC2FeHFeHFeH3CSCHCH2CSHCFeSH3FeCFeC3H5C2H5C3SNH4C2SH5CH2CSC5H3C2HC2HCHFeS2FeH2NHS2CFeSFeSCFeSFeS4H2CH4CHC2HCH4CHCFe2S2FeS2FeSFeS3FeS2FeSHFeSFeS3HFeS2FeSHFeSFeS3NHCHC6SC2H2CHCNC2H4C8H7CSH2C2HC6H4C5H3SH2CHC5H2C4HCN2CSC8H5CH2CSHCHCNHC3H2CHCHC8H2CHC6FeH4NSH2SCHC3H4NC2H2C5H2FeNHC2SCHCHC4SC2HCFeCH3CH2FeHC2H3C2SHCH3C2HC2HNH3CFeHCHC4HC2H2CSH3NHCHSCH2C3HC2HCHSCH4CHNCHNH2C2SHCSH2CSHFeCHC3HC4HNC2HC2HC3HCSHCHC5H2C3H2C2H2CH5CHC2H4CHCHCH7SHCHSCSH2CH3NC2HCSCH2SCFeS2FeSFeS3CS2Fe2CFeS2HSCFeSFeS3FeCSHCSNFeCHCH5CSC2SC2HSC2HCFeNCHCH4SH2CHC6H4C6FeH5FeH8CHSC2FeCHSC6H4C3H2C6H4CNS2HNC3H2C2SCSHCSFeCHCNH6NC2SCHC3HC2HC2SHFeCH2CHSCHC2HCHFeNFeC2H2C3HCH6C2HC3H3FeS2FeS2FeSFeS3FeSHC2HFeSFeSHFeS2FeS2FeSFeS3FeS2FeS2FeHFeCS2FeCSCSC2HCH2CHNC2H2C2HC6H4C6H5C2HSHNHCSCHCH2NHSHC6H4C6H4C2SH2CHC2HFeHC2H2CHFeC2H3CH3NCHCSHCH3CH2C4HC3H2C2HSH2CHCH2NC6H7NH2C3HNC6H8CHSH2CH2CFeCHFeSCNC4SCH2NHCH3C3HC3SNC2H3C2H3CSCSHNHFeCHSHSC2H2C2HCHC2HCHC2SC2HC3H4C4HCH5CHCHSCSH3CH2CH5FeSCFeSHFeSFeS3FeSCFeS2FeSFeS3FeS2FeS2FeSFeS3HCFeS2FeSCFeSFeS3FeS2FeS2FeSFeS3HCH3CH2CH2CH2C3FeCSFeC2H2CSHSC2HSCH2C2SC2H3SCHC5H4C7H6S2C3SHC3HCNHC2H2FeNFeH3NC6H4C2H2CH2SFeHCH2SNH3CHC6H4C2N2CHC3HC6H4C6H4SCH7FeHC3H2CSHNHC2HSHCH2C3NC3HC2SHCHCHSC5SCHCHNH4CH5CHC3NC5H9NC6H8C2HCH3CH3NCSHC2H2CHCHSH3C4NHCH2C2HCHCHC4HCH2C2HC2HFeH2CSC2HCH3C2HC2SNHC7HNC3FeH2SHCSH2C2H3CHSHC2H3NHCH2C3SCH2CH2FeS2FeS2FeSFeS3FeS2FeSHFeSFeS3FeSHFeS2FeSFeS3FeS2FeHFeSFeS3FeCSHCFeS2FeS2FeHFeHS2FeS2FeS2FeCFeS3CH5C6H2CHC2HSC6H3CHC2H2C6H4C6H4NHCH2C8H4CH2SC2HC6H4C6H6NCH5C4H3CSC5NCH8CH2NC4HCH3C2H5CHCHCNH2CSH2SNC6H5C2HNHC9HSCNC6H8NC5H4CHC3HC3H2CH4C2H4C4HC3SH2CHC2H2SC4HCHC2H2CHCH2CHNC2NC2H5CH2CHC9HC2HCH3NC3H2CH4CH3SH3CHC2H3NH2C4H2C2HCHCNCH4CNCHC2HCHCH3CHFeHCHCH4SH3CHSHCHSHC2H2C6HNSH2CH2C2H2SH5NCH3C2H2NFeSCFeS2FeS2FeSFeS3FeS2FeS2FeSFeS3FeS2FeS2FeCFeHS2HCHC2H2CNSHC2HC3SHC6H4CHFeH2C6H4C3H6C7H4CHCH3C2H3C2H5C2HC3SC2HFeHS2C5NH2NC6H9CH6CNH2SNHNC6H8C2FeC2SH2CHC3HC6HC2H2NC2SCH4CH4CH2C2NH2CH2CHCH7CSC2HC3FeS2FeSHFeSFeS3Fe2SFeS2FeSFeHS2FeS2FeS2FeCFeNS2H2SHSHCHSC2HCHC6H4C2HC2HC3HSC3HFeHCSH5CNSNC8H4CH2SHC6H4FeC2FeCH4CNSH4CHCFeH2CSCHC2FeHSCNH5CHC2H8CH2CHCHFeH5C3HC2FeS2FeS2FeSFeCS2FeSCFeS2FeSFeS3FeS2FeS2FeSFeS3FeS2FeS2FeHFeS3FeS2FeS2FeCFeS3FeS2FeS2FeSFeS3HNCHSFeS2FeS2FeHFeS3FeSHFeS2FeSFeS3CFeHSHC4SHC2H3C6H7C4HC6H5CH7C7H4CHC5H2CSHC3HCHCHC6H4C6H4C6H4C6H4C6H4C6H4C6H4C6H4C6H4SHC2HC2HFeH2CHCHC2H2CFeC3NCSH3C2SCHCHSH4CSH2C6H5CH2FeCNC2HC2H2CSH3CSHC4NH5SC5SHS2C5H5CNC4SCH3C2H3SHC2HC2SNCHC3H2FeHC2S2NHCHNHFeH5C2HC2HCHCH2C4H4NC6H10CSCSNCH4CH3C3H2CHCHCHCNSHNC2HFeSCHC2H3CNH3CNH3CSC2NHNC6H8SC3HC3HC2HCH2Fe2CHNCH5C2H2CH3CHN2H2CNCH2SH3CH6SC2H4SC2NC3HC3H2SFeS2FeS2FeSFeS3CHFeS2FeSFeS3FeS2FeS2FeHFeS3FeSFeSFeS2HNS2HFeHCH3CFeS2FeSNC2FeS2HCS2FeS2FeS2FeSFeHS2C2FeS2FeCH3CFeS2FeS2CSFeS3FeSNHCH2FeH2SFeSHFeS2FeSFeS3C6SC3HSH2C6H5C7H4C6H4C6H4CH6NFeHC6H4CS2H4CHCHSH3C7H3NC6H4C6H3C6H4C6H5FeHC6H4C6H4C6H4C2H3CHC2HCH3N2C6H9C2H2SHCHNC6H9NC6H13CH2CH3C2HNH2CHC2HC2HC2HNHCFeHCHC2HSCHCNC5H2CH4SHNC6HCHC2H3NC6H4CSNHC2HC4H3CHNCHCH3NC2H2SHFeHCSH3C2FeS2CH2CSNSC2FeH4C2HSHFeH2C2HSCH2CHC3H2CHSHFeHCHC4H2CSC3HSHCH4CH5C3SC4HC2SCHC5NC2H4CH2CH2CH4CHC2HCHCFeCSFeS2FeS3CS2HCHCHSH2SCHCSH2C2HSH2CH5FeHS2H2SC8H3CHC2SC3HC2NH2C2NHFeCHCH2CH2C2H2FeC2SHCHC2H3CH2NC6H4C7H2C8H4CH4FeC4H2C2SH4N2CHCH2NHC2HC4SH2CFeCHSHFeSCHCFeC3SHC3HFeCSH2C2FeCHCHSNC3S2H2CH2CFeHCH3CH2CH3CHCHC2HNSNH2CHC4SH3CNCFeS2FeSHFeSFeS3FeSHFeS2FeSFeS2FeHSH3C2HCHFeH2CSH2C4H2SC8H5CHC6H4C6H5C2HCH2CH2CH2SH4SCHCHCH2C2HC3Fe2H2CS2H2C2HFeC2NSC2HS2CHCFeH3NCSCHSNCH3CH2CNC2HC4H2C2HC3H2C2H2SC3H2C2SC2H
_chemical_formula_sum              "Fe576 S1152 H3456 C3456 N288"
_cell_length_a       107.731
_cell_length_b       106.863
_cell_length_c       106.575
_cell_angle_alpha    73.6883
_cell_angle_beta     73.7128
_cell_angle_gamma    73.6513

_space_group_name_H-M_alt    "P 1"
_space_group_IT_number       1

loop_
  _space_group_symop_operation_xyz
  'x, y, z'

loop_
  _atom_site_type_symbol
  _atom_site_label
  _atom_site_symmetry_multiplicity
  _atom_site_fract_x
  _atom_site_fract_y
  _atom_site_fract_z
  _atom_site_occupancy
  Fe  Fe1       1.0  0.12596  0.03136  0.43551  1.0000
  S   S1        1.0  0.10957  0.02301  0.43448  1.0000
  S   S2        1.0  0.12297  0.04159  0.45211  1.0000
  Fe  Fe2       1.0  0.14326  0.02463  0.40983  1.0000
  S   S3        1.0  0.12809  0.01606  0.40603  1.0000
  S   S4        1.0  0.16290  0.02485  0.39508  1.0000
  Fe  Fe3       1.0  0.11317  0.03377  0.41290  1.0000
  S   S5        1.0  0.09433  0.04476  0.40557  1.0000
  Fe  Fe4       1.0  0.12559  0.00610  0.42782  1.0000
  S   S6        1.0  0.12862  0.04332  0.41442  1.0000
  S   S7        1.0  0.14178  0.01339  0.43113  1.0000
  Fe  Fe5       1.0  0.02378  0.12208  0.39929  1.0000
  S   S8        1.0  0.01563  0.13678  0.41249  1.0000
  S   S9        1.0  0.01024  0.11718  0.38959  1.0000
  Fe  Fe6       1.0  0.05194  0.11723  0.40250  1.0000
  S   S10       1.0  0.04638  0.13155  0.41602  1.0000
  S   S11       1.0  0.07361  0.10740  0.39699  1.0000
  Fe  Fe7       1.0  0.02873  0.12227  0.42546  1.0000
  S   S12       1.0  0.02067  0.11785  0.44749  1.0000
  Fe  Fe8       1.0  0.03370  0.14508  0.40201  1.0000
  S   S13       1.0  0.03022  0.16760  0.39567  1.0000
  S   S14       1.0  0.03543  0.10662  0.41329  1.0000
  S   S15       1.0  0.04082  0.13163  0.38733  1.0000
  Fe  Fe9       1.0  0.03338  0.25566  0.41000  1.0000
  S   S16       1.0  0.01265  0.26281  0.40693  1.0000
  S   S17       1.0  0.04477  0.27206  0.40323  1.0000
  Fe  Fe10      1.0  0.03014  0.22673  0.42057  1.0000
  S   S18       1.0  0.00893  0.23207  0.41879  1.0000
  S   S19       1.0  0.03912  0.20490  0.42797  1.0000
  Fe  Fe11      1.0  0.01653  0.24459  0.39881  1.0000
  S   S20       1.0  0.01137  0.24620  0.37927  1.0000
  Fe  Fe12      1.0  0.00733  0.24963  0.42709  1.0000
  H   H1        1.0  0.99668  0.31844  0.45197  1.0000
  S   S21       1.0  0.03786  0.23834  0.40008  1.0000
  S   S22       1.0  0.02791  0.24338  0.43079  1.0000
  C   C1        1.0  0.99715  0.21262  0.38933  1.0000
  H   H2        1.0  0.19871  0.05441  0.44226  1.0000
  C   C2        1.0  0.16117  0.04393  0.46042  1.0000
  Fe  Fe13      1.0  0.22694  0.02417  0.41947  1.0000
  S   S23       1.0  0.21817  0.02962  0.40130  1.0000
  S   S24       1.0  0.21513  0.02511  0.44020  1.0000
  H   H3        1.0  0.04014  0.21636  0.44958  1.0000
  H   H4        1.0  0.01565  0.16961  0.47351  1.0000
  C   C3        1.0  0.05447  0.19706  0.37898  1.0000
  N   N1        1.0  0.19114  0.05922  0.42462  1.0000
  H   H5        1.0  0.12817  0.05786  0.46634  1.0000
  H   H6        1.0  0.01971  0.27576  0.43827  1.0000
  H   H7        1.0  0.18922  0.05585  0.39462  1.0000
  H   H8        1.0  0.17489  0.06192  0.44121  1.0000
  C   C4        1.0  0.22335  0.02252  0.47846  1.0000
  C   C5        1.0  0.99367  0.22432  0.36720  1.0000
  C   C6        1.0  0.04279  0.28277  0.41393  1.0000
  C   C7        1.0  0.03787  0.29657  0.40986  1.0000
  H   H9        1.0  0.01224  0.28924  0.41529  1.0000
  C   C8        1.0  0.04246  0.30052  0.42932  1.0000
  C   C9        1.0  0.04734  0.28673  0.43339  1.0000
  C   C10       1.0  0.04739  0.27787  0.42580  1.0000
  H   H10       1.0  0.03440  0.30039  0.40062  1.0000
  H   H11       1.0  0.11087  0.00097  0.47778  1.0000
  H   H12       1.0  0.05123  0.28288  0.44239  1.0000
  H   H13       1.0  0.05148  0.26729  0.42886  1.0000
  H   H14       1.0  0.01341  0.18636  0.43240  1.0000
  C   C11       1.0  0.00276  0.15965  0.45321  1.0000
  H   H15       1.0  0.03362  0.31600  0.41452  1.0000
  H   H16       1.0  0.01766  0.21707  0.44761  1.0000
  C   C12       1.0  0.03254  0.17740  0.40535  1.0000
  C   C13       1.0  0.02719  0.19118  0.40254  1.0000
  C   C14       1.0  0.02959  0.19961  0.40914  1.0000
  C   C15       1.0  0.03699  0.19432  0.41902  1.0000
  C   C16       1.0  0.04219  0.18047  0.42209  1.0000
  C   C17       1.0  0.04000  0.17201  0.41523  1.0000
  H   H17       1.0  0.02132  0.19541  0.39503  1.0000
  H   H18       1.0  0.02572  0.21024  0.40657  1.0000
  H   H19       1.0  0.04794  0.17629  0.42974  1.0000
  H   H20       1.0  0.04424  0.16139  0.41746  1.0000
  C   C18       1.0  0.02637  0.12804  0.45384  1.0000
  C   C19       1.0  0.01098  0.29996  0.45596  1.0000
  C   C20       1.0  0.03037  0.13949  0.44540  1.0000
  H   H21       1.0  0.99824  0.15173  0.45334  1.0000
  H   H22       1.0  0.02836  0.14302  0.43550  1.0000
  C   C21       1.0  0.08887  0.06197  0.40538  1.0000
  C   C22       1.0  0.07526  0.06745  0.40914  1.0000
  C   C23       1.0  0.07048  0.08138  0.40727  1.0000
  C   C24       1.0  0.07928  0.08991  0.40134  1.0000
  C   C25       1.0  0.09292  0.08442  0.39804  1.0000
  C   C26       1.0  0.09772  0.07049  0.40014  1.0000
  H   H23       1.0  0.06838  0.06088  0.41319  1.0000
  H   H24       1.0  0.05996  0.08547  0.40986  1.0000
  H   H25       1.0  0.09980  0.09095  0.39347  1.0000
  H   H26       1.0  0.10821  0.06637  0.39711  1.0000
  C   C27       1.0  0.17791  0.02576  0.39805  1.0000
  C   C28       1.0  0.18045  0.02322  0.41088  1.0000
  C   C29       1.0  0.19292  0.02397  0.41227  1.0000
  C   C30       1.0  0.20267  0.02746  0.40081  1.0000
  C   C31       1.0  0.19999  0.02994  0.38814  1.0000
  C   C32       1.0  0.18780  0.02897  0.38678  1.0000
  H   H27       1.0  0.17288  0.02065  0.41967  1.0000
  H   H28       1.0  0.19489  0.02207  0.42212  1.0000
  H   H29       1.0  0.20741  0.03266  0.37925  1.0000
  H   H30       1.0  0.18596  0.03090  0.37685  1.0000
  C   C33       1.0  0.13790  0.04361  0.45387  1.0000
  C   C34       1.0  0.17269  0.05812  0.41141  1.0000
  C   C35       1.0  0.07776  0.10645  0.42997  1.0000
  H   H31       1.0  0.16558  0.05725  0.40638  1.0000
  C   C36       1.0  0.00179  0.30906  0.44899  1.0000
  H   H32       1.0  0.04221  0.29833  0.46802  1.0000
  C   C37       1.0  0.03644  0.30390  0.47564  1.0000
  C   C38       1.0  0.04035  0.21858  0.37245  1.0000
  Fe  Fe14      1.0  0.22893  0.00553  0.44610  1.0000
  H   H33       1.0  0.03744  0.22928  0.37189  1.0000
  C   C39       1.0  0.01248  0.16968  0.46467  1.0000
  H   H34       1.0  0.05631  0.21544  0.38224  1.0000
  C   C40       1.0  0.06209  0.11023  0.45470  1.0000
  H   H35       1.0  0.14875  0.05828  0.47197  1.0000
  H   H36       1.0  0.02482  0.19853  0.35581  1.0000
  H   H37       1.0  0.99473  0.16298  0.43123  1.0000
  H   H38       1.0  0.00049  0.09765  0.45918  1.0000
  C   C41       1.0  0.13612  0.00948  0.47018  1.0000
  C   C42       1.0  0.00410  0.25357  0.46006  1.0000
  H   H39       1.0  0.15048  0.02988  0.44166  1.0000
  C   C43       1.0  0.18596  0.05728  0.40482  1.0000
  H   H40       1.0  0.15834  0.06062  0.42976  1.0000
  H   H41       1.0  0.20550  0.05673  0.40653  1.0000
  C   C44       1.0  0.15009  0.03619  0.44813  1.0000
  H   H42       1.0  0.02473  0.11541  0.47366  1.0000
  H   H43       1.0  0.17102  0.02976  0.44786  1.0000
  C   C45       1.0  0.01467  0.21613  0.45837  1.0000
  C   C46       1.0  0.20075  0.05996  0.43163  1.0000
  H   H44       1.0  0.99568  0.29917  0.41821  1.0000
  C   C47       1.0  0.05336  0.07214  0.38645  1.0000
  H   H45       1.0  0.00961  0.24461  0.45659  1.0000
  H   H46       1.0  0.16583  0.99698  0.41425  1.0000
  H   H47       1.0  0.06211  0.09880  0.42796  1.0000
  H   H48       1.0  0.05301  0.18918  0.48184  1.0000
  C   C48       1.0  0.13752  0.05193  0.46206  1.0000
  H   H49       1.0  0.01563  0.25040  0.47474  1.0000
  C   C49       1.0  0.21407  0.99559  0.39856  1.0000
  H   H50       1.0  0.99207  0.09115  0.43346  1.0000
  N   N2        1.0  0.02401  0.21239  0.46597  1.0000
  H   H51       1.0  0.08164  0.11142  0.46740  1.0000
  N   N3        1.0  0.07404  0.11387  0.45030  1.0000
  C   C50       1.0  0.06548  0.10293  0.43429  1.0000
  C   C51       1.0  0.11625  0.00461  0.46742  1.0000
  C   C52       1.0  0.99922  0.30596  0.43818  1.0000
  C   C53       1.0  0.03478  0.31776  0.47282  1.0000
  C   C54       1.0  0.00032  0.26843  0.47491  1.0000
  C   C55       1.0  0.99956  0.23433  0.36759  1.0000
  C   C56       1.0  0.99359  0.26189  0.45435  1.0000
  H   H52       1.0  0.11264  0.01561  0.46436  1.0000
  C   C57       1.0  0.02798  0.12417  0.46702  1.0000
  H   H53       1.0  0.15400  0.01292  0.47264  1.0000
  H   H54       1.0  0.05597  0.11153  0.46443  1.0000
  S   S25       1.0  0.04275  0.31124  0.43912  1.0000
  C   C58       1.0  0.99096  0.09544  0.42326  1.0000
  S   S26       1.0  0.22249  0.98753  0.46032  1.0000
  N   N4        1.0  0.04366  0.08364  0.38622  1.0000
  C   C59       1.0  0.08193  0.11193  0.43816  1.0000
  C   C60       1.0  0.00302  0.16802  0.42919  1.0000
  H   H55       1.0  0.03921  0.10495  0.38112  1.0000
  S   S27       1.0  0.17454  0.04138  0.46770  1.0000
  H   H56       1.0  0.03309  0.18231  0.36374  1.0000
  H   H57       1.0  0.01899  0.19176  0.37338  1.0000
  C   C61       1.0  0.03324  0.21242  0.36775  1.0000
  H   H58       1.0  0.99764  0.11098  0.46737  1.0000
  C   C62       1.0  0.06670  0.07271  0.38118  1.0000
  C   C63       1.0  0.02972  0.08303  0.39204  1.0000
  C   C64       1.0  0.02799  0.19257  0.36519  1.0000
  H   H59       1.0  0.07443  0.06360  0.38173  1.0000
  H   H60       1.0  0.02808  0.07280  0.39388  1.0000
  C   C65       1.0  0.05096  0.21082  0.37820  1.0000
  C   C66       1.0  0.04715  0.19123  0.37415  1.0000
  C   C67       1.0  0.03695  0.14649  0.44979  1.0000
  C   C68       1.0  0.19513  0.05777  0.41164  1.0000
  H   H61       1.0  0.21107  0.05541  0.42701  1.0000
  C   C69       1.0  0.17806  0.06055  0.43099  1.0000
  H   H62       1.0  0.20026  0.07053  0.43142  1.0000
  H   H63       1.0  0.08699  0.12423  0.45339  1.0000
  C   C70       1.0  0.00417  0.23352  0.37891  1.0000
  H   H64       1.0  0.00416  0.15228  0.47392  1.0000
  H   H65       1.0  0.05090  0.06245  0.39089  1.0000
  H   H66       1.0  0.09150  0.11462  0.43470  1.0000
  C   C71       1.0  0.16175  0.03622  0.45154  1.0000
  S   S28       1.0  0.04850  0.15004  0.46787  1.0000
  H   H67       1.0  0.99053  0.28243  0.39257  1.0000
  C   C72       1.0  0.03437  0.13131  0.47145  1.0000
  C   C73       1.0  0.16866  0.05991  0.42454  1.0000
  C   C74       1.0  0.16450  0.98946  0.41000  1.0000
  C   C75       1.0  0.05757  0.10482  0.44674  1.0000
  C   C76       1.0  0.07852  0.11944  0.45892  1.0000
  H   H68       1.0  0.04441  0.21056  0.46552  1.0000
  H   H69       1.0  0.06250  0.19087  0.38373  1.0000
  H   H70       1.0  0.01118  0.31587  0.40933  1.0000
  C   C77       1.0  0.06014  0.09678  0.37591  1.0000
  C   C78       1.0  0.99879  0.10821  0.40104  1.0000
  S   S29       1.0  0.22530  0.05239  0.45010  1.0000
  C   C79       1.0  0.04689  0.09585  0.38108  1.0000
  H   H71       1.0  0.02457  0.28076  0.45749  1.0000
  C   C80       1.0  0.00296  0.29096  0.42306  1.0000
  H   H72       1.0  0.04041  0.15510  0.44313  1.0000
  H   H73       1.0  0.20704  0.03421  0.46919  1.0000
  H   H74       1.0  0.02332  0.08977  0.38516  1.0000
  H   H75       1.0  0.02486  0.21847  0.36352  1.0000
  H   H76       1.0  0.99545  0.27354  0.37943  1.0000
  C   C81       1.0  0.14918  0.05220  0.46520  1.0000
  N   N5        1.0  0.03656  0.19889  0.36879  1.0000
  H   H77       1.0  0.08043  0.08571  0.37240  1.0000
  H   H78       1.0  0.02642  0.08631  0.40169  1.0000
  H   H79       1.0  0.00756  0.10482  0.41789  1.0000
  H   H80       1.0  0.04961  0.18046  0.37530  1.0000
  H   H81       1.0  0.06275  0.10647  0.37229  1.0000
  C   C82       1.0  0.07008  0.08512  0.37593  1.0000
  H   H82       1.0  0.99886  0.28184  0.42653  1.0000
  C   C83       1.0  0.00116  0.21896  0.46434  1.0000
  H   H83       1.0  0.98975  0.15929  0.40079  1.0000
  C   C84       1.0  0.00609  0.15990  0.46490  1.0000
  C   C85       1.0  0.01140  0.17887  0.44149  1.0000
  C   C86       1.0  0.99223  0.21358  0.37819  1.0000
  H   H84       1.0  0.18554  0.99869  0.43800  1.0000
  C   C87       1.0  0.23563  0.98723  0.40399  1.0000
  H   H85       1.0  0.01211  0.16238  0.42348  1.0000
  H   H86       1.0  0.99210  0.31307  0.43279  1.0000
  C   C88       1.0  0.01466  0.28516  0.44121  1.0000
  H   H87       1.0  0.22877  0.03043  0.47527  1.0000
  N   N6        1.0  0.00568  0.29416  0.43439  1.0000
  C   C89       1.0  0.00742  0.25679  0.47041  1.0000
  C   C90       1.0  0.01747  0.28793  0.45207  1.0000
  C   C91       1.0  0.00308  0.22258  0.38970  1.0000
  H   H88       1.0  0.08398  0.10499  0.42030  1.0000
  H   H89       1.0  0.19510  0.01593  0.47633  1.0000
  N   N7        1.0  0.00551  0.16902  0.44167  1.0000
  H   H90       1.0  0.04112  0.19900  0.45791  1.0000
  H   H91       1.0  0.17334  0.99816  0.38978  1.0000
  H   H92       1.0  0.98983  0.22512  0.35858  1.0000
  H   H93       1.0  0.00012  0.17812  0.42285  1.0000
  H   H94       1.0  0.01302  0.30219  0.46440  1.0000
  C   C92       1.0  0.01512  0.17928  0.45290  1.0000
  H   H95       1.0  0.16805  0.99190  0.46607  1.0000
  C   C93       1.0  0.03920  0.14219  0.46274  1.0000
  H   H96       1.0  0.20252  0.00420  0.44572  1.0000
  C   C94       1.0  0.20124  0.99408  0.44853  1.0000
  H   H97       1.0  0.99636  0.20416  0.39771  1.0000
  H   H98       1.0  0.00669  0.22180  0.39838  1.0000
  H   H99       1.0  0.22956  0.07578  0.45518  1.0000
  Fe  Fe15      1.0  0.23106  0.03402  0.44165  1.0000
  C   C95       1.0  0.03752  0.30541  0.41763  1.0000
  C   C96       1.0  0.99982  0.10310  0.41440  1.0000
  H   H100      1.0  0.00041  0.24277  0.35918  1.0000
  S   S30       1.0  0.98932  0.25806  0.44139  1.0000
  C   C97       1.0  0.19150  0.99097  0.44428  1.0000
  N   N8        1.0  0.13054  0.00121  0.46681  1.0000
  C   C98       1.0  0.99307  0.10326  0.46640  1.0000
  H   H101      1.0  0.07039  0.12728  0.46301  1.0000
  H   H102      1.0  0.02030  0.18679  0.45248  1.0000
  H   H103      1.0  0.04795  0.10220  0.45017  1.0000
  C   C99       1.0  0.21121  0.02462  0.47503  1.0000
  H   H104      1.0  0.20775  0.00178  0.39180  1.0000
  C   C100      1.0  0.03810  0.20939  0.45947  1.0000
  C   C101      1.0  0.16877  0.99008  0.39627  1.0000
  C   C102      1.0  0.22761  0.99537  0.39519  1.0000
  H   H105      1.0  0.10793  0.04666  0.47791  1.0000
  C   C103      1.0  0.15752  0.99448  0.46633  1.0000
  H   H106      1.0  0.99375  0.22223  0.45829  1.0000
  C   C104      1.0  0.14968  0.00629  0.46992  1.0000
  H   H107      1.0  0.13007  0.01858  0.47320  1.0000
  C   C105      1.0  0.99725  0.21765  0.47819  1.0000
  C   C106      1.0  0.20869  0.98790  0.41072  1.0000
  C   C107      1.0  0.20452  0.01420  0.47905  1.0000
  H   H108      1.0  0.21106  0.05177  0.47915  1.0000
  H   H109      1.0  0.19816  0.98807  0.41353  1.0000
  H   H110      1.0  0.23182  0.00152  0.38585  1.0000
  C   C108      1.0  0.98980  0.27673  0.46922  1.0000
  H   H111      1.0  0.11384  0.00003  0.46046  1.0000
  H   H112      1.0  0.99337  0.15855  0.37697  1.0000
  S   S31       1.0  0.99782  0.31530  0.38977  1.0000
  H   H113      1.0  0.99113  0.09651  0.47645  1.0000
  C   C109      1.0  0.02023  0.21083  0.47960  1.0000
  C   C110      1.0  0.13809  0.98945  0.46357  1.0000
  H   H114      1.0  0.08415  0.19225  0.47772  1.0000
  H   H115      1.0  0.08700  0.16788  0.48049  1.0000
  C   C111      1.0  0.98867  0.10593  0.39668  1.0000
  H   H116      1.0  0.98792  0.10973  0.38632  1.0000
  H   H117      1.0  0.12303  0.98757  0.40990  1.0000
  H   H118      1.0  0.09339  0.06861  0.48140  1.0000
  H   H119      1.0  0.03586  0.12818  0.48150  1.0000
  C   C112      1.0  0.15170  0.98596  0.46319  1.0000
  H   H120      1.0  0.23211  0.05360  0.48273  1.0000
  S   S32       1.0  0.06289  0.11729  0.52082  1.0000
  S   S33       1.0  0.13135  0.05649  0.52517  1.0000
  Fe  Fe16      1.0  0.07483  0.11611  0.49992  1.0000
  H   H121      1.0  0.23562  0.07371  0.49793  1.0000
  S   S34       1.0  0.09418  0.10292  0.49141  1.0000
  H   H122      1.0  0.08300  0.27901  0.50482  1.0000
  C   C113      1.0  0.08613  0.16880  0.51232  1.0000
  Fe  Fe17      1.0  0.05847  0.13963  0.51270  1.0000
  S   S35       1.0  0.05726  0.15549  0.52346  1.0000
  S   S36       1.0  0.05760  0.11504  0.49267  1.0000
  C   C114      1.0  0.03061  0.29729  0.48833  1.0000
  N   N9        1.0  0.20984  0.00199  0.48614  1.0000
  C   C115      1.0  0.99548  0.11561  0.50303  1.0000
  C   C116      1.0  0.08494  0.18570  0.48742  1.0000
  H   H123      1.0  0.07370  0.20900  0.50443  1.0000
  C   C117      1.0  0.01540  0.12048  0.50528  1.0000
  H   H124      1.0  0.02272  0.12647  0.50181  1.0000
  C   C118      1.0  0.21167  0.06340  0.51004  1.0000
  C   C119      1.0  0.00680  0.21344  0.48593  1.0000
  C   C120      1.0  0.01624  0.10991  0.51643  1.0000
  C   C121      1.0  0.00522  0.12316  0.49847  1.0000
  Fe  Fe18      1.0  0.02426  0.23836  0.52328  1.0000
  S   S37       1.0  0.04642  0.23362  0.51641  1.0000
  Fe  Fe19      1.0  0.01990  0.25737  0.49699  1.0000
  S   S38       1.0  0.00481  0.27316  0.48714  1.0000
  C   C122      1.0  0.00626  0.10258  0.52132  1.0000
  Fe  Fe20      1.0  0.04184  0.23194  0.49772  1.0000
  C   C123      1.0  0.00277  0.14052  0.53729  1.0000
  Fe  Fe21      1.0  0.04373  0.25576  0.50724  1.0000
  S   S39       1.0  0.05527  0.27118  0.50518  1.0000
  S   S40       1.0  0.01979  0.23575  0.50498  1.0000
  S   S41       1.0  0.02197  0.26049  0.51609  1.0000
  C   C124      1.0  0.01150  0.12854  0.54122  1.0000
  H   H125      1.0  0.98942  0.25185  0.50168  1.0000
  H   H126      1.0  0.04671  0.31263  0.52025  1.0000
  H   H127      1.0  0.01956  0.19563  0.51626  1.0000
  H   H128      1.0  0.02699  0.21084  0.52496  1.0000
  H   H129      1.0  0.99331  0.14042  0.53562  1.0000
  H   H130      1.0  0.11504  0.03817  0.52797  1.0000
  H   H131      1.0  0.11632  0.03029  0.49687  1.0000
  C   C125      1.0  0.11170  0.03313  0.52209  1.0000
  S   S42       1.0  0.18886  0.00460  0.52272  1.0000
  C   C126      1.0  0.08713  0.16346  0.50146  1.0000
  C   C127      1.0  0.99153  0.20460  0.53926  1.0000
  Fe  Fe22      1.0  0.14717  0.01560  0.50660  1.0000
  H   H132      1.0  0.08715  0.07372  0.50399  1.0000
  S   S43       1.0  0.02987  0.10579  0.52406  1.0000
  S   S44       1.0  0.13373  0.00464  0.50326  1.0000
  H   H133      1.0  0.19597  0.99184  0.50054  1.0000
  H   H134      1.0  0.09608  0.05725  0.52263  1.0000
  H   H135      1.0  0.21718  0.99750  0.51789  1.0000
  H   H136      1.0  0.08791  0.15281  0.50289  1.0000
  H   H137      1.0  0.07493  0.28645  0.54424  1.0000
  C   C128      1.0  0.00640  0.15261  0.53533  1.0000
  C   C129      1.0  0.08213  0.20530  0.49659  1.0000
  H   H138      1.0  0.00709  0.31112  0.53946  1.0000
  H   H139      1.0  0.03086  0.11943  0.54543  1.0000
  C   C130      1.0  0.02197  0.16560  0.53492  1.0000
  C   C131      1.0  0.07973  0.28103  0.52512  1.0000
  C   C132      1.0  0.04978  0.28080  0.51747  1.0000
  C   C133      1.0  0.04935  0.29457  0.51362  1.0000
  C   C134      1.0  0.04662  0.30213  0.52332  1.0000
  C   C135      1.0  0.04473  0.29588  0.53693  1.0000
  C   C136      1.0  0.04465  0.28221  0.54078  1.0000
  C   C137      1.0  0.04699  0.27472  0.53109  1.0000
  H   H140      1.0  0.05150  0.29933  0.50309  1.0000
  H   H141      1.0  0.01487  0.30300  0.51885  1.0000
  H   H142      1.0  0.04314  0.27732  0.55129  1.0000
  H   H143      1.0  0.04730  0.26410  0.53415  1.0000
  C   C138      1.0  0.07555  0.30365  0.52777  1.0000
  H   H144      1.0  0.03689  0.14112  0.54180  1.0000
  S   S45       1.0  0.05123  0.21439  0.48770  1.0000
  H   H145      1.0  0.00888  0.11906  0.54262  1.0000
  Fe  Fe23      1.0  0.16514  0.03459  0.48929  1.0000
  S   S46       1.0  0.04003  0.14023  0.50666  1.0000
  C   C139      1.0  0.19635  0.02544  0.52694  1.0000
  C   C140      1.0  0.13294  0.98825  0.51232  1.0000
  C   C141      1.0  0.20047  0.01310  0.52324  1.0000
  S   S47       1.0  0.07190  0.13844  0.49257  1.0000
  C   C142      1.0  0.21403  0.00719  0.52039  1.0000
  C   C143      1.0  0.05391  0.17198  0.51386  1.0000
  C   C144      1.0  0.05379  0.17440  0.50029  1.0000
  C   C145      1.0  0.23541  0.06298  0.50197  1.0000
  C   C146      1.0  0.05124  0.19828  0.49812  1.0000
  C   C147      1.0  0.05084  0.19591  0.51180  1.0000
  C   C148      1.0  0.05219  0.18280  0.51965  1.0000
  H   H146      1.0  0.23391  0.00912  0.51867  1.0000
  H   H147      1.0  0.07969  0.21102  0.48679  1.0000
  H   H148      1.0  0.04995  0.20411  0.51628  1.0000
  C   C149      1.0  0.99581  0.10549  0.51469  1.0000
  S   S48       1.0  0.99410  0.18910  0.52176  1.0000
  H   H149      1.0  0.02433  0.16997  0.52399  1.0000
  H   H150      1.0  0.11819  0.08432  0.48360  1.0000
  H   H151      1.0  0.08606  0.16231  0.52221  1.0000
  C   C150      1.0  0.08002  0.29958  0.50597  1.0000
  C   C151      1.0  0.12138  0.06974  0.51569  1.0000
  C   C152      1.0  0.12420  0.07215  0.50170  1.0000
  C   C153      1.0  0.11593  0.08256  0.49442  1.0000
  C   C154      1.0  0.10469  0.09057  0.50104  1.0000
  C   C155      1.0  0.10186  0.08820  0.51503  1.0000
  C   C156      1.0  0.11024  0.07787  0.52231  1.0000
  H   H152      1.0  0.13281  0.06609  0.49646  1.0000
  N   N10       1.0  0.01840  0.15276  0.53723  1.0000
  H   H153      1.0  0.09322  0.09429  0.52024  1.0000
  H   H154      1.0  0.10802  0.07609  0.53313  1.0000
  Fe  Fe24      1.0  0.14648  0.04076  0.51505  1.0000
  S   S49       1.0  0.16838  0.03988  0.50681  1.0000
  C   C157      1.0  0.20576  0.03162  0.52812  1.0000
  N   N11       1.0  0.22313  0.06050  0.50076  1.0000
  S   S50       1.0  0.01298  0.22835  0.54276  1.0000
  C   C158      1.0  0.22863  0.01008  0.48582  1.0000
  H   H155      1.0  0.20248  0.04078  0.53169  1.0000
  S   S51       1.0  0.16883  0.01257  0.49740  1.0000
  H   H156      1.0  0.19062  0.06404  0.51606  1.0000
  C   C159      1.0  0.22168  0.99988  0.48961  1.0000
  C   C160      1.0  0.10994  0.03980  0.49850  1.0000
  H   H157      1.0  0.07262  0.31056  0.53438  1.0000
  H   H158      1.0  0.05220  0.18102  0.53015  1.0000
  H   H159      1.0  0.08343  0.18672  0.51905  1.0000
  H   H160      1.0  0.12036  0.02539  0.51863  1.0000
  H   H161      1.0  0.01363  0.17266  0.53989  1.0000
  C   C161      1.0  0.09346  0.06414  0.50238  1.0000
  H   H162      1.0  0.98917  0.21802  0.55198  1.0000
  H   H163      1.0  0.18589  0.02991  0.52948  1.0000
  Fe  Fe25      1.0  0.04538  0.11787  0.51287  1.0000
  H   H164      1.0  0.21184  0.06657  0.51880  1.0000
  C   C162      1.0  0.02383  0.12876  0.54288  1.0000
  C   C163      1.0  0.22300  0.05612  0.48992  1.0000
  S   S52       1.0  0.14915  0.01899  0.52569  1.0000
  H   H165      1.0  0.00500  0.13101  0.48953  1.0000
  C   C164      1.0  0.02162  0.31791  0.49525  1.0000
  C   C165      1.0  0.01708  0.29720  0.51102  1.0000
  C   C166      1.0  0.08137  0.28583  0.51129  1.0000
  H   H166      1.0  0.99957  0.16188  0.53223  1.0000
  C   C167      1.0  0.00855  0.21554  0.53888  1.0000
  H   H167      1.0  0.10376  0.02807  0.52873  1.0000
  C   C168      1.0  1.00000  0.19843  0.52905  1.0000
  C   C169      1.0  0.09854  0.05479  0.51288  1.0000
  C   C170      1.0  0.99586  0.21302  0.54431  1.0000
  H   H168      1.0  0.19018  0.05657  0.49613  1.0000
  C   C171      1.0  0.01717  0.20895  0.52906  1.0000
  H   H169      1.0  0.08012  0.27048  0.52943  1.0000
  Fe  Fe26      1.0  0.05370  0.13742  0.48712  1.0000
  C   C172      1.0  0.21935  0.02589  0.52492  1.0000
  H   H170      1.0  0.09131  0.20755  0.49734  1.0000
  C   C173      1.0  0.19942  0.05771  0.49742  1.0000
  S   S53       1.0  0.04414  0.30437  0.54918  1.0000
  N   N12       1.0  0.10678  0.04286  0.51082  1.0000
  H   H171      1.0  0.00679  0.09444  0.53004  1.0000
  H   H172      1.0  0.02759  0.20759  0.48569  1.0000
  C   C174      1.0  0.01295  0.20034  0.52417  1.0000
  C   C175      1.0  0.08453  0.18261  0.51048  1.0000
  N   N13       1.0  0.08386  0.19086  0.49817  1.0000
  C   C176      1.0  0.02718  0.14104  0.54077  1.0000
  C   C177      1.0  0.98745  0.25952  0.54109  1.0000
  H   H173      1.0  0.05503  0.16615  0.49573  1.0000
  C   C178      1.0  0.22348  0.01372  0.52089  1.0000
  S   S54       1.0  0.14314  0.03729  0.49670  1.0000
  H   H174      1.0  0.03072  0.16456  0.53901  1.0000
  Fe  Fe27      1.0  0.17074  0.01784  0.51560  1.0000
  C   C179      1.0  0.05261  0.18749  0.49242  1.0000
  C   C180      1.0  0.07688  0.28997  0.53343  1.0000
  H   H175      1.0  0.00384  0.21214  0.49676  1.0000
  C   C181      1.0  0.10518  0.04900  0.48773  1.0000
  H   H176      1.0  0.08078  0.30329  0.49527  1.0000
  H   H177      1.0  0.03195  0.28649  0.49048  1.0000
  C   C182      1.0  0.20258  0.99124  0.49058  1.0000
  N   N14       1.0  0.07719  0.30828  0.51420  1.0000
  C   C183      1.0  0.19965  0.06200  0.50854  1.0000
  H   H178      1.0  0.19663  0.99196  0.48331  1.0000
  N   N15       1.0  0.02342  0.30430  0.49795  1.0000
  H   H179      1.0  0.98965  0.25489  0.55090  1.0000
  C   C184      1.0  0.09697  0.06128  0.48970  1.0000
  S   S55       1.0  0.04153  0.25357  0.48764  1.0000
  H   H180      1.0  0.23629  0.06009  0.51261  1.0000
  H   H181      1.0  0.02370  0.28754  0.51444  1.0000
  H   H182      1.0  0.22575  0.99025  0.49539  1.0000
  C   C185      1.0  0.08658  0.17192  0.48891  1.0000
  S   S56       1.0  0.23089  0.03398  0.52639  1.0000
  H   H183      1.0  0.00767  0.29533  0.51036  1.0000
  H   H184      1.0  0.14304  0.98806  0.52722  1.0000
  C   C186      1.0  0.21114  0.05484  0.48798  1.0000
  H   H185      1.0  0.98835  0.09957  0.51826  1.0000
  H   H186      1.0  0.98793  0.23816  0.51589  1.0000
  H   H187      1.0  0.98743  0.24099  0.53704  1.0000
  S   S57       1.0  0.15032  0.49915  0.04144  1.0000
  C   C187      1.0  0.08003  0.43576  0.07056  1.0000
  Fe  Fe28      1.0  0.11132  0.42190  0.01541  1.0000
  S   S58       1.0  0.12404  0.43393  0.01793  1.0000
  S   S59       1.0  0.08906  0.42658  0.02287  1.0000
  C   C188      1.0  0.01055  0.40425  0.06613  1.0000
  H   H188      1.0  0.05329  0.46393  0.16096  1.0000
  Fe  Fe29      1.0  0.14006  0.41533  0.01873  1.0000
  S   S60       1.0  0.15269  0.41406  0.03287  1.0000
  C   C189      1.0  0.02539  0.34463  0.37836  1.0000
  H   H189      1.0  0.99522  0.54116  0.13682  1.0000
  S   S61       1.0  0.12653  0.40266  0.01847  1.0000
  S   S62       1.0  0.14834  0.41912  0.99665  1.0000
  Fe  Fe30      1.0  0.06431  0.52226  0.11285  1.0000
  S   S63       1.0  0.07868  0.50896  0.12525  1.0000
  S   S64       1.0  0.07104  0.53327  0.09156  1.0000
  Fe  Fe31      1.0  0.06754  0.49348  0.12738  1.0000
  S   S65       1.0  0.07877  0.47328  0.12398  1.0000
  S   S66       1.0  0.13245  0.52310  0.06375  1.0000
  C   C190      1.0  0.11421  0.51197  0.99904  1.0000
  Fe  Fe32      1.0  0.04320  0.42385  0.09109  1.0000
  S   S67       1.0  0.04947  0.43362  0.10370  1.0000
  S   S68       1.0  0.05803  0.40707  0.08241  1.0000
  Fe  Fe33      1.0  0.01708  0.44428  0.09050  1.0000
  S   S69       1.0  0.02173  0.45621  0.10217  1.0000
  H   H190      1.0  0.07270  0.51590  0.33681  1.0000
  Fe  Fe34      1.0  0.04224  0.45244  0.08948  1.0000
  S   S70       1.0  0.05625  0.46589  0.07887  1.0000
  Fe  Fe35      1.0  0.02833  0.43625  0.11537  1.0000
  S   S71       1.0  0.01856  0.43565  0.13731  1.0000
  S   S72       1.0  0.03696  0.44263  0.07647  1.0000
  S   S73       1.0  0.02261  0.42442  0.10419  1.0000
  Fe  Fe36      1.0  0.02421  0.53557  0.25620  1.0000
  S   S74       1.0  0.02984  0.51325  0.26302  1.0000
  S   S75       1.0  0.01512  0.54853  0.27130  1.0000
  Fe  Fe37      1.0  0.02781  0.53449  0.22692  1.0000
  S   S76       1.0  0.03344  0.51227  0.23158  1.0000
  S   S77       1.0  0.02610  0.54442  0.20559  1.0000
  H   H191      1.0  0.05906  0.48609  0.30620  1.0000
  Fe  Fe38      1.0  0.04578  0.51454  0.24418  1.0000
  S   S78       1.0  0.06665  0.50223  0.24222  1.0000
  H   H192      1.0  0.15791  0.43983  0.00874  1.0000
  S   S79       1.0  0.04132  0.53702  0.23829  1.0000
  H   H193      1.0  0.00139  0.57372  0.39224  1.0000
  H   H194      1.0  0.03177  0.47884  0.16914  1.0000
  S   S80       1.0  0.21473  0.40736  0.00979  1.0000
  C   C191      1.0  0.00091  0.50664  0.31857  1.0000
  S   S81       1.0  0.99367  0.47391  0.32543  1.0000
  H   H195      1.0  0.98777  0.43333  0.34899  1.0000
  Fe  Fe39      1.0  0.04027  0.43625  0.20075  1.0000
  S   S82       1.0  0.04461  0.45666  0.19290  1.0000
  S   S83       1.0  0.04573  0.42243  0.18645  1.0000
  Fe  Fe40      1.0  0.02912  0.44050  0.22933  1.0000
  S   S84       1.0  0.03183  0.46150  0.22344  1.0000
  S   S85       1.0  0.01982  0.43277  0.25098  1.0000
  Fe  Fe41      1.0  0.02444  0.46317  0.20525  1.0000
  S   S86       1.0  0.01120  0.48209  0.19666  1.0000
  Fe  Fe42      1.0  0.05173  0.45298  0.21177  1.0000
  S   S87       1.0  0.07079  0.45780  0.21180  1.0000
  S   S88       1.0  0.01957  0.44294  0.21224  1.0000
  S   S89       1.0  0.04944  0.43174  0.21859  1.0000
  H   H196      1.0  0.07074  0.33485  0.38061  1.0000
  C   C192      1.0  0.19196  0.52162  0.02534  1.0000
  C   C193      1.0  0.99564  0.50357  0.24101  1.0000
  C   C194      1.0  0.12868  0.47875  0.01677  1.0000
  C   C195      1.0  0.99705  0.50913  0.30649  1.0000
  H   H197      1.0  0.14131  0.44622  0.02780  1.0000
  H   H198      1.0  0.15023  0.47437  0.98730  1.0000
  C   C196      1.0  0.18807  0.49366  0.05691  1.0000
  C   C197      1.0  0.08920  0.42578  0.07697  1.0000
  H   H199      1.0  0.08624  0.42105  0.08745  1.0000
  H   H200      1.0  0.03623  0.45743  0.13213  1.0000
  H   H201      1.0  0.18180  0.48888  0.05428  1.0000
  C   C198      1.0  0.11380  0.50468  0.99021  1.0000
  C   C199      1.0  0.14884  0.44896  0.03121  1.0000
  C   C200      1.0  0.00833  0.50217  0.11185  1.0000
  H   H202      1.0  0.00693  0.45865  0.19132  1.0000
  C   C201      1.0  0.07103  0.59672  0.38137  1.0000
  S   S90       1.0  0.00323  0.49958  0.25457  1.0000
  H   H203      1.0  0.04650  0.64490  0.47341  1.0000
  H   H204      1.0  0.99073  0.58524  0.45224  1.0000
  Fe  Fe43      1.0  0.03664  0.61593  0.41655  1.0000
  S   S91       1.0  0.02609  0.61668  0.43788  1.0000
  S   S92       1.0  0.04540  0.59576  0.41102  1.0000
  C   C202      1.0  0.99736  0.53239  0.30296  1.0000
  H   H205      1.0  0.10753  0.40201  0.99192  1.0000
  C   C203      1.0  0.99027  0.54319  0.39283  1.0000
  Fe  Fe44      1.0  0.03529  0.63393  0.43514  1.0000
  C   C204      1.0  0.06235  0.33777  0.38883  1.0000
  Fe  Fe45      1.0  0.01056  0.63212  0.42848  1.0000
  C   C205      1.0  0.11002  0.52585  0.99610  1.0000
  S   S93       1.0  0.04778  0.63155  0.41475  1.0000
  S   S94       1.0  0.02049  0.63056  0.40735  1.0000
  Fe  Fe46      1.0  0.03979  0.55417  0.32914  1.0000
  S   S95       1.0  0.02799  0.53884  0.34074  1.0000
  S   S96       1.0  0.05045  0.55214  0.30812  1.0000
  Fe  Fe47      1.0  0.03684  0.56526  0.35386  1.0000
  S   S97       1.0  0.02557  0.55003  0.36766  1.0000
  S   S98       1.0  0.03835  0.58417  0.35864  1.0000
  Fe  Fe48      1.0  0.03987  0.53522  0.35598  1.0000
  S   S99       1.0  0.04887  0.51381  0.36456  1.0000
  Fe  Fe49      1.0  0.01475  0.55479  0.35128  1.0000
  H   H206      1.0  0.99915  0.53730  0.15946  1.0000
  S   S100      1.0  0.05255  0.54992  0.34393  1.0000
  S   S101      1.0  0.02507  0.57075  0.33789  1.0000
  Fe  Fe50      1.0  0.03987  0.45669  0.33396  1.0000
  S   S102      1.0  0.03288  0.46426  0.31466  1.0000
  S   S103      1.0  0.05483  0.46568  0.33766  1.0000
  Fe  Fe51      1.0  0.02515  0.43392  0.34386  1.0000
  S   S104      1.0  0.01691  0.43977  0.32533  1.0000
  S   S105      1.0  0.01706  0.41724  0.35968  1.0000
  Fe  Fe52      1.0  0.03711  0.44265  0.31378  1.0000
  S   S106      1.0  0.04830  0.43548  0.29464  1.0000
  Fe  Fe53      1.0  0.01339  0.46069  0.32779  1.0000
  C   C206      1.0  0.99544  0.58824  0.45867  1.0000
  S   S107      1.0  0.04582  0.43512  0.33214  1.0000
  S   S108      1.0  0.01989  0.45483  0.34720  1.0000
  Fe  Fe54      1.0  0.01172  0.35557  0.42605  1.0000
  S   S109      1.0  0.01978  0.37186  0.42790  1.0000
  S   S110      1.0  0.01021  0.53536  0.24419  1.0000
  C   C207      1.0  0.12131  0.46594  0.00595  1.0000
  S   S111      1.0  0.04557  0.34815  0.43532  1.0000
  Fe  Fe55      1.0  0.02552  0.35744  0.44627  1.0000
  S   S112      1.0  0.01944  0.36368  0.46601  1.0000
  Fe  Fe56      1.0  0.03889  0.36132  0.41665  1.0000
  S   S113      1.0  0.05093  0.37284  0.39842  1.0000
  C   C208      1.0  0.99548  0.52206  0.29850  1.0000
  S   S114      1.0  0.03043  0.34581  0.41360  1.0000
  H   H207      1.0  0.21859  0.48697  0.06368  1.0000
  H   H208      1.0  0.16900  0.51198  0.04656  1.0000
  H   H209      1.0  0.00770  0.41252  0.29348  1.0000
  H   H210      1.0  0.03065  0.41491  0.07753  1.0000
  C   C209      1.0  0.02672  0.40517  0.37040  1.0000
  C   C210      1.0  0.04023  0.40452  0.36876  1.0000
  C   C211      1.0  0.04759  0.39461  0.37741  1.0000
  C   C212      1.0  0.04148  0.38542  0.38783  1.0000
  C   C213      1.0  0.02800  0.38601  0.38936  1.0000
  C   C214      1.0  0.02069  0.39581  0.38065  1.0000
  H   H211      1.0  0.04499  0.41167  0.36089  1.0000
  H   H212      1.0  0.05801  0.39419  0.37613  1.0000
  H   H213      1.0  0.02319  0.37893  0.39727  1.0000
  H   H214      1.0  0.01026  0.39623  0.38200  1.0000
  H   H215      1.0  0.06353  0.34685  0.39115  1.0000
  H   H216      1.0  0.21557  0.43984  0.98777  1.0000
  C   C215      1.0  0.04924  0.50050  0.35749  1.0000
  C   C216      1.0  0.05943  0.48910  0.35911  1.0000
  C   C217      1.0  0.06061  0.47841  0.35337  1.0000
  C   C218      1.0  0.05140  0.47870  0.34623  1.0000
  C   C219      1.0  0.04092  0.48997  0.34479  1.0000
  C   C220      1.0  0.03991  0.50092  0.35032  1.0000
  H   H217      1.0  0.06662  0.48860  0.36468  1.0000
  H   H218      1.0  0.06878  0.46983  0.35446  1.0000
  H   H219      1.0  0.03383  0.49037  0.33917  1.0000
  H   H220      1.0  0.03184  0.50956  0.34921  1.0000
  C   C221      1.0  0.04133  0.59211  0.39764  1.0000
  C   C222      1.0  0.03505  0.60223  0.38843  1.0000
  C   C223      1.0  0.03367  0.59945  0.37683  1.0000
  C   C224      1.0  0.03837  0.58651  0.37439  1.0000
  C   C225      1.0  0.04399  0.57620  0.38393  1.0000
  C   C226      1.0  0.04556  0.57904  0.39547  1.0000
  H   H221      1.0  0.03182  0.61232  0.38990  1.0000
  H   H222      1.0  0.02930  0.60747  0.36948  1.0000
  H   H223      1.0  0.04771  0.56620  0.38212  1.0000
  H   H224      1.0  0.05045  0.57114  0.40254  1.0000
  S   S115      1.0  0.04939  0.52971  0.13037  1.0000
  C   C227      1.0  0.02905  0.40719  0.07338  1.0000
  C   C228      1.0  0.05860  0.61674  0.36307  1.0000
  H   H225      1.0  0.04824  0.39938  0.23464  1.0000
  H   H226      1.0  0.00929  0.46234  0.14118  1.0000
  C   C229      1.0  0.99928  0.60783  0.42562  1.0000
  C   C230      1.0  0.99790  0.59737  0.42097  1.0000
  C   C231      1.0  0.03095  0.35538  0.37704  1.0000
  H   H227      1.0  0.00901  0.60962  0.42401  1.0000
  H   H228      1.0  0.00651  0.59151  0.41546  1.0000
  H   H229      1.0  0.00482  0.59089  0.45217  1.0000
  C   C232      1.0  0.98899  0.35097  0.39937  1.0000
  C   C233      1.0  0.04256  0.63604  0.47645  1.0000
  C   C234      1.0  0.04008  0.63090  0.46689  1.0000
  C   C235      1.0  0.03531  0.61915  0.47097  1.0000
  C   C236      1.0  0.99326  0.49143  0.18063  1.0000
  H   H230      1.0  0.11410  0.46071  0.00583  1.0000
  C   C237      1.0  0.04332  0.35292  0.38015  1.0000
  H   H231      1.0  0.03350  0.61503  0.46366  1.0000
  H   H232      1.0  0.11693  0.49389  0.99240  1.0000
  H   H233      1.0  0.99257  0.52414  0.28903  1.0000
  C   C238      1.0  0.00510  0.32568  0.40647  1.0000
  C   C239      1.0  0.99159  0.55079  0.41160  1.0000
  C   C240      1.0  0.99003  0.46895  0.31292  1.0000
  C   C241      1.0  0.00013  0.46618  0.30189  1.0000
  H   H234      1.0  0.04504  0.50927  0.30386  1.0000
  H   H235      1.0  0.05645  0.52515  0.33543  1.0000
  C   C242      1.0  0.02790  0.43337  0.26304  1.0000
  C   C243      1.0  0.04173  0.43089  0.26064  1.0000
  C   C244      1.0  0.04787  0.43118  0.27057  1.0000
  C   C245      1.0  0.04025  0.43454  0.28270  1.0000
  C   C246      1.0  0.02646  0.43702  0.28507  1.0000
  C   C247      1.0  0.02035  0.43604  0.27541  1.0000
  H   H236      1.0  0.04770  0.42857  0.25122  1.0000
  H   H237      1.0  0.05858  0.42896  0.26876  1.0000
  H   H238      1.0  0.02051  0.43944  0.29445  1.0000
  H   H239      1.0  0.00971  0.43765  0.27741  1.0000
  H   H240      1.0  0.00570  0.51512  0.33211  1.0000
  C   C248      1.0  0.99062  0.34107  0.39245  1.0000
  H   H241      1.0  0.18204  0.52690  0.02428  1.0000
  H   H242      1.0  0.98883  0.42670  0.04847  1.0000
  C   C249      1.0  0.99685  0.50700  0.13744  1.0000
  H   H243      1.0  0.04758  0.36132  0.37908  1.0000
  H   H244      1.0  0.06453  0.51098  0.18955  1.0000
  C   C250      1.0  0.04490  0.46574  0.15645  1.0000
  C   C251      1.0  0.00003  0.40920  0.05954  1.0000
  H   H245      1.0  0.02056  0.40905  0.15791  1.0000
  C   C252      1.0  0.02517  0.54948  0.28131  1.0000
  C   C253      1.0  0.03851  0.54281  0.27969  1.0000
  C   C254      1.0  0.04626  0.54380  0.28786  1.0000
  C   C255      1.0  0.04062  0.55118  0.29788  1.0000
  C   C256      1.0  0.02725  0.55770  0.29960  1.0000
  C   C257      1.0  0.01961  0.55701  0.29119  1.0000
  H   H246      1.0  0.04289  0.53707  0.27201  1.0000
  H   H247      1.0  0.05664  0.53884  0.28643  1.0000
  H   H248      1.0  0.02290  0.56356  0.30718  1.0000
  H   H249      1.0  0.00937  0.56241  0.29227  1.0000
  C   C258      1.0  0.06815  0.48901  0.23478  1.0000
  C   C259      1.0  0.08036  0.48352  0.22723  1.0000
  C   C260      1.0  0.08118  0.47376  0.22034  1.0000
  C   C261      1.0  0.06985  0.46934  0.22116  1.0000
  C   C262      1.0  0.05788  0.47435  0.22928  1.0000
  C   C263      1.0  0.05701  0.48415  0.23606  1.0000
  H   H250      1.0  0.08912  0.48697  0.22647  1.0000
  H   H251      1.0  0.09056  0.46978  0.21422  1.0000
  H   H252      1.0  0.04924  0.47074  0.23031  1.0000
  H   H253      1.0  0.04774  0.48781  0.24246  1.0000
  C   C264      1.0  0.02702  0.43350  0.15002  1.0000
  C   C265      1.0  0.02000  0.43818  0.16167  1.0000
  C   C266      1.0  0.02598  0.43559  0.17256  1.0000
  C   C267      1.0  0.03887  0.42784  0.17209  1.0000
  C   C268      1.0  0.04593  0.42322  0.16041  1.0000
  C   C269      1.0  0.04012  0.42624  0.14930  1.0000
  H   H254      1.0  0.00981  0.44364  0.16238  1.0000
  H   H255      1.0  0.02037  0.43904  0.18156  1.0000
  H   H256      1.0  0.05588  0.41714  0.16001  1.0000
  H   H257      1.0  0.04558  0.42246  0.14043  1.0000
  C   C270      1.0  0.05522  0.52342  0.17350  1.0000
  C   C271      1.0  0.04449  0.53364  0.17015  1.0000
  C   C272      1.0  0.03533  0.53985  0.18013  1.0000
  C   C273      1.0  0.03676  0.53570  0.19346  1.0000
  C   C274      1.0  0.04716  0.52509  0.19681  1.0000
  C   C275      1.0  0.05634  0.51900  0.18688  1.0000
  H   H258      1.0  0.04360  0.53716  0.15981  1.0000
  H   H259      1.0  0.02733  0.54810  0.17744  1.0000
  H   H260      1.0  0.04856  0.52194  0.20694  1.0000
  C   C276      1.0  0.07258  0.47041  0.11182  1.0000
  C   C277      1.0  0.05893  0.47396  0.11251  1.0000
  C   C278      1.0  0.05390  0.47240  0.10242  1.0000
  C   C279      1.0  0.06259  0.46785  0.09136  1.0000
  C   C280      1.0  0.07628  0.46446  0.09053  1.0000
  C   C281      1.0  0.08127  0.46553  0.10091  1.0000
  H   H261      1.0  0.05224  0.47800  0.12079  1.0000
  H   H262      1.0  0.04332  0.47506  0.10303  1.0000
  H   H263      1.0  0.08299  0.46083  0.08200  1.0000
  H   H264      1.0  0.09185  0.46291  0.10033  1.0000
  C   C282      1.0  0.08078  0.42033  0.03931  1.0000
  C   C283      1.0  0.06719  0.42567  0.04322  1.0000
  C   C284      1.0  0.06022  0.42155  0.05634  1.0000
  C   C285      1.0  0.06672  0.41196  0.06573  1.0000
  C   C286      1.0  0.08024  0.40623  0.06171  1.0000
  C   C287      1.0  0.08731  0.41049  0.04855  1.0000
  H   H265      1.0  0.06204  0.43313  0.03607  1.0000
  H   H266      1.0  0.04973  0.42561  0.05906  1.0000
  H   H267      1.0  0.08531  0.39866  0.06885  1.0000
  H   H268      1.0  0.09776  0.40620  0.04559  1.0000
  C   C288      1.0  0.16980  0.41293  0.02585  1.0000
  C   C289      1.0  0.17737  0.41747  0.03172  1.0000
  C   C290      1.0  0.19106  0.41638  0.02647  1.0000
  C   C291      1.0  0.19735  0.41032  0.01560  1.0000
  C   C292      1.0  0.18978  0.40587  0.00965  1.0000
  C   C293      1.0  0.17602  0.40733  0.01465  1.0000
  H   H269      1.0  0.17271  0.42163  0.04049  1.0000
  H   H270      1.0  0.19685  0.41970  0.03120  1.0000
  H   H271      1.0  0.19460  0.40109  0.00131  1.0000
  H   H272      1.0  0.17034  0.40356  0.01022  1.0000
  C   C294      1.0  0.11534  0.52605  0.07131  1.0000
  C   C295      1.0  0.11134  0.52426  0.08530  1.0000
  C   C296      1.0  0.09780  0.52626  0.09163  1.0000
  C   C297      1.0  0.08814  0.53033  0.08398  1.0000
  C   C298      1.0  0.09214  0.53228  0.06998  1.0000
  C   C299      1.0  0.10568  0.53003  0.06367  1.0000
  H   H273      1.0  0.11874  0.52129  0.09127  1.0000
  H   H274      1.0  0.09486  0.52498  0.10239  1.0000
  H   H275      1.0  0.08472  0.53559  0.06399  1.0000
  H   H276      1.0  0.10862  0.53165  0.05288  1.0000
  Fe  Fe57      1.0  0.06298  0.51479  0.14289  1.0000
  H   H277      1.0  0.11557  0.42485  0.05045  1.0000
  H   H278      1.0  0.10923  0.41399  0.07452  1.0000
  C   C300      1.0  0.06076  0.49330  0.31058  1.0000
  C   C301      1.0  0.17601  0.46594  0.00960  1.0000
  H   H279      1.0  0.00814  0.33326  0.42179  1.0000
  H   H280      1.0  0.05549  0.45340  0.14223  1.0000
  S   S116      1.0  0.05395  0.50633  0.11402  1.0000
  C   C302      1.0  0.14149  0.47392  0.99533  1.0000
  H   H281      1.0  0.00204  0.49670  0.32500  1.0000
  C   C303      1.0  0.11946  0.47189  0.01665  1.0000
  H   H282      1.0  0.99252  0.50848  0.14749  1.0000
  H   H283      1.0  0.99365  0.40279  0.05985  1.0000
  C   C304      1.0  0.07071  0.48955  0.31778  1.0000
  Fe  Fe58      1.0  0.01710  0.51319  0.24970  1.0000
  C   C305      1.0  0.13952  0.48008  0.00595  1.0000
  C   C306      1.0  0.10553  0.53227  0.98428  1.0000
  S   S117      1.0  0.99306  0.36029  0.41887  1.0000
  C   C307      1.0  0.06615  0.52075  0.32957  1.0000
  H   H284      1.0  0.15312  0.44017  0.03840  1.0000
  H   H285      1.0  0.00286  0.44156  0.04871  1.0000
  C   C308      1.0  0.99792  0.54530  0.40039  1.0000
  H   H286      1.0  0.18911  0.52356  0.06058  1.0000
  C   C309      1.0  0.01209  0.47205  0.13908  1.0000
  H   H287      1.0  0.99706  0.54006  0.33063  1.0000
  H   H288      1.0  0.00969  0.40435  0.14331  1.0000
  C   C310      1.0  0.02734  0.32484  0.48267  1.0000
  C   C311      1.0  0.05413  0.63295  0.37701  1.0000
  S   S118      1.0  0.99273  0.55788  0.35712  1.0000
  C   C312      1.0  0.99499  0.50166  0.11747  1.0000
  H   H289      1.0  0.05948  0.63537  0.38325  1.0000
  C   C313      1.0  0.01219  0.40722  0.16611  1.0000
  H   H290      1.0  0.01240  0.63715  0.48142  1.0000
  C   C314      1.0  0.00514  0.43099  0.05331  1.0000
  H   H291      1.0  0.99609  0.41848  0.14573  1.0000
  C   C315      1.0  0.00088  0.46741  0.18630  1.0000
  H   H292      1.0  0.01524  0.57623  0.37827  1.0000
  H   H293      1.0  0.99349  0.52631  0.21158  1.0000
  N   N16       1.0  0.02538  0.50708  0.18911  1.0000
  C   C316      1.0  0.02685  0.50318  0.20206  1.0000
  C   C317      1.0  0.03523  0.50245  0.17912  1.0000
  C   C318      1.0  0.03832  0.49425  0.20534  1.0000
  C   C319      1.0  0.04688  0.49353  0.18206  1.0000
  C   C320      1.0  0.04839  0.48941  0.19527  1.0000
  C   C321      1.0  0.01317  0.51638  0.18604  1.0000
  H   H294      1.0  0.01909  0.50691  0.20993  1.0000
  H   H295      1.0  0.03415  0.50577  0.16883  1.0000
  H   H296      1.0  0.03939  0.49125  0.21561  1.0000
  H   H297      1.0  0.05488  0.49010  0.17416  1.0000
  H   H298      1.0  0.05747  0.48267  0.19761  1.0000
  H   H299      1.0  0.01260  0.52628  0.18788  1.0000
  H   H300      1.0  0.01267  0.51764  0.17547  1.0000
  H   H301      1.0  0.00442  0.51242  0.19253  1.0000
  Fe  Fe59      1.0  0.23009  0.44052  0.02636  1.0000
  C   C322      1.0  0.02330  0.40962  0.30941  1.0000
  H   H302      1.0  0.01288  0.54014  0.31901  1.0000
  C   C323      1.0  0.00671  0.58126  0.38512  1.0000
  H   H303      1.0  0.16995  0.52529  0.05299  1.0000
  Fe  Fe60      1.0  0.23132  0.44791  0.99689  1.0000
  C   C324      1.0  0.16291  0.44724  0.00900  1.0000
  H   H304      1.0  0.00324  0.47904  0.14349  1.0000
  C   C325      1.0  0.20050  0.48627  0.05921  1.0000
  C   C326      1.0  0.16591  0.46203  0.02035  1.0000
  H   H305      1.0  0.14355  0.45726  0.03642  1.0000
  Fe  Fe61      1.0  0.13821  0.50071  0.02699  1.0000
  S   S119      1.0  0.12662  0.48520  0.03073  1.0000
  Fe  Fe62      1.0  0.13896  0.52002  0.04255  1.0000
  C   C327      1.0  0.17087  0.51430  0.05528  1.0000
  C   C328      1.0  0.10206  0.42182  0.06972  1.0000
  H   H306      1.0  0.07026  0.52893  0.32196  1.0000
  H   H307      1.0  0.20379  0.47587  0.05840  1.0000
  C   C329      1.0  0.06604  0.60974  0.38344  1.0000
  C   C330      1.0  0.99821  0.53082  0.35963  1.0000
  C   C331      1.0  0.99836  0.32833  0.39626  1.0000
  H   H308      1.0  0.00738  0.53051  0.36210  1.0000
  N   N17       1.0  0.05040  0.46413  0.26577  1.0000
  C   C332      1.0  0.04043  0.46378  0.26035  1.0000
  C   C333      1.0  0.04781  0.47131  0.27536  1.0000
  C   C334      1.0  0.02751  0.47091  0.26435  1.0000
  C   C335      1.0  0.03499  0.47856  0.27959  1.0000
  C   C336      1.0  0.02481  0.47836  0.27401  1.0000
  C   C337      1.0  0.06401  0.45684  0.26141  1.0000
  H   H309      1.0  0.04242  0.45803  0.25283  1.0000
  H   H310      1.0  0.05570  0.47144  0.27976  1.0000
  H   H311      1.0  0.01963  0.47070  0.25995  1.0000
  H   H312      1.0  0.03296  0.48434  0.28711  1.0000
  H   H313      1.0  0.01483  0.48399  0.27715  1.0000
  H   H314      1.0  0.07085  0.46383  0.25770  1.0000
  H   H315      1.0  0.06715  0.44892  0.26994  1.0000
  H   H316      1.0  0.06496  0.45203  0.25309  1.0000
  H   H317      1.0  0.00314  0.50979  0.35969  1.0000
  H   H318      1.0  0.14671  0.48530  0.00603  1.0000
  N   N18       1.0  0.00069  0.52989  0.31505  1.0000
  C   C338      1.0  0.19657  0.50838  0.02391  1.0000
  C   C339      1.0  0.22259  0.48612  0.99701  1.0000
  N   N19       1.0  0.01003  0.40978  0.31345  1.0000
  C   C340      1.0  0.07240  0.49868  0.32400  1.0000
  H   H319      1.0  0.99735  0.55275  0.41744  1.0000
  H   H320      1.0  0.16324  0.46640  0.02904  1.0000
  C   C341      1.0  0.04614  0.45980  0.14595  1.0000
  N   N20       1.0  0.15937  0.45295  0.01985  1.0000
  C   C342      1.0  0.99403  0.46606  0.23374  1.0000
  S   S120      1.0  0.01548  0.34203  0.44543  1.0000
  Fe  Fe63      1.0  0.22528  0.42137  0.01296  1.0000
  H   H321      1.0  0.99958  0.42410  0.09354  1.0000
  N   N21       1.0  0.08712  0.49840  0.07960  1.0000
  C   C343      1.0  0.09112  0.49574  0.09135  1.0000
  C   C344      1.0  0.09622  0.49893  0.06766  1.0000
  C   C345      1.0  0.10456  0.49322  0.09140  1.0000
  C   C346      1.0  0.10975  0.49649  0.06732  1.0000
  C   C347      1.0  0.11392  0.49367  0.07928  1.0000
  C   C348      1.0  0.07293  0.50153  0.07976  1.0000
  H   H322      1.0  0.08389  0.49572  0.10077  1.0000
  H   H323      1.0  0.09304  0.50145  0.05830  1.0000
  H   H324      1.0  0.10761  0.49130  0.10076  1.0000
  H   H325      1.0  0.11693  0.49713  0.05782  1.0000
  H   H326      1.0  0.12434  0.49224  0.07911  1.0000
  H   H327      1.0  0.06751  0.49570  0.08897  1.0000
  H   H328      1.0  0.06876  0.51236  0.07948  1.0000
  H   H329      1.0  0.07111  0.49893  0.07114  1.0000
  N   N22       1.0  0.07090  0.54034  0.18919  1.0000
  C   C349      1.0  0.08093  0.53046  0.18458  1.0000
  C   C350      1.0  0.06680  0.54001  0.20264  1.0000
  C   C351      1.0  0.08676  0.51960  0.19356  1.0000
  C   C352      1.0  0.07248  0.52933  0.21188  1.0000
  C   C353      1.0  0.08244  0.51904  0.20729  1.0000
  C   C354      1.0  0.06467  0.55147  0.17967  1.0000
  H   H330      1.0  0.08405  0.53060  0.17392  1.0000
  H   H331      1.0  0.05880  0.54779  0.20632  1.0000
  H   H332      1.0  0.09435  0.51154  0.18989  1.0000
  H   H333      1.0  0.06905  0.52886  0.22257  1.0000
  H   H334      1.0  0.08668  0.51061  0.21443  1.0000
  H   H335      1.0  0.06994  0.55975  0.17667  1.0000
  H   H336      1.0  0.06483  0.54821  0.17056  1.0000
  H   H337      1.0  0.05404  0.55521  0.18413  1.0000
  N   N23       1.0  0.01803  0.41255  0.06647  1.0000
  C   C355      1.0  0.00424  0.40680  0.32680  1.0000
  C   C356      1.0  0.19213  0.51303  0.06040  1.0000
  H   H338      1.0  0.22121  0.47608  0.00184  1.0000
  H   H339      1.0  0.01080  0.58573  0.39090  1.0000
  H   H340      1.0  0.06654  0.61176  0.39269  1.0000
  C   C357      1.0  0.05280  0.50619  0.30945  1.0000
  H   H341      1.0  0.16307  0.51159  0.06427  1.0000
  C   C358      1.0  0.17289  0.45099  0.99803  1.0000
  H   H342      1.0  0.09328  0.40876  0.00369  1.0000
  H   H343      1.0  0.99069  0.45271  0.35520  1.0000
  C   C359      1.0  0.00343  0.33554  0.41345  1.0000
  H   H344      1.0  0.99236  0.60450  0.39104  1.0000
  C   C360      1.0  0.01000  0.50804  0.13168  1.0000
  H   H345      1.0  0.07983  0.49550  0.32999  1.0000
  N   N24       1.0  0.02349  0.47031  0.14482  1.0000
  H   H346      1.0  0.09229  0.39640  0.99580  1.0000
  N   N25       1.0  0.04972  0.34015  0.38494  1.0000
  C   C361      1.0  0.99574  0.51905  0.35847  1.0000
  H   H347      1.0  0.99215  0.45520  0.13450  1.0000
  H   H348      1.0  0.02852  0.40184  0.25320  1.0000
  H   H349      1.0  0.11054  0.53165  0.00277  1.0000
  S   S121      1.0  0.99851  0.45261  0.08247  1.0000
  S   S122      1.0  0.22254  0.52927  0.03492  1.0000
  C   C362      1.0  0.00731  0.64756  0.47920  1.0000
  C   C363      1.0  0.04449  0.32953  0.38595  1.0000
  C   C364      1.0  0.99731  0.42266  0.05312  1.0000
  C   C365      1.0  0.05478  0.51507  0.31578  1.0000
  H   H350      1.0  0.03836  0.40368  0.06633  1.0000
  S   S123      1.0  0.01864  0.51278  0.14076  1.0000
  C   C366      1.0  0.99831  0.51418  0.23021  1.0000
  C   C367      1.0  0.09653  0.40523  0.99415  1.0000
  C   C368      1.0  0.06345  0.60381  0.36070  1.0000
  H   H351      1.0  0.02707  0.39875  0.08199  1.0000
  H   H352      1.0  0.99620  0.45677  0.25401  1.0000
  Fe  Fe64      1.0  0.13361  0.40821  0.99602  1.0000
  C   C369      1.0  0.03289  0.47412  0.16099  1.0000
  Fe  Fe65      1.0  0.03060  0.64628  0.40726  1.0000
  C   C370      1.0  0.02717  0.40324  0.24315  1.0000
  C   C371      1.0  0.04473  0.35625  0.47094  1.0000
  S   S124      1.0  0.22405  0.45192  0.04262  1.0000
  H   H353      1.0  0.21308  0.49142  0.02433  1.0000
  C   C372      1.0  0.98914  0.44181  0.08193  1.0000
  N   N26       1.0  0.00092  0.40580  0.16365  1.0000
  N   N27       1.0  0.08353  0.44151  0.05725  1.0000
  C   C373      1.0  0.09617  0.43786  0.05011  1.0000
  C   C374      1.0  0.07384  0.45207  0.05075  1.0000
  H   H354      1.0  0.07005  0.43875  0.07625  1.0000
  H   H355      1.0  0.09892  0.44241  0.03955  1.0000
  H   H356      1.0  0.07440  0.46196  0.05175  1.0000
  H   H357      1.0  0.07561  0.45198  0.03998  1.0000
  H   H358      1.0  0.06358  0.45066  0.05549  1.0000
  H   H359      1.0  0.06184  0.60143  0.35209  1.0000
  C   C375      1.0  0.00285  0.51716  0.32263  1.0000
  H   H360      1.0  0.07527  0.58885  0.38895  1.0000
  C   C376      1.0  0.02530  0.40358  0.33243  1.0000
  S   S125      1.0  0.13610  0.54561  0.99549  1.0000
  H   H361      1.0  0.00273  0.47025  0.23096  1.0000
  H   H362      1.0  0.02565  0.36557  0.37386  1.0000
  H   H363      1.0  0.04362  0.63354  0.38244  1.0000
  C   C377      1.0  0.01180  0.40357  0.33648  1.0000
  S   S126      1.0  0.01868  0.64961  0.42741  1.0000
  C   C378      1.0  0.99172  0.42822  0.08811  1.0000
  H   H364      1.0  0.01284  0.50026  0.10194  1.0000
  H   H365      1.0  0.00719  0.40140  0.34708  1.0000
  H   H366      1.0  0.99401  0.40805  0.30652  1.0000
  H   H367      1.0  0.02189  0.40806  0.18095  1.0000
  C   C379      1.0  0.99523  0.34812  0.41001  1.0000
  C   C380      1.0  0.13257  0.46650  0.99558  1.0000
  C   C381      1.0  0.01556  0.42573  0.06004  1.0000
  N   N28       1.0  0.23247  0.49058  0.99897  1.0000
  H   H368      1.0  0.01246  0.39381  0.07125  1.0000
  H   H369      1.0  0.99518  0.50109  0.30344  1.0000
  C   C382      1.0  0.03110  0.40666  0.31881  1.0000
  H   H370      1.0  0.02598  0.50615  0.11437  1.0000
  S   S127      1.0  0.04267  0.63974  0.45007  1.0000
  C   C383      1.0  0.01581  0.50546  0.11890  1.0000
  H   H371      1.0  0.01201  0.64929  0.45786  1.0000
  N   N29       1.0  0.06003  0.61957  0.37427  1.0000
  C   C384      1.0  0.98894  0.54293  0.35742  1.0000
  N   N30       1.0  0.99758  0.59143  0.37758  1.0000
  S   S128      1.0  0.06814  0.51691  0.16119  1.0000
  H   H372      1.0  0.00243  0.40456  0.19979  1.0000
  C   C385      1.0  0.10562  0.42793  0.05621  1.0000
  H   H373      1.0  0.02140  0.43236  0.06040  1.0000
  H   H374      1.0  0.00866  0.54277  0.39750  1.0000
  H   H375      1.0  0.18115  0.47319  0.01000  1.0000
  N   N31       1.0  0.06441  0.51122  0.32301  1.0000
  C   C386      1.0  0.02228  0.47643  0.15491  1.0000
  C   C387      1.0  0.03131  0.36199  0.47518  1.0000
  H   H376      1.0  0.11095  0.47105  0.02490  1.0000
  H   H377      1.0  0.04846  0.52501  0.31505  1.0000
  H   H378      1.0  0.07663  0.47940  0.31912  1.0000
  C   C388      1.0  0.06967  0.59375  0.36994  1.0000
  S   S129      1.0  0.18617  0.49963  0.02128  1.0000
  H   H379      1.0  0.99945  0.41903  0.25213  1.0000
  Fe  Fe66      1.0  0.16417  0.50863  0.02366  1.0000
  C   C389      1.0  0.20955  0.50175  0.02513  1.0000
  C   C390      1.0  0.20468  0.50598  0.06262  1.0000
  H   H380      1.0  0.99371  0.40692  0.33001  1.0000
  C   C391      1.0  0.21308  0.52136  0.02976  1.0000
  H   H381      1.0  0.04538  0.40364  0.21138  1.0000
  C   C392      1.0  0.20015  0.52804  0.02836  1.0000
  H   H382      1.0  0.99335  0.46664  0.11820  1.0000
  H   H383      1.0  0.19642  0.53820  0.02974  1.0000
  C   C393      1.0  0.00116  0.48012  0.18723  1.0000
  S   S130      1.0  0.98965  0.62980  0.43679  1.0000
  H   H384      1.0  0.02273  0.41075  0.20691  1.0000
  S   S131      1.0  0.12585  0.52092  0.02919  1.0000
  Fe  Fe67      1.0  0.03508  0.33359  0.43320  1.0000
  H   H385      1.0  0.21129  0.51106  0.06431  1.0000
  N   N32       1.0  0.18404  0.50686  0.05752  1.0000
  C   C394      1.0  0.03837  0.40192  0.23269  1.0000
  H   H386      1.0  0.00986  0.46780  0.30087  1.0000
  C   C395      1.0  0.00307  0.40830  0.25172  1.0000
  C   C396      1.0  0.21783  0.50823  0.02795  1.0000
  H   H387      1.0  0.01573  0.34638  0.37613  1.0000
  C   C397      1.0  0.17943  0.46043  0.99834  1.0000
  C   C398      1.0  0.03526  0.46220  0.14021  1.0000
  H   H388      1.0  0.01308  0.48315  0.15831  1.0000
  Fe  Fe68      1.0  0.04050  0.51228  0.13261  1.0000
  S   S132      1.0  0.05330  0.49783  0.14608  1.0000
  H   H389      1.0  0.02795  0.41190  0.29887  1.0000
  H   H390      1.0  0.00262  0.60752  0.46455  1.0000
  C   C399      1.0  0.99768  0.46122  0.29223  1.0000
  S   S133      1.0  0.15380  0.52955  0.02579  1.0000
  H   H391      1.0  0.22767  0.50290  0.02925  1.0000
  H   H392      1.0  0.22631  0.47765  0.04376  1.0000
  H   H393      1.0  0.00536  0.45944  0.28352  1.0000
  H   H394      1.0  0.07295  0.58357  0.36852  1.0000
  C   C400      1.0  0.99990  0.40769  0.14979  1.0000
  H   H395      1.0  0.00535  0.51972  0.22992  1.0000
  Fe  Fe69      1.0  0.13158  0.43698  0.99577  1.0000
  H   H396      1.0  0.06280  0.32976  0.39809  1.0000
  H   H397      1.0  0.04819  0.35319  0.46148  1.0000
  Fe  Fe70      1.0  0.14170  0.52830  0.01218  1.0000
  N   N33       1.0  0.01471  0.40671  0.24068  1.0000
  C   C401      1.0  0.01300  0.40664  0.17914  1.0000
  C   C402      1.0  0.01303  0.40941  0.22784  1.0000
  H   H398      1.0  0.05338  0.62438  0.35607  1.0000
  S   S134      1.0  0.21525  0.44248  0.01440  1.0000
  H   H399      1.0  0.03118  0.40147  0.33986  1.0000
  S   S135      1.0  0.15309  0.50806  0.00885  1.0000
  C   C403      1.0  0.20882  0.49250  0.06211  1.0000
  H   H400      1.0  0.99050  0.36717  0.46690  1.0000
  H   H401      1.0  0.04152  0.40703  0.31554  1.0000
  H   H402      1.0  0.11779  0.50689  0.00813  1.0000
  C   C404      1.0  0.99520  0.58902  0.36662  1.0000
  C   C405      1.0  0.02402  0.40827  0.21713  1.0000
  H   H403      1.0  0.01456  0.47597  0.12808  1.0000
  S   S136      1.0  0.11762  0.42660  0.99291  1.0000
  H   H404      1.0  0.98922  0.47411  0.21444  1.0000
  C   C406      1.0  0.99197  0.60862  0.46668  1.0000
  C   C407      1.0  0.03675  0.40438  0.21962  1.0000
  H   H405      1.0  0.00543  0.40265  0.26155  1.0000
  C   C408      1.0  0.03226  0.33160  0.38267  1.0000
  C   C409      1.0  0.00176  0.41398  0.30353  1.0000
  H   H406      1.0  0.99597  0.54242  0.29674  1.0000
  H   H407      1.0  0.05449  0.64082  0.36761  1.0000
  H   H408      1.0  0.00316  0.41262  0.22580  1.0000
  C   C410      1.0  0.99084  0.60284  0.38204  1.0000
  H   H409      1.0  0.99328  0.50127  0.18148  1.0000
  H   H410      1.0  0.99776  0.57964  0.46699  1.0000
  H   H411      1.0  0.08866  0.43160  0.99292  1.0000
  H   H412      1.0  0.99779  0.55073  0.31438  1.0000
  H   H413      1.0  0.00031  0.57983  0.36326  1.0000
  H   H414      1.0  0.17853  0.39724  0.98483  1.0000
  S   S137      1.0  0.13872  0.39278  0.98369  1.0000
  H   H415      1.0  0.99497  0.40455  0.25041  1.0000
  H   H416      1.0  0.99523  0.53909  0.38403  1.0000
  C   C411      1.0  0.00222  0.54075  0.31995  1.0000
  C   C412      1.0  0.22617  0.51167  0.98421  1.0000
  C   C413      1.0  0.98930  0.50398  0.13034  1.0000
  C   C414      1.0  0.00214  0.40464  0.18968  1.0000
  C   C415      1.0  0.99172  0.51781  0.21969  1.0000
  H   H417      1.0  0.02800  0.32318  0.38369  1.0000
  H   H418      1.0  0.06410  0.35014  0.47572  1.0000
  C   C416      1.0  0.21431  0.49431  0.98849  1.0000
  H   H419      1.0  0.03923  0.32301  0.46299  1.0000
  C   C417      1.0  0.99274  0.46601  0.17878  1.0000
  H   H420      1.0  0.22433  0.39727  0.98333  1.0000
  H   H421      1.0  0.17549  0.44661  0.98935  1.0000
  H   H422      1.0  0.99201  0.34980  0.47526  1.0000
  C   C418      1.0  0.05372  0.35453  0.47900  1.0000
  H   H423      1.0  0.18717  0.46346  0.98989  1.0000
  C   C419      1.0  0.08876  0.42885  0.98381  1.0000
  H   H424      1.0  0.20679  0.49055  0.98662  1.0000
  C   C420      1.0  0.23443  0.50312  0.99259  1.0000
  H   H425      1.0  0.99255  0.45616  0.17816  1.0000
  H   H426      1.0  0.99295  0.40202  0.14917  1.0000
  H   H427      1.0  0.99689  0.42476  0.30266  1.0000
  C   C421      1.0  0.99040  0.53504  0.15827  1.0000
  C   C422      1.0  0.23610  0.47131  0.04250  1.0000
  C   C423      1.0  0.99074  0.40303  0.18714  1.0000
  S   S138      1.0  0.13622  0.45658  0.98398  1.0000
  C   C424      1.0  0.99024  0.45869  0.24669  1.0000
  C   C425      1.0  0.98811  0.53724  0.14545  1.0000
  C   C426      1.0  0.99030  0.40362  0.17397  1.0000
  H   H428      1.0  0.02602  0.33561  0.48053  1.0000
  H   H429      1.0  0.23627  0.47464  0.01558  1.0000
  H   H430      1.0  0.98849  0.44648  0.11319  1.0000
  H   H431      1.0  0.98789  0.62691  0.47352  1.0000
  C   C427      1.0  0.98811  0.61594  0.43211  1.0000
  H   H432      1.0  0.04966  0.31939  0.38957  1.0000
  C   C428      1.0  0.13373  0.54375  0.98048  1.0000
  C   C429      1.0  0.16061  0.50098  0.88628  1.0000
  H   H433      1.0  0.03203  0.39728  0.75807  1.0000
  C   C430      1.0  0.99097  0.44188  0.81837  1.0000
  C   C431      1.0  0.99192  0.52862  0.63998  1.0000
  Fe  Fe71      1.0  0.04202  0.42928  0.84019  1.0000
  S   S139      1.0  0.03325  0.45017  0.83017  1.0000
  S   S140      1.0  0.04635  0.42380  0.86102  1.0000
  Fe  Fe72      1.0  0.04158  0.41778  0.81710  1.0000
  S   S141      1.0  0.03309  0.43760  0.80529  1.0000
  S   S142      1.0  0.04650  0.39927  0.80899  1.0000
  Fe  Fe73      1.0  0.04730  0.44502  0.81150  1.0000
  S   S143      1.0  0.05894  0.45865  0.79572  1.0000
  Fe  Fe74      1.0  0.01971  0.44088  0.82483  1.0000
  S   S144      1.0  0.99851  0.45110  0.82413  1.0000
  S   S145      1.0  0.05722  0.42484  0.82175  1.0000
  S   S146      1.0  0.02706  0.42033  0.83645  1.0000
  Fe  Fe75      1.0  0.05175  0.49254  0.85090  1.0000
  S   S147      1.0  0.05340  0.51102  0.85571  1.0000
  S   S148      1.0  0.03241  0.48578  0.85821  1.0000
  Fe  Fe76      1.0  0.08026  0.48794  0.83465  1.0000
  S   S149      1.0  0.08402  0.50624  0.83787  1.0000
  S   S150      1.0  0.09565  0.47526  0.82170  1.0000
  Fe  Fe77      1.0  0.07362  0.49946  0.85921  1.0000
  S   S151      1.0  0.08043  0.49551  0.87859  1.0000
  Fe  Fe78      1.0  0.06354  0.51569  0.83393  1.0000
  S   S152      1.0  0.05877  0.53558  0.81986  1.0000
  S   S153      1.0  0.07112  0.48046  0.85604  1.0000
  S   S154      1.0  0.06074  0.49785  0.82905  1.0000
  Fe  Fe79      1.0  0.12889  0.51265  0.91017  1.0000
  S   S155      1.0  0.11434  0.51899  0.92811  1.0000
  S   S156      1.0  0.12410  0.51806  0.88962  1.0000
  Fe  Fe80      1.0  0.15074  0.49935  0.92574  1.0000
  S   S157      1.0  0.13787  0.50392  0.94518  1.0000
  S   S158      1.0  0.17224  0.48873  0.92278  1.0000
  Fe  Fe81      1.0  0.12216  0.49841  0.93916  1.0000
  S   S159      1.0  0.10713  0.48847  0.95488  1.0000
  Fe  Fe82      1.0  0.13123  0.52406  0.93268  1.0000
  S   S160      1.0  0.12811  0.54287  0.93974  1.0000
  S   S161      1.0  0.13569  0.49155  0.92094  1.0000
  S   S162      1.0  0.14514  0.51999  0.91348  1.0000
  Fe  Fe83      1.0  0.12010  0.44441  0.90267  1.0000
  S   S163      1.0  0.11043  0.44031  0.92445  1.0000
  S   S164      1.0  0.13951  0.45098  0.89535  1.0000
  Fe  Fe84      1.0  0.09857  0.43713  0.89420  1.0000
  S   S165      1.0  0.08732  0.43175  0.91548  1.0000
  S   S166      1.0  0.09306  0.43994  0.87435  1.0000
  Fe  Fe85      1.0  0.09139  0.45029  0.91782  1.0000
  S   S167      1.0  0.07572  0.46371  0.92982  1.0000
  Fe  Fe86      1.0  0.10734  0.42210  0.92051  1.0000
  S   S168      1.0  0.11104  0.40256  0.93545  1.0000
  S   S169      1.0  0.10129  0.45649  0.89639  1.0000
  S   S170      1.0  0.11832  0.42548  0.89891  1.0000
  C   C432      1.0  0.99653  0.45658  0.62284  1.0000
  H   H434      1.0  0.07596  0.39314  0.57847  1.0000
  S   S171      1.0  0.20740  0.50729  0.94991  1.0000
  H   H435      1.0  0.06308  0.50884  0.67697  1.0000
  C   C433      1.0  0.99374  0.34397  0.53985  1.0000
  C   C434      1.0  0.01714  0.49932  0.70420  1.0000
  H   H436      1.0  0.06706  0.37402  0.59405  1.0000
  C   C435      1.0  0.07482  0.39170  0.58920  1.0000
  N   N34       1.0  0.17189  0.54174  0.94454  1.0000
  H   H437      1.0  0.03230  0.36713  0.50499  1.0000
  Fe  Fe87      1.0  0.19980  0.41903  0.92353  1.0000
  C   C436      1.0  0.04052  0.37710  0.58429  1.0000
  H   H438      1.0  0.08454  0.41189  0.80421  1.0000
  H   H439      1.0  0.06952  0.47865  0.64697  1.0000
  C   C437      1.0  0.22849  0.40571  0.97629  1.0000
  C   C438      1.0  0.00163  0.51820  0.63527  1.0000
  H   H440      1.0  0.00420  0.48704  0.61325  1.0000
  C   C439      1.0  0.00180  0.39962  0.78775  1.0000
  H   H441      1.0  0.98781  0.52714  0.72878  1.0000
  Fe  Fe88      1.0  0.02119  0.42522  0.61667  1.0000
  S   S172      1.0  0.04000  0.40940  0.61450  1.0000
  S   S173      1.0  0.00125  0.42067  0.62682  1.0000
  Fe  Fe89      1.0  0.03478  0.44799  0.60135  1.0000
  S   S174      1.0  0.05465  0.43416  0.59744  1.0000
  S   S175      1.0  0.03151  0.47034  0.59441  1.0000
  Fe  Fe90      1.0  0.04393  0.42102  0.59316  1.0000
  H   H442      1.0  0.10131  0.54251  0.96018  1.0000
  Fe  Fe91      1.0  0.04869  0.42405  0.61902  1.0000
  S   S176      1.0  0.06270  0.41952  0.63267  1.0000
  S   S177      1.0  0.02450  0.43592  0.59512  1.0000
  S   S178      1.0  0.02944  0.43873  0.62320  1.0000
  Fe  Fe92      1.0  0.03716  0.42262  0.70808  1.0000
  S   S179      1.0  0.02432  0.44273  0.71017  1.0000
  S   S180      1.0  0.03341  0.41267  0.69381  1.0000
  Fe  Fe93      1.0  0.04737  0.41945  0.73310  1.0000
  S   S181      1.0  0.03510  0.43915  0.73738  1.0000
  S   S182      1.0  0.06061  0.40489  0.74622  1.0000
  Fe  Fe94      1.0  0.01903  0.43355  0.73204  1.0000
  H   H443      1.0  0.02524  0.49056  0.70414  1.0000
  Fe  Fe95      1.0  0.04161  0.44648  0.71517  1.0000
  S   S183      1.0  0.04655  0.46667  0.70659  1.0000
  S   S184      1.0  0.03068  0.41314  0.72973  1.0000
  S   S185      1.0  0.05518  0.42712  0.71110  1.0000
  H   H444      1.0  0.08118  0.40959  0.58755  1.0000
  Fe  Fe96      1.0  0.04292  0.51725  0.63161  1.0000
  S   S186      1.0  0.03257  0.52092  0.65205  1.0000
  S   S187      1.0  0.05141  0.49578  0.63010  1.0000
  Fe  Fe97      1.0  0.03804  0.54728  0.61824  1.0000
  S   S188      1.0  0.02725  0.55338  0.63776  1.0000
  S   S189      1.0  0.03739  0.55871  0.59688  1.0000
  Fe  Fe98      1.0  0.04336  0.53746  0.64639  1.0000
  S   S190      1.0  0.05338  0.53772  0.66223  1.0000
  Fe  Fe99      1.0  0.01752  0.53623  0.64190  1.0000
  S   S191      1.0  0.99571  0.53731  0.64954  1.0000
  S   S192      1.0  0.05508  0.53265  0.62650  1.0000
  S   S193      1.0  0.02702  0.53124  0.62189  1.0000
  S   S194      1.0  0.04627  0.63009  0.52869  1.0000
  C   C440      1.0  0.99653  0.50300  0.84881  1.0000
  H   H445      1.0  0.07358  0.53027  0.87656  1.0000
  Fe  Fe100     1.0  0.02903  0.52843  0.76342  1.0000
  S   S195      1.0  0.03107  0.50683  0.77375  1.0000
  S   S196      1.0  0.03006  0.54453  0.77262  1.0000
  Fe  Fe101     1.0  0.02287  0.52473  0.73855  1.0000
  S   S197      1.0  0.02429  0.50284  0.74684  1.0000
  S   S198      1.0  0.01502  0.53421  0.71977  1.0000
  Fe  Fe102     1.0  0.01314  0.50826  0.76631  1.0000
  S   S199      1.0  0.99594  0.49946  0.77897  1.0000
  Fe  Fe103     1.0  0.04211  0.50339  0.75334  1.0000
  S   S200      1.0  0.05949  0.48633  0.75094  1.0000
  S   S201      1.0  0.01006  0.53021  0.75763  1.0000
  S   S202      1.0  0.04178  0.52495  0.74343  1.0000
  H   H446      1.0  0.01194  0.33045  0.54388  1.0000
  H   H447      1.0  0.98921  0.56803  0.62026  1.0000
  C   C441      1.0  0.00175  0.41635  0.68906  1.0000
  H   H448      1.0  0.20007  0.43280  0.97942  1.0000
  C   C442      1.0  0.99898  0.48604  0.75962  1.0000
  C   C443      1.0  0.16955  0.42120  0.95835  1.0000
  H   H449      1.0  0.16818  0.54999  0.92503  1.0000
  H   H450      1.0  0.03304  0.49946  0.81409  1.0000
  H   H451      1.0  0.00934  0.48307  0.75993  1.0000
  H   H452      1.0  0.00148  0.47598  0.74387  1.0000
  S   S203      1.0  0.04175  0.35772  0.57150  1.0000
  H   H453      1.0  0.00057  0.36036  0.51161  1.0000
  H   H454      1.0  0.09110  0.52334  0.91452  1.0000
  C   C444      1.0  0.04960  0.38177  0.56041  1.0000
  H   H455      1.0  0.05909  0.50564  0.90286  1.0000
  H   H456      1.0  0.07815  0.40642  0.61204  1.0000
  C   C445      1.0  0.06973  0.50614  0.65670  1.0000
  H   H457      1.0  0.08285  0.53418  0.89378  1.0000
  C   C446      1.0  0.05484  0.44568  0.90140  1.0000
  C   C447      1.0  0.06980  0.38097  0.59797  1.0000
  C   C448      1.0  0.99562  0.41838  0.66486  1.0000
  H   H458      1.0  0.00975  0.43618  0.69097  1.0000
  S   S204      1.0  0.18506  0.40896  0.92124  1.0000
  C   C449      1.0  0.03660  0.57599  0.59063  1.0000
  C   C450      1.0  0.03179  0.58216  0.57893  1.0000
  C   C451      1.0  0.03272  0.59534  0.57238  1.0000
  C   C452      1.0  0.03855  0.60249  0.57740  1.0000
  C   C453      1.0  0.04297  0.59647  0.58939  1.0000
  C   C454      1.0  0.04194  0.58326  0.59604  1.0000
  H   H459      1.0  0.02770  0.57658  0.57466  1.0000
  H   H460      1.0  0.02939  0.59975  0.56316  1.0000
  H   H461      1.0  0.04751  0.60192  0.59334  1.0000
  H   H462      1.0  0.04575  0.57856  0.60502  1.0000
  C   C455      1.0  0.02599  0.53504  0.70395  1.0000
  C   C456      1.0  0.02073  0.54030  0.69243  1.0000
  C   C457      1.0  0.02908  0.54083  0.67964  1.0000
  C   C458      1.0  0.04281  0.53664  0.67827  1.0000
  C   C459      1.0  0.04812  0.53159  0.68978  1.0000
  C   C460      1.0  0.03971  0.53059  0.70262  1.0000
  H   H463      1.0  0.01017  0.54408  0.69340  1.0000
  H   H464      1.0  0.02491  0.54489  0.67082  1.0000
  H   H465      1.0  0.05875  0.52845  0.68877  1.0000
  H   H466      1.0  0.04385  0.52661  0.71145  1.0000
  C   C461      1.0  0.19721  0.45081  0.96412  1.0000
  H   H467      1.0  0.99336  0.40024  0.79613  1.0000
  H   H468      1.0  0.03798  0.48282  0.81067  1.0000
  H   H469      1.0  0.00241  0.43669  0.65858  1.0000
  H   H470      1.0  0.99490  0.46571  0.59013  1.0000
  C   C462      1.0  0.08904  0.42214  0.96041  1.0000
  H   H471      1.0  0.01064  0.51436  0.63901  1.0000
  H   H472      1.0  0.12384  0.56444  0.97568  1.0000
  H   H473      1.0  0.99264  0.41923  0.58179  1.0000
  C   C463      1.0  0.08544  0.43897  0.97288  1.0000
  C   C464      1.0  0.17437  0.41538  0.97001  1.0000
  C   C465      1.0  0.00271  0.33157  0.54120  1.0000
  Fe  Fe104     1.0  0.04156  0.32681  0.54358  1.0000
  C   C466      1.0  0.04002  0.62974  0.49004  1.0000
  C   C467      1.0  0.21501  0.45870  0.97341  1.0000
  H   H474      1.0  0.99526  0.47172  0.84220  1.0000
  C   C468      1.0  0.16556  0.41332  0.95240  1.0000
  C   C469      1.0  0.99147  0.45106  0.71961  1.0000
  C   C470      1.0  0.05156  0.47195  0.71820  1.0000
  C   C471      1.0  0.04990  0.48563  0.71722  1.0000
  C   C472      1.0  0.05289  0.49003  0.72701  1.0000
  C   C473      1.0  0.05782  0.48077  0.73764  1.0000
  C   C474      1.0  0.06010  0.46708  0.73828  1.0000
  C   C475      1.0  0.05684  0.46265  0.72863  1.0000
  H   H475      1.0  0.04593  0.49290  0.70916  1.0000
  H   H476      1.0  0.05119  0.50063  0.72643  1.0000
  H   H477      1.0  0.06391  0.45999  0.74649  1.0000
  H   H478      1.0  0.05840  0.45207  0.72925  1.0000
  C   C476      1.0  0.03681  0.47748  0.60444  1.0000
  C   C477      1.0  0.03342  0.49137  0.60326  1.0000
  C   C478      1.0  0.03767  0.49712  0.61122  1.0000
  C   C479      1.0  0.04541  0.48900  0.62030  1.0000
  C   C480      1.0  0.04875  0.47513  0.62148  1.0000
  C   C481      1.0  0.04441  0.46937  0.61363  1.0000
  H   H479      1.0  0.02759  0.49769  0.59612  1.0000
  H   H480      1.0  0.03519  0.50783  0.61013  1.0000
  H   H481      1.0  0.05479  0.46879  0.62842  1.0000
  H   H482      1.0  0.04719  0.45867  0.61452  1.0000
  C   C482      1.0  0.05440  0.41817  0.64958  1.0000
  C   C483      1.0  0.04267  0.41352  0.65418  1.0000
  C   C484      1.0  0.03648  0.41170  0.66782  1.0000
  C   C485      1.0  0.04166  0.41503  0.67684  1.0000
  C   C486      1.0  0.05321  0.42001  0.67220  1.0000
  C   C487      1.0  0.00922  0.50218  0.71637  1.0000
  H   H483      1.0  0.03855  0.41098  0.64730  1.0000
  H   H484      1.0  0.02768  0.40765  0.67139  1.0000
  C   C488      1.0  0.00156  0.48825  0.58868  1.0000
  H   H485      1.0  0.02793  0.47455  0.79080  1.0000
  C   C489      1.0  0.01081  0.40430  0.76433  1.0000
  H   H486      1.0  0.99123  0.50170  0.80620  1.0000
  C   C490      1.0  0.00839  0.40555  0.60796  1.0000
  C   C491      1.0  0.99838  0.41037  0.61817  1.0000
  H   H487      1.0  0.15271  0.55215  0.95291  1.0000
  C   C492      1.0  0.04921  0.35830  0.49139  1.0000
  S   S205      1.0  0.98796  0.51388  0.60577  1.0000
  H   H488      1.0  0.01799  0.40792  0.60551  1.0000
  H   H489      1.0  0.01451  0.50315  0.80273  1.0000
  C   C493      1.0  0.00897  0.43765  0.68044  1.0000
  H   H490      1.0  0.05247  0.37889  0.55087  1.0000
  C   C494      1.0  0.01981  0.45530  0.76954  1.0000
  H   H491      1.0  0.08941  0.41938  0.95123  1.0000
  N   N35       1.0  0.99758  0.35297  0.58006  1.0000
  H   H492      1.0  0.01432  0.52434  0.82583  1.0000
  H   H493      1.0  0.22227  0.41512  0.97919  1.0000
  H   H494      1.0  0.08313  0.44327  0.95253  1.0000
  C   C495      1.0  0.99728  0.45633  0.78325  1.0000
  C   C496      1.0  0.23018  0.46653  0.90989  1.0000
  C   C497      1.0  0.00746  0.35581  0.58533  1.0000
  H   H495      1.0  0.14012  0.44933  0.92636  1.0000
  H   H496      1.0  0.14339  0.52289  0.98225  1.0000
  H   H497      1.0  0.99771  0.44584  0.78896  1.0000
  H   H498      1.0  0.19649  0.46958  0.94973  1.0000
  C   C498      1.0  0.11936  0.40051  0.94827  1.0000
  C   C499      1.0  0.12168  0.41132  0.95166  1.0000
  C   C500      1.0  0.12731  0.40918  0.96276  1.0000
  C   C501      1.0  0.13097  0.39618  0.97022  1.0000
  C   C502      1.0  0.12896  0.38543  0.96659  1.0000
  C   C503      1.0  0.12304  0.38760  0.95581  1.0000
  H   H499      1.0  0.11888  0.42133  0.94599  1.0000
  H   H500      1.0  0.12903  0.41753  0.96537  1.0000
  H   H501      1.0  0.13188  0.37535  0.97223  1.0000
  H   H502      1.0  0.12131  0.37919  0.95328  1.0000
  C   C504      1.0  0.15235  0.43877  0.90180  1.0000
  C   C505      1.0  0.14970  0.42715  0.91110  1.0000
  H   H503      1.0  0.13981  0.42530  0.91402  1.0000
  C   C506      1.0  0.13013  0.54252  0.95568  1.0000
  C   C507      1.0  0.12550  0.55445  0.96016  1.0000
  H   H504      1.0  0.01671  0.37085  0.49052  1.0000
  S   S206      1.0  0.98757  0.52299  0.82837  1.0000
  H   H505      1.0  0.15754  0.53902  0.93581  1.0000
  C   C508      1.0  0.13651  0.53106  0.96371  1.0000
  H   H506      1.0  0.12064  0.56337  0.95401  1.0000
  H   H507      1.0  0.98943  0.39979  0.67397  1.0000
  C   C509      1.0  0.03528  0.61801  0.49416  1.0000
  H   H508      1.0  0.14028  0.52183  0.96028  1.0000
  C   C510      1.0  0.18200  0.49402  0.93023  1.0000
  C   C511      1.0  0.19586  0.49070  0.92628  1.0000
  C   C512      1.0  0.20378  0.49475  0.93222  1.0000
  C   C513      1.0  0.19784  0.50192  0.94232  1.0000
  C   C514      1.0  0.18398  0.50511  0.94636  1.0000
  C   C515      1.0  0.17607  0.50133  0.94022  1.0000
  H   H509      1.0  0.20054  0.48495  0.91867  1.0000
  H   H510      1.0  0.21447  0.49218  0.92910  1.0000
  H   H511      1.0  0.17933  0.51043  0.95434  1.0000
  H   H512      1.0  0.16542  0.50386  0.94342  1.0000
  C   C516      1.0  0.09825  0.48191  0.94777  1.0000
  C   C517      1.0  0.08579  0.47944  0.95485  1.0000
  C   C518      1.0  0.07862  0.47425  0.94915  1.0000
  C   C519      1.0  0.08413  0.47111  0.93657  1.0000
  C   C520      1.0  0.09659  0.47352  0.92953  1.0000
  C   C521      1.0  0.10353  0.47914  0.93502  1.0000
  H   H513      1.0  0.08166  0.48164  0.96469  1.0000
  H   H514      1.0  0.06897  0.47238  0.95460  1.0000
  H   H515      1.0  0.10086  0.47115  0.91978  1.0000
  H   H516      1.0  0.11307  0.48103  0.92947  1.0000
  C   C522      1.0  0.09367  0.50091  0.88069  1.0000
  C   C523      1.0  0.09824  0.49538  0.89262  1.0000
  C   C524      1.0  0.10779  0.50032  0.89536  1.0000
  C   C525      1.0  0.11282  0.51088  0.88616  1.0000
  C   C526      1.0  0.10859  0.51611  0.87402  1.0000
  C   C527      1.0  0.09905  0.51115  0.87127  1.0000
  H   H517      1.0  0.09414  0.48742  0.89992  1.0000
  H   H518      1.0  0.11103  0.49612  0.90470  1.0000
  H   H519      1.0  0.11253  0.52422  0.86680  1.0000
  H   H520      1.0  0.09564  0.51547  0.86203  1.0000
  C   C528      1.0  0.04998  0.53756  0.80745  1.0000
  C   C529      1.0  0.04854  0.54977  0.79816  1.0000
  C   C530      1.0  0.04229  0.55171  0.78767  1.0000
  C   C531      1.0  0.03766  0.54137  0.78615  1.0000
  C   C532      1.0  0.03891  0.52913  0.79547  1.0000
  C   C533      1.0  0.04486  0.52732  0.80627  1.0000
  H   H521      1.0  0.05231  0.55779  0.79905  1.0000
  H   H522      1.0  0.04119  0.56126  0.78061  1.0000
  H   H523      1.0  0.03514  0.52117  0.79448  1.0000
  H   H524      1.0  0.04554  0.51802  0.81357  1.0000
  C   C534      1.0  0.05990  0.42781  0.86421  1.0000
  C   C535      1.0  0.06650  0.43736  0.85511  1.0000
  C   C536      1.0  0.07666  0.44091  0.85838  1.0000
  C   C537      1.0  0.08024  0.43504  0.87080  1.0000
  C   C538      1.0  0.07377  0.42536  0.87984  1.0000
  C   C539      1.0  0.06369  0.42172  0.87651  1.0000
  H   H525      1.0  0.06370  0.44213  0.84562  1.0000
  H   H526      1.0  0.08169  0.44834  0.85127  1.0000
  H   H527      1.0  0.07659  0.42061  0.88932  1.0000
  H   H528      1.0  0.05871  0.41423  0.88355  1.0000
  C   C540      1.0  0.04998  0.40135  0.79149  1.0000
  C   C541      1.0  0.04430  0.41302  0.78317  1.0000
  C   C542      1.0  0.04721  0.41416  0.76922  1.0000
  C   C543      1.0  0.05592  0.40369  0.76359  1.0000
  C   C544      1.0  0.06156  0.39208  0.77192  1.0000
  C   C545      1.0  0.05849  0.39086  0.78582  1.0000
  H   H529      1.0  0.03746  0.42102  0.78748  1.0000
  H   H530      1.0  0.04286  0.42317  0.76284  1.0000
  H   H531      1.0  0.06830  0.38397  0.76762  1.0000
  H   H532      1.0  0.06281  0.38178  0.79219  1.0000
  C   C546      1.0  0.06987  0.46191  0.80318  1.0000
  C   C547      1.0  0.06605  0.46254  0.81668  1.0000
  C   C548      1.0  0.07432  0.46605  0.82251  1.0000
  C   C549      1.0  0.08660  0.46859  0.81497  1.0000
  C   C550      1.0  0.09074  0.46735  0.80161  1.0000
  C   C551      1.0  0.08226  0.46421  0.79564  1.0000
  H   H533      1.0  0.05655  0.46073  0.82258  1.0000
  H   H534      1.0  0.07111  0.46695  0.83286  1.0000
  H   H535      1.0  0.10018  0.46947  0.79572  1.0000
  H   H536      1.0  0.08525  0.46369  0.78518  1.0000
  C   C552      1.0  0.06794  0.37954  0.61179  1.0000
  H   H537      1.0  0.01820  0.47402  0.83888  1.0000
  C   C553      1.0  0.99727  0.42882  0.81702  1.0000
  C   C554      1.0  0.99342  0.39503  0.60337  1.0000
  H   H538      1.0  0.00553  0.38282  0.54638  1.0000
  H   H539      1.0  0.09559  0.40191  0.97063  1.0000
  C   C555      1.0  0.03180  0.48899  0.81797  1.0000
  H   H540      1.0  0.00702  0.42447  0.81915  1.0000
  N   N36       1.0  0.07124  0.38841  0.61671  1.0000
  H   H541      1.0  0.10909  0.50564  0.97163  1.0000
  C   C556      1.0  0.20268  0.44238  0.97476  1.0000
  H   H542      1.0  0.05865  0.39233  0.63505  1.0000
  C   C557      1.0  0.02208  0.50805  0.84074  1.0000
  C   C558      1.0  0.01947  0.49715  0.85117  1.0000
  C   C559      1.0  0.00660  0.49479  0.85538  1.0000
  S   S207      1.0  0.19367  0.44117  0.92167  1.0000
  C   C560      1.0  0.00074  0.42822  0.66677  1.0000
  H   H543      1.0  0.03189  0.51012  0.83760  1.0000
  H   H544      1.0  0.19899  0.53353  0.95772  1.0000
  C   C561      1.0  0.02696  0.36603  0.48739  1.0000
  H   H545      1.0  0.99107  0.62385  0.51258  1.0000
  S   S208      1.0  0.03388  0.36594  0.53502  1.0000
  H   H546      1.0  0.14354  0.49355  0.88758  1.0000
  C   C562      1.0  0.01439  0.39322  0.79026  1.0000
  S   S209      1.0  0.03374  0.33899  0.52559  1.0000
  C   C563      1.0  0.07910  0.52569  0.90049  1.0000
  N   N37       1.0  0.12059  0.45007  0.85772  1.0000
  C   C564      1.0  0.11218  0.45915  0.85024  1.0000
  C   C565      1.0  0.12572  0.45407  0.86596  1.0000
  C   C566      1.0  0.10849  0.47255  0.85113  1.0000
  C   C567      1.0  0.12220  0.46741  0.86710  1.0000
  C   C568      1.0  0.11346  0.47667  0.85968  1.0000
  C   C569      1.0  0.12453  0.43606  0.85661  1.0000
  H   H547      1.0  0.10804  0.45603  0.84373  1.0000
  H   H548      1.0  0.13242  0.44689  0.87187  1.0000
  H   H549      1.0  0.10174  0.47963  0.84527  1.0000
  H   H550      1.0  0.12603  0.47047  0.87390  1.0000
  H   H551      1.0  0.11049  0.48701  0.86058  1.0000
  H   H552      1.0  0.11722  0.43347  0.85272  1.0000
  H   H553      1.0  0.13443  0.43416  0.84982  1.0000
  H   H554      1.0  0.12475  0.42931  0.86665  1.0000
  N   N38       1.0  0.01783  0.48847  0.82044  1.0000
  H   H555      1.0  0.15900  0.55310  0.97318  1.0000
  H   H556      1.0  0.00952  0.40871  0.75417  1.0000
  H   H557      1.0  0.98812  0.37350  0.57480  1.0000
  C   C570      1.0  0.03303  0.61264  0.48460  1.0000
  C   C571      1.0  0.21154  0.44635  0.97944  1.0000
  H   H558      1.0  0.00504  0.33185  0.58439  1.0000
  C   C572      1.0  0.16781  0.54068  0.93293  1.0000
  N   N39       1.0  0.09227  0.41571  0.98298  1.0000
  H   H559      1.0  0.00723  0.49488  0.58993  1.0000
  H   H560      1.0  0.01078  0.36500  0.57906  1.0000
  H   H561      1.0  0.01649  0.34760  0.58538  1.0000
  C   C573      1.0  0.03581  0.36402  0.49555  1.0000
  C   C574      1.0  0.23357  0.46216  0.89791  1.0000
  C   C575      1.0  0.17942  0.54332  0.96688  1.0000
  H   H562      1.0  0.04197  0.63383  0.49731  1.0000
  H   H563      1.0  0.09017  0.53124  0.96473  1.0000
  H   H564      1.0  0.99818  0.43049  0.56626  1.0000
  H   H565      1.0  0.01300  0.53745  0.58321  1.0000
  C   C576      1.0  0.99006  0.49383  0.76829  1.0000
  S   S210      1.0  0.20482  0.41432  0.94366  1.0000
  C   C577      1.0  0.99722  0.49537  0.81323  1.0000
  Fe  Fe105     1.0  0.02027  0.35213  0.53917  1.0000
  N   N40       1.0  0.16618  0.40003  0.95800  1.0000
  Fe  Fe106     1.0  0.04163  0.35190  0.55263  1.0000
  C   C578      1.0  0.08559  0.43555  0.96112  1.0000
  H   H566      1.0  0.99774  0.63017  0.52984  1.0000
  H   H567      1.0  0.19215  0.53245  0.93791  1.0000
  C   C579      1.0  0.99752  0.34004  0.58055  1.0000
  C   C580      1.0  0.07778  0.40092  0.59430  1.0000
  H   H568      1.0  0.98972  0.46310  0.78930  1.0000
  N   N41       1.0  0.01038  0.45942  0.78009  1.0000
  C   C581      1.0  0.01323  0.46610  0.78780  1.0000
  C   C582      1.0  0.99210  0.41038  0.55973  1.0000
  H   H569      1.0  0.00582  0.46921  0.79628  1.0000
  H   H570      1.0  0.01756  0.44994  0.76348  1.0000
  S   S211      1.0  0.22608  0.46362  0.97930  1.0000
  C   C583      1.0  0.18483  0.53704  0.94559  1.0000
  C   C584      1.0  0.00012  0.51325  0.62510  1.0000
  C   C585      1.0  0.99935  0.51350  0.83795  1.0000
  C   C586      1.0  0.98905  0.56245  0.61324  1.0000
  H   H571      1.0  0.01001  0.55452  0.60963  1.0000
  H   H572      1.0  0.06372  0.37136  0.61855  1.0000
  C   C587      1.0  0.98889  0.63601  0.52642  1.0000
  C   C588      1.0  0.17500  0.40181  0.97565  1.0000
  C   C589      1.0  0.98811  0.36328  0.57517  1.0000
  H   H573      1.0  0.16400  0.44955  0.92202  1.0000
  H   H574      1.0  0.99177  0.49431  0.58688  1.0000
  C   C590      1.0  0.01038  0.49619  0.81137  1.0000
  H   H575      1.0  0.00239  0.44760  0.67781  1.0000
  H   H576      1.0  0.07021  0.37626  0.63655  1.0000
  N   N42       1.0  0.99109  0.54463  0.79948  1.0000
  C   C591      1.0  0.98808  0.32189  0.53507  1.0000
  Fe  Fe107     1.0  0.21506  0.44097  0.91239  1.0000
  S   S212      1.0  0.99845  0.35831  0.54017  1.0000
  C   C592      1.0  0.00069  0.42035  0.57264  1.0000
  S   S213      1.0  0.06006  0.35532  0.50205  1.0000
  H   H577      1.0  0.02180  0.54221  0.59248  1.0000
  H   H578      1.0  0.98884  0.54122  0.58945  1.0000
  C   C593      1.0  0.99682  0.40624  0.68743  1.0000
  H   H579      1.0  0.18534  0.43343  0.90080  1.0000
  C   C594      1.0  0.06888  0.38693  0.63123  1.0000
  H   H580      1.0  0.02374  0.38236  0.55672  1.0000
  C   C595      1.0  0.99639  0.46637  0.59955  1.0000
  C   C596      1.0  0.17085  0.39424  0.96947  1.0000
  N   N43       1.0  0.06758  0.52219  0.77118  1.0000
  C   C597      1.0  0.07173  0.52273  0.78200  1.0000
  C   C598      1.0  0.06549  0.51047  0.77020  1.0000
  C   C599      1.0  0.07333  0.51150  0.79248  1.0000
  C   C600      1.0  0.06689  0.49907  0.78055  1.0000
  C   C601      1.0  0.07068  0.49969  0.79182  1.0000
  C   C602      1.0  0.06588  0.53406  0.76031  1.0000
  H   H581      1.0  0.07345  0.53198  0.78281  1.0000
  H   H582      1.0  0.06265  0.50988  0.76141  1.0000
  H   H583      1.0  0.07627  0.51209  0.80122  1.0000
  H   H584      1.0  0.06509  0.48981  0.77980  1.0000
  H   H585      1.0  0.07158  0.49106  0.80004  1.0000
  H   H586      1.0  0.06398  0.54340  0.76388  1.0000
  H   H587      1.0  0.07485  0.53358  0.75204  1.0000
  H   H588      1.0  0.05711  0.53485  0.75637  1.0000
  C   C603      1.0  0.99080  0.42117  0.81332  1.0000
  H   H589      1.0  0.99551  0.44830  0.63142  1.0000
  C   C604      1.0  0.99319  0.40066  0.55274  1.0000
  S   S214      1.0  0.99775  0.43552  0.74297  1.0000
  H   H590      1.0  0.06404  0.32652  0.50802  1.0000
  C   C605      1.0  0.99453  0.48203  0.75055  1.0000
  H   H591      1.0  0.16554  0.47505  0.95094  1.0000
  C   C606      1.0  0.20065  0.46313  0.95806  1.0000
  H   H592      1.0  0.18226  0.54363  0.97577  1.0000
  Fe  Fe108     1.0  0.04826  0.35131  0.52319  1.0000
  C   C607      1.0  0.98902  0.54743  0.59587  1.0000
  C   C608      1.0  0.00214  0.54734  0.80303  1.0000
  H   H593      1.0  0.01133  0.49554  0.72566  1.0000
  H   H594      1.0  0.07589  0.39123  0.63381  1.0000
  Fe  Fe109     1.0  0.22967  0.50174  0.94284  1.0000
  S   S215      1.0  0.22085  0.41912  0.91232  1.0000
  H   H595      1.0  0.01907  0.43750  0.67399  1.0000
  C   C609      1.0  0.00462  0.39050  0.55165  1.0000
  C   C610      1.0  0.02529  0.39225  0.77952  1.0000
  S   S216      1.0  0.18669  0.44554  0.95791  1.0000
  S   S217      1.0  0.05724  0.33817  0.54047  1.0000
  H   H596      1.0  0.00310  0.35737  0.59568  1.0000
  C   C611      1.0  0.04413  0.37326  0.57196  1.0000
  Fe  Fe110     1.0  0.00847  0.64324  0.53981  1.0000
  C   C612      1.0  0.02568  0.46922  0.78474  1.0000
  S   S218      1.0  0.03205  0.61021  0.51124  1.0000
  C   C613      1.0  0.03235  0.45827  0.76620  1.0000
  H   H597      1.0  0.00129  0.64880  0.49980  1.0000
  C   C614      1.0  0.03526  0.46530  0.77384  1.0000
  H   H598      1.0  0.03969  0.45524  0.75767  1.0000
  H   H599      1.0  0.04494  0.46770  0.77138  1.0000
  H   H600      1.0  0.00812  0.50591  0.62077  1.0000
  H   H601      1.0  0.15987  0.38265  0.95830  1.0000
  C   C615      1.0  0.13831  0.53167  0.97615  1.0000
  C   C616      1.0  0.07158  0.49758  0.64828  1.0000
  C   C617      1.0  0.17538  0.43174  0.90382  1.0000
  H   H602      1.0  0.07199  0.51597  0.65258  1.0000
  H   H603      1.0  0.22043  0.46649  0.91631  1.0000
  H   H604      1.0  0.05755  0.53651  0.88663  1.0000
  H   H605      1.0  0.15358  0.39746  0.94713  1.0000
  C   C618      1.0  0.08378  0.51962  0.91224  1.0000
  N   N44       1.0  0.00013  0.40501  0.77491  1.0000
  H   H606      1.0  0.04029  0.59697  0.53819  1.0000
  H   H607      1.0  0.07505  0.50076  0.63754  1.0000
  C   C619      1.0  0.06535  0.52743  0.88499  1.0000
  C   C620      1.0  0.06473  0.50212  0.67040  1.0000
  C   C621      1.0  0.06837  0.48506  0.65370  1.0000
  H   H608      1.0  0.99560  0.41093  0.81275  1.0000
  N   N45       1.0  0.10543  0.52505  0.97555  1.0000
  H   H609      1.0  0.05575  0.59994  0.52714  1.0000
  C   C622      1.0  0.01484  0.39025  0.55742  1.0000
  N   N46       1.0  0.07028  0.52072  0.89726  1.0000
  C   C623      1.0  0.99988  0.46792  0.62381  1.0000
  H   H610      1.0  0.17755  0.42140  0.97469  1.0000
  H   H611      1.0  0.17893  0.50531  0.88619  1.0000
  C   C624      1.0  0.16528  0.44089  0.89795  1.0000
  H   H612      1.0  0.16753  0.44953  0.89032  1.0000
  H   H613      1.0  0.05132  0.58443  0.52951  1.0000
  C   C625      1.0  0.05087  0.59226  0.53473  1.0000
  H   H614      1.0  0.21226  0.47662  0.95803  1.0000
  C   C626      1.0  0.07937  0.50841  0.92071  1.0000
  H   H615      1.0  0.08312  0.50344  0.92972  1.0000
  H   H616      1.0  0.06117  0.52073  0.88178  1.0000
  S   S219      1.0  0.04176  0.61826  0.56819  1.0000
  Fe  Fe111     1.0  0.22529  0.41686  0.93231  1.0000
  C   C627      1.0  0.15990  0.41780  0.91667  1.0000
  H   H617      1.0  0.15781  0.40876  0.92370  1.0000
  H   H618      1.0  0.06225  0.60504  0.54506  1.0000
  C   C628      1.0  0.06583  0.50979  0.90556  1.0000
  C   C629      1.0  0.07035  0.50343  0.91736  1.0000
  C   C630      1.0  0.98794  0.33723  0.57583  1.0000
  H   H619      1.0  0.15586  0.51136  0.88294  1.0000
  H   H620      1.0  0.06711  0.49451  0.92369  1.0000
  C   C631      1.0  0.15694  0.45387  0.92998  1.0000
  N   N47       1.0  0.05728  0.58671  0.54616  1.0000
  C   C632      1.0  0.06263  0.59468  0.55025  1.0000
  H   H621      1.0  0.00224  0.52595  0.68317  1.0000
  C   C633      1.0  0.05696  0.57393  0.55331  1.0000
  H   H622      1.0  0.05221  0.56780  0.55043  1.0000
  H   H623      1.0  0.99646  0.51192  0.73750  1.0000
  C   C634      1.0  0.17362  0.49749  0.88814  1.0000
  C   C635      1.0  0.15364  0.49099  0.88893  1.0000
  S   S220      1.0  0.02300  0.65035  0.54601  1.0000
  H   H624      1.0  0.07324  0.43286  0.79234  1.0000
  C   C636      1.0  0.06808  0.58981  0.56163  1.0000
  C   C637      1.0  0.06163  0.48953  0.67550  1.0000
  S   S221      1.0  0.22256  0.45532  0.89390  1.0000
  H   H625      1.0  0.07174  0.59638  0.56515  1.0000
  H   H626      1.0  0.00591  0.55566  0.79532  1.0000
  H   H627      1.0  0.01573  0.38908  0.80045  1.0000
  N   N48       1.0  0.17947  0.48441  0.89257  1.0000
  C   C638      1.0  0.15964  0.47772  0.89354  1.0000
  H   H628      1.0  0.19624  0.48936  0.89550  1.0000
  H   H629      1.0  0.07386  0.43690  0.75093  1.0000
  H   H630      1.0  0.03367  0.43582  0.88960  1.0000
  N   N49       1.0  0.06344  0.48119  0.66715  1.0000
  C   C639      1.0  0.01247  0.47985  0.83145  1.0000
  H   H631      1.0  0.00323  0.35358  0.49050  1.0000
  N   N50       1.0  0.00360  0.42718  0.67879  1.0000
  C   C640      1.0  0.07595  0.39911  0.60817  1.0000
  C   C641      1.0  0.06229  0.56875  0.56476  1.0000
  C   C642      1.0  0.06785  0.57678  0.56894  1.0000
  H   H632      1.0  0.15413  0.46999  0.89583  1.0000
  H   H633      1.0  0.08206  0.41241  0.75360  1.0000
  H   H634      1.0  0.01384  0.52826  0.60009  1.0000
  H   H635      1.0  0.06153  0.55882  0.57076  1.0000
  C   C643      1.0  0.17269  0.47456  0.89521  1.0000
  C   C644      1.0  0.19324  0.48080  0.89411  1.0000
  H   H636      1.0  0.05770  0.48650  0.68615  1.0000
  C   C645      1.0  0.08034  0.41701  0.76201  1.0000
  C   C646      1.0  0.07561  0.43078  0.76055  1.0000
  C   C647      1.0  0.03965  0.44201  0.89057  1.0000
  H   H637      1.0  0.07144  0.57309  0.57815  1.0000
  H   H638      1.0  0.00450  0.48643  0.86352  1.0000
  H   H639      1.0  0.02941  0.60352  0.48777  1.0000
  H   H640      1.0  0.17736  0.46421  0.89872  1.0000
  H   H641      1.0  0.19449  0.47271  0.90317  1.0000
  H   H642      1.0  0.20006  0.47731  0.88520  1.0000
  H   H643      1.0  0.03597  0.45697  0.87284  1.0000
  H   H644      1.0  0.04587  0.42853  0.90804  1.0000
  H   H645      1.0  0.17158  0.45970  0.93604  1.0000
  S   S222      1.0  0.01893  0.64576  0.51833  1.0000
  S   S223      1.0  0.22074  0.43871  0.93172  1.0000
  C   C648      1.0  0.14356  0.45369  0.93246  1.0000
  H   H646      1.0  0.06880  0.42492  0.65505  1.0000
  C   C649      1.0  0.05978  0.46820  0.67273  1.0000
  C   C650      1.0  0.04101  0.45383  0.88109  1.0000
  C   C651      1.0  0.04655  0.43791  0.90085  1.0000
  C   C652      1.0  0.00135  0.47836  0.61252  1.0000
  H   H647      1.0  0.02095  0.50603  0.68270  1.0000
  H   H648      1.0  0.10680  0.52715  0.95480  1.0000
  H   H649      1.0  0.04895  0.46968  0.67713  1.0000
  C   C653      1.0  0.07307  0.43653  0.77152  1.0000
  H   H650      1.0  0.06938  0.44725  0.77056  1.0000
  H   H651      1.0  0.06516  0.46230  0.68076  1.0000
  H   H652      1.0  0.03508  0.38723  0.78131  1.0000
  C   C654      1.0  0.16117  0.45960  0.93793  1.0000
  Fe  Fe112     1.0  0.03344  0.62852  0.54962  1.0000
  C   C655      1.0  0.18877  0.53766  0.95681  1.0000
  H   H653      1.0  0.06213  0.46222  0.66501  1.0000
  C   C656      1.0  0.05970  0.42135  0.65860  1.0000
  C   C657      1.0  0.16248  0.39187  0.95125  1.0000
  H   H654      1.0  0.03619  0.37061  0.59326  1.0000
  H   H655      1.0  0.02152  0.39989  0.56863  1.0000
  Fe  Fe113     1.0  0.02969  0.62463  0.52402  1.0000
  C   C658      1.0  0.20957  0.46708  0.96272  1.0000
  H   H656      1.0  0.01377  0.39393  0.59293  1.0000
  H   H657      1.0  0.00159  0.46857  0.63313  1.0000
  H   H658      1.0  0.14916  0.47779  0.96143  1.0000
  H   H659      1.0  0.16050  0.46195  0.96474  1.0000
  C   C659      1.0  0.08240  0.40913  0.77448  1.0000
  H   H660      1.0  0.08570  0.39839  0.77561  1.0000
  C   C660      1.0  0.12734  0.55507  0.97243  1.0000
  H   H661      1.0  0.99909  0.54986  0.81305  1.0000
  C   C661      1.0  0.15709  0.47029  0.95666  1.0000
  C   C662      1.0  0.09247  0.41229  0.97146  1.0000
  H   H662      1.0  0.00385  0.53219  0.78641  1.0000
  H   H663      1.0  0.03959  0.39217  0.59467  1.0000
  S   S224      1.0  0.05141  0.41274  0.57436  1.0000
  H   H664      1.0  0.17117  0.38374  0.97401  1.0000
  C   C663      1.0  0.04922  0.46141  0.88206  1.0000
  H   H665      1.0  0.06046  0.44224  0.90917  1.0000
  S   S225      1.0  0.01776  0.62148  0.54513  1.0000
  H   H666      1.0  0.00992  0.41956  0.57584  1.0000
  C   C664      1.0  0.00412  0.51906  0.69246  1.0000
  H   H667      1.0  0.17431  0.53203  0.92872  1.0000
  H   H668      1.0  0.17080  0.38911  0.94288  1.0000
  N   N51       1.0  0.00068  0.54723  0.59876  1.0000
  H   H669      1.0  0.13208  0.46923  0.95848  1.0000
  C   C665      1.0  0.99473  0.45580  0.61065  1.0000
  C   C666      1.0  0.17269  0.42022  0.91328  1.0000
  N   N52       1.0  0.08003  0.41485  0.78515  1.0000
  N   N53       1.0  0.05601  0.45732  0.89211  1.0000
  H   H670      1.0  0.05018  0.47055  0.87465  1.0000
  H   H671      1.0  0.99688  0.45776  0.72058  1.0000
  C   C667      1.0  0.02354  0.39785  0.76646  1.0000
  H   H672      1.0  0.03558  0.48515  0.82737  1.0000
  Fe  Fe114     1.0  0.19989  0.43649  0.94105  1.0000
  N   N54       1.0  0.00221  0.41009  0.56529  1.0000
  C   C668      1.0  0.04241  0.38932  0.58512  1.0000
  C   C669      1.0  0.04812  0.39771  0.57363  1.0000
  H   H673      1.0  0.09005  0.39741  0.79711  1.0000
  C   C670      1.0  0.07529  0.42835  0.78384  1.0000
  H   H674      1.0  0.07265  0.40305  0.80393  1.0000
  C   C671      1.0  0.01294  0.53836  0.59335  1.0000
  N   N55       1.0  0.15229  0.46509  0.94798  1.0000
  C   C672      1.0  0.13915  0.46493  0.95049  1.0000
  H   H675      1.0  0.16210  0.41784  0.94319  1.0000
  H   H676      1.0  0.16907  0.43172  0.95390  1.0000
  H   H677      1.0  0.05613  0.40034  0.55234  1.0000
  H   H678      1.0  0.06704  0.46321  0.90258  1.0000
  C   C673      1.0  0.08192  0.40639  0.79823  1.0000
  C   C674      1.0  0.00599  0.39766  0.60077  1.0000
  C   C675      1.0  0.00081  0.55464  0.60730  1.0000
  S   S226      1.0  0.02693  0.33906  0.55744  1.0000
  C   C676      1.0  0.05167  0.39391  0.56128  1.0000
  C   C677      1.0  0.06519  0.46506  0.89238  1.0000
  H   H679      1.0  0.05730  0.42252  0.67912  1.0000
  C   C678      1.0  0.01209  0.51612  0.83408  1.0000
  C   C679      1.0  0.10062  0.53184  0.96326  1.0000
  C   C680      1.0  0.01350  0.40020  0.56419  1.0000
  H   H680      1.0  0.07482  0.46235  0.88537  1.0000
  H   H681      1.0  0.06119  0.47597  0.88924  1.0000
  N   N56       1.0  0.99977  0.47740  0.60054  1.0000
  C   C681      1.0  0.99177  0.48646  0.82432  1.0000
  H   H682      1.0  0.12419  0.45902  0.94499  1.0000
  C   C682      1.0  0.13461  0.45918  0.94284  1.0000
  H   H683      1.0  0.23670  0.47442  0.92284  1.0000
  H   H684      1.0  0.08083  0.32517  0.49830  1.0000
  H   H685      1.0  0.00417  0.41543  0.69855  1.0000
  C   C683      1.0  0.99088  0.51618  0.72937  1.0000
  C   C684      1.0  0.99361  0.40736  0.67528  1.0000
  Fe  Fe115     1.0  0.03435  0.65126  0.52473  1.0000
  H   H686      1.0  0.99528  0.39772  0.69562  1.0000
  C   C685      1.0  0.99370  0.53660  0.79065  1.0000
  C   C686      1.0  0.99389  0.35974  0.49452  1.0000
  C   C687      1.0  0.16281  0.54788  0.95405  1.0000
  H   H687      1.0  0.20994  0.51343  0.97521  1.0000
  C   C688      1.0  0.21612  0.50716  0.98207  1.0000
  C   C689      1.0  0.98958  0.43976  0.72978  1.0000
  C   C690      1.0  0.01465  0.50791  0.69219  1.0000
  N   N57       1.0  0.99912  0.51332  0.71656  1.0000
  C   C691      1.0  0.99990  0.32054  0.53881  1.0000
  C   C692      1.0  0.98857  0.51822  0.62016  1.0000
  H   H688      1.0  0.98813  0.32703  0.57582  1.0000
  C   C693      1.0  0.16637  0.54860  0.96545  1.0000
  H   H689      1.0  0.99318  0.41926  0.65539  1.0000
  H   H690      1.0  0.99173  0.51237  0.66925  1.0000
  H   H691      1.0  0.22782  0.52156  0.97909  1.0000
  C   C694      1.0  0.07465  0.32270  0.50855  1.0000
  H   H692      1.0  0.01038  0.53836  0.80364  1.0000
  C   C695      1.0  0.99941  0.47866  0.83352  1.0000
  H   H693      1.0  0.99386  0.45772  0.77392  1.0000
  H   H694      1.0  0.07690  0.32825  0.51475  1.0000
  H   H695      1.0  0.22780  0.40579  0.96606  1.0000
  H   H696      1.0  0.01577  0.32347  0.50285  1.0000
  H   H697      1.0  0.10250  0.54309  0.98198  1.0000
  H   H698      1.0  0.08289  0.44940  0.97348  1.0000
  C   C696      1.0  0.10934  0.51141  0.97845  1.0000
  H   H699      1.0  0.00742  0.48411  0.57978  1.0000
  H   H700      1.0  0.98840  0.53045  0.70499  1.0000
  C   C697      1.0  0.99637  0.52159  0.70482  1.0000
  H   H701      1.0  0.98854  0.46213  0.70004  1.0000
  H   H702      1.0  0.99209  0.44707  0.60974  1.0000
  S   S227      1.0  0.99004  0.38693  0.59289  1.0000
  C   C698      1.0  0.99247  0.36359  0.50643  1.0000
  H   H703      1.0  0.08627  0.85021  0.43921  1.0000
  H   H704      1.0  0.09361  0.95156  0.46042  1.0000
  H   H705      1.0  0.98974  0.65465  0.41701  1.0000
  H   H706      1.0  0.16006  0.96230  0.39528  1.0000
  H   H707      1.0  0.05848  0.77874  0.41942  1.0000
  H   H708      1.0  0.15205  0.93713  0.40383  1.0000
  H   H709      1.0  0.11547  0.90151  0.36959  1.0000
  Fe  Fe116     1.0  0.01474  0.83798  0.43957  1.0000
  S   S228      1.0  0.02438  0.84805  0.41906  1.0000
  H   H710      1.0  0.04328  0.68408  0.42995  1.0000
  Fe  Fe117     1.0  0.04108  0.82529  0.44795  1.0000
  S   S229      1.0  0.05295  0.83427  0.42832  1.0000
  S   S230      1.0  0.05187  0.81077  0.46314  1.0000
  Fe  Fe118     1.0  0.03716  0.85301  0.42978  1.0000
  S   S231      1.0  0.04034  0.87370  0.42778  1.0000
  Fe  Fe119     1.0  0.03927  0.82838  0.41955  1.0000
  S   S232      1.0  0.04776  0.81577  0.40413  1.0000
  S   S233      1.0  0.02627  0.84435  0.45035  1.0000
  S   S234      1.0  0.02860  0.81805  0.43921  1.0000
  Fe  Fe120     1.0  0.10185  0.90034  0.42255  1.0000
  S   S235      1.0  0.08787  0.91844  0.42926  1.0000
  S   S236      1.0  0.09753  0.88652  0.41247  1.0000
  Fe  Fe121     1.0  0.12420  0.90269  0.43357  1.0000
  S   S237      1.0  0.11197  0.92032  0.44182  1.0000
  S   S238      1.0  0.14496  0.89589  0.43691  1.0000
  Fe  Fe122     1.0  0.09543  0.90951  0.44812  1.0000
  S   S239      1.0  0.08277  0.90829  0.46882  1.0000
  Fe  Fe123     1.0  0.10570  0.92781  0.42225  1.0000
  S   S240      1.0  0.10636  0.94894  0.41041  1.0000
  S   S241      1.0  0.10834  0.89090  0.44197  1.0000
  S   S242      1.0  0.11899  0.91055  0.41346  1.0000
  C   C699      1.0  0.13788  0.94684  0.45904  1.0000
  H   H711      1.0  0.10281  0.89379  0.38159  1.0000
  H   H712      1.0  0.19701  0.95752  0.45765  1.0000
  C   C700      1.0  0.22274  0.91112  0.46950  1.0000
  Fe  Fe124     1.0  0.01450  0.72905  0.43205  1.0000
  S   S243      1.0  0.01264  0.73893  0.41102  1.0000
  S   S244      1.0  0.99827  0.72029  0.44704  1.0000
  Fe  Fe125     1.0  0.04130  0.73481  0.42791  1.0000
  S   S245      1.0  0.04220  0.74512  0.40630  1.0000
  S   S246      1.0  0.05554  0.73352  0.44026  1.0000
  Fe  Fe126     1.0  0.02097  0.75494  0.41335  1.0000
  S   S247      1.0  0.01102  0.77672  0.40927  1.0000
  Fe  Fe127     1.0  0.03388  0.72821  0.40562  1.0000
  S   S248      1.0  0.04008  0.71933  0.38740  1.0000
  S   S249      1.0  0.02064  0.74606  0.43493  1.0000
  S   S250      1.0  0.03513  0.71696  0.42661  1.0000
  H   H713      1.0  0.99593  0.75856  0.37378  1.0000
  C   C701      1.0  0.00171  0.69584  0.42298  1.0000
  C   C702      1.0  0.00417  0.70485  0.42880  1.0000
  N   N58       1.0  0.11478  0.88252  0.47809  1.0000
  C   C703      1.0  0.00012  0.66768  0.46342  1.0000
  H   H714      1.0  0.01422  0.70893  0.38026  1.0000
  H   H715      1.0  0.00842  0.69312  0.41405  1.0000
  H   H716      1.0  0.01282  0.70903  0.42429  1.0000
  H   H717      1.0  0.14227  0.91699  0.45130  1.0000
  H   H718      1.0  0.08392  0.93548  0.45552  1.0000
  C   C704      1.0  0.03627  0.67732  0.38877  1.0000
  C   C705      1.0  0.03380  0.68137  0.40085  1.0000
  C   C706      1.0  0.03508  0.69423  0.40067  1.0000
  C   C707      1.0  0.03901  0.70289  0.38846  1.0000
  C   C708      1.0  0.04170  0.69866  0.37650  1.0000
  C   C709      1.0  0.04021  0.68602  0.37665  1.0000
  H   H719      1.0  0.03069  0.67471  0.41025  1.0000
  H   H720      1.0  0.03297  0.69748  0.40991  1.0000
  H   H721      1.0  0.04479  0.70527  0.36703  1.0000
  C   C710      1.0  0.02539  0.74303  0.47720  1.0000
  C   C711      1.0  0.99125  0.83396  0.42418  1.0000
  H   H722      1.0  0.99409  0.70306  0.39666  1.0000
  C   C712      1.0  0.04776  0.74224  0.46367  1.0000
  C   C713      1.0  0.04538  0.73477  0.45606  1.0000
  C   C714      1.0  0.03355  0.73034  0.45988  1.0000
  C   C715      1.0  0.02343  0.73474  0.47022  1.0000
  H   H723      1.0  0.01088  0.75373  0.38023  1.0000
  H   H724      1.0  0.05688  0.74572  0.46069  1.0000
  H   H725      1.0  0.03188  0.72419  0.45428  1.0000
  H   H726      1.0  0.98901  0.83166  0.40552  1.0000
  H   H727      1.0  0.14544  0.96066  0.43146  1.0000
  H   H728      1.0  0.21424  0.90851  0.47693  1.0000
  C   C716      1.0  0.98896  0.77224  0.44279  1.0000
  C   C717      1.0  0.11092  0.95927  0.41798  1.0000
  C   C718      1.0  0.10996  0.95623  0.43180  1.0000
  C   C719      1.0  0.11380  0.96433  0.43770  1.0000
  H   H729      1.0  0.09041  0.81488  0.47627  1.0000
  C   C720      1.0  0.99006  0.69115  0.42811  1.0000
  H   H730      1.0  0.09686  0.86441  0.44597  1.0000
  H   H731      1.0  0.10591  0.94785  0.43802  1.0000
  H   H732      1.0  0.11279  0.96198  0.44844  1.0000
  H   H733      1.0  0.03969  0.87972  0.45376  1.0000
  H   H734      1.0  0.23462  0.91703  0.43582  1.0000
  H   H735      1.0  0.04220  0.68296  0.36729  1.0000
  C   C721      1.0  0.03629  0.67827  0.43742  1.0000
  H   H736      1.0  0.17271  0.89569  0.43252  1.0000
  H   H737      1.0  0.19324  0.92402  0.48289  1.0000
  C   C722      1.0  0.03774  0.74634  0.47433  1.0000
  H   H738      1.0  0.08787  0.94585  0.39596  1.0000
  S   S251      1.0  0.17928  0.93772  0.40054  1.0000
  Fe  Fe128     1.0  0.21918  0.94704  0.41139  1.0000
  C   C723      1.0  0.05621  0.87742  0.42281  1.0000
  C   C724      1.0  0.06721  0.86922  0.41626  1.0000
  C   C725      1.0  0.07980  0.87224  0.41295  1.0000
  C   C726      1.0  0.08153  0.88324  0.41650  1.0000
  C   C727      1.0  0.07054  0.89145  0.42305  1.0000
  C   C728      1.0  0.05790  0.88865  0.42601  1.0000
  H   H739      1.0  0.06601  0.86060  0.41368  1.0000
  H   H740      1.0  0.08826  0.86589  0.40781  1.0000
  H   H741      1.0  0.07175  0.90000  0.42573  1.0000
  H   H742      1.0  0.04941  0.89509  0.43098  1.0000
  C   C729      1.0  0.03748  0.80514  0.40516  1.0000
  C   C730      1.0  0.02398  0.80816  0.41106  1.0000
  C   C731      1.0  0.01589  0.79955  0.41200  1.0000
  C   C732      1.0  0.02132  0.78759  0.40755  1.0000
  C   C733      1.0  0.03486  0.78452  0.40170  1.0000
  C   C734      1.0  0.04287  0.79342  0.40026  1.0000
  H   H743      1.0  0.01969  0.81732  0.41459  1.0000
  H   H744      1.0  0.00542  0.80223  0.41615  1.0000
  H   H745      1.0  0.03910  0.77547  0.39796  1.0000
  H   H746      1.0  0.05327  0.79115  0.39548  1.0000
  C   C735      1.0  0.04299  0.67185  0.45897  1.0000
  S   S252      1.0  0.18033  0.97341  0.43939  1.0000
  H   H747      1.0  0.02250  0.89727  0.47916  1.0000
  C   C736      1.0  0.06069  0.81906  0.46841  1.0000
  C   C737      1.0  0.05482  0.83183  0.47079  1.0000
  H   H748      1.0  0.99818  0.79681  0.45728  1.0000
  C   C738      1.0  0.02615  0.69132  0.45474  1.0000
  C   C739      1.0  0.00024  0.75330  0.38269  1.0000
  H   H749      1.0  0.04487  0.83654  0.46941  1.0000
  C   C740      1.0  0.07445  0.83227  0.47744  1.0000
  C   C741      1.0  0.99809  0.77616  0.45924  1.0000
  H   H750      1.0  0.12913  0.89359  0.47632  1.0000
  H   H751      1.0  0.01098  0.68003  0.37758  1.0000
  H   H752      1.0  0.04012  0.66754  0.43704  1.0000
  H   H753      1.0  0.15526  0.97865  0.42890  1.0000
  H   H754      1.0  0.98808  0.80489  0.43762  1.0000
  C   C742      1.0  0.03856  0.90757  0.47338  1.0000
  H   H755      1.0  0.04114  0.86206  0.45745  1.0000
  H   H756      1.0  0.00063  0.83689  0.41982  1.0000
  H   H757      1.0  0.15280  0.95312  0.46420  1.0000
  C   C743      1.0  0.02501  0.69383  0.46725  1.0000
  Fe  Fe129     1.0  0.19382  0.93968  0.41102  1.0000
  C   C744      1.0  0.09063  0.91524  0.39040  1.0000
  C   C745      1.0  0.19019  0.97774  0.44730  1.0000
  C   C746      1.0  0.00699  0.65437  0.46601  1.0000
  S   S253      1.0  0.21318  0.94561  0.43355  1.0000
  C   C747      1.0  0.15107  0.95838  0.42163  1.0000
  H   H758      1.0  0.16953  0.93216  0.46199  1.0000
  H   H759      1.0  0.04219  0.76446  0.42611  1.0000
  C   C748      1.0  0.09271  0.94222  0.46753  1.0000
  C   C749      1.0  0.15042  0.94528  0.46131  1.0000
  S   S254      1.0  0.03409  0.66177  0.38816  1.0000
  C   C750      1.0  0.22103  0.88082  0.47549  1.0000
  C   C751      1.0  0.08467  0.92724  0.39462  1.0000
  C   C752      1.0  0.11014  0.89986  0.38026  1.0000
  N   N59       1.0  0.99872  0.73941  0.38680  1.0000
  Fe  Fe130     1.0  0.20679  0.92715  0.43431  1.0000
  H   H760      1.0  0.11725  0.89388  0.38669  1.0000
  N   N60       1.0  0.15685  0.96955  0.41289  1.0000
  C   C753      1.0  0.20754  0.97096  0.45981  1.0000
  C   C754      1.0  0.14462  0.92486  0.45419  1.0000
  H   H761      1.0  0.05746  0.80404  0.42829  1.0000
  C   C755      1.0  0.06197  0.79397  0.43358  1.0000
  H   H762      1.0  0.13040  0.95595  0.46017  1.0000
  C   C756      1.0  0.99475  0.76730  0.45395  1.0000
  C   C757      1.0  0.14885  0.91907  0.41840  1.0000
  H   H763      1.0  0.18608  0.91234  0.41880  1.0000
  Fe  Fe131     1.0  0.19297  0.95633  0.43009  1.0000
  C   C758      1.0  0.04719  0.91192  0.47806  1.0000
  H   H764      1.0  0.13844  0.92121  0.41844  1.0000
  H   H765      1.0  0.07809  0.80301  0.46854  1.0000
  N   N61       1.0  0.05883  0.86830  0.45603  1.0000
  C   C759      1.0  0.06458  0.87610  0.45988  1.0000
  C   C760      1.0  0.06649  0.85911  0.44867  1.0000
  C   C761      1.0  0.07833  0.87478  0.45642  1.0000
  C   C762      1.0  0.08028  0.85745  0.44512  1.0000
  C   C763      1.0  0.08621  0.86541  0.44895  1.0000
  C   C764      1.0  0.04436  0.87007  0.45966  1.0000
  H   H766      1.0  0.05853  0.88338  0.46567  1.0000
  H   H767      1.0  0.06195  0.85304  0.44542  1.0000
  H   H768      1.0  0.99054  0.82090  0.47541  1.0000
  H   H769      1.0  0.05457  0.91698  0.47088  1.0000
  C   C765      1.0  0.11821  0.89456  0.47890  1.0000
  H   H770      1.0  0.04057  0.86979  0.47054  1.0000
  C   C766      1.0  0.04250  0.77027  0.43285  1.0000
  H   H771      1.0  0.17111  0.90712  0.46479  1.0000
  H   H772      1.0  0.21378  0.96315  0.46571  1.0000
  H   H773      1.0  0.01811  0.70265  0.47020  1.0000
  C   C767      1.0  0.08626  0.92092  0.47386  1.0000
  C   C768      1.0  0.15852  0.97906  0.41823  1.0000
  S   S255      1.0  0.99296  0.83835  0.44782  1.0000
  C   C769      1.0  0.98993  0.79433  0.44215  1.0000
  H   H774      1.0  0.13169  0.87816  0.46247  1.0000
  C   C770      1.0  0.08053  0.81965  0.47466  1.0000
  H   H775      1.0  0.02007  0.69827  0.44814  1.0000
  H   H776      1.0  0.12603  0.85786  0.46086  1.0000
  H   H777      1.0  0.11613  0.97327  0.39943  1.0000
  C   C771      1.0  0.11859  0.97561  0.42988  1.0000
  H   H778      1.0  0.00638  0.66310  0.39846  1.0000
  C   C772      1.0  0.99528  0.70867  0.44016  1.0000
  C   C773      1.0  0.09793  0.93879  0.47896  1.0000
  N   N62       1.0  0.05241  0.78537  0.43776  1.0000
  C   C774      1.0  0.16811  0.90484  0.42646  1.0000
  C   C775      1.0  0.10561  0.93392  0.38610  1.0000
  H   H779      1.0  0.04410  0.79076  0.45669  1.0000
  H   H780      1.0  0.11162  0.94104  0.38471  1.0000
  H   H781      1.0  0.07432  0.92913  0.39978  1.0000
  H   H782      1.0  0.02661  0.76344  0.44833  1.0000
  H   H783      1.0  0.06498  0.79502  0.44233  1.0000
  C   C776      1.0  0.08709  0.93317  0.46485  1.0000
  H   H784      1.0  0.08474  0.90786  0.39242  1.0000
  C   C777      1.0  0.16996  0.92586  0.41041  1.0000
  C   C778      1.0  0.15982  0.93339  0.46007  1.0000
  H   H785      1.0  0.14399  0.95631  0.41703  1.0000
  N   N63       1.0  0.15681  0.92331  0.45673  1.0000
  C   C779      1.0  0.99538  0.71327  0.39384  1.0000
  N   N64       1.0  0.03494  0.68037  0.45081  1.0000
  C   C780      1.0  0.16114  0.97001  0.39945  1.0000
  C   C781      1.0  0.99376  0.67402  0.47412  1.0000
  N   N65       1.0  0.23027  0.97963  0.41588  1.0000
  S   S256      1.0  0.21439  0.92748  0.41238  1.0000
  C   C782      1.0  0.00289  0.83168  0.47892  1.0000
  H   H786      1.0  0.98827  0.68431  0.47205  1.0000
  S   S257      1.0  0.10754  0.94867  0.48078  1.0000
  C   C783      1.0  0.13494  0.93660  0.45542  1.0000
  H   H787      1.0  0.12516  0.93771  0.45376  1.0000
  S   S258      1.0  0.18599  0.93777  0.43306  1.0000
  C   C784      1.0  0.19802  0.96778  0.45528  1.0000
  H   H788      1.0  0.99958  0.67299  0.45322  1.0000
  C   C785      1.0  0.03369  0.76978  0.44528  1.0000
  H   H789      1.0  0.99522  0.75875  0.39089  1.0000
  C   C786      1.0  0.17570  0.91424  0.41867  1.0000
  C   C787      1.0  0.09224  0.93662  0.39246  1.0000
  S   S259      1.0  0.21020  0.90967  0.45121  1.0000
  C   C788      1.0  0.00124  0.67768  0.38114  1.0000
  C   C789      1.0  0.15655  0.92818  0.41020  1.0000
  C   C790      1.0  0.15463  0.90729  0.42645  1.0000
  C   C791      1.0  0.05179  0.77825  0.42919  1.0000
  S   S260      1.0  0.12458  0.98461  0.43765  1.0000
  N   N66       1.0  0.10378  0.91266  0.38420  1.0000
  C   C792      1.0  0.03297  0.68503  0.47577  1.0000
  H   H790      1.0  0.07108  0.78985  0.42666  1.0000
  C   C793      1.0  0.11126  0.92181  0.38205  1.0000
  C   C794      1.0  0.16686  0.91090  0.45572  1.0000
  H   H791      1.0  0.17504  0.91277  0.44685  1.0000
  C   C795      1.0  0.04374  0.78499  0.44995  1.0000
  H   H792      1.0  0.16266  0.90291  0.45478  1.0000
  H   H793      1.0  0.08282  0.88104  0.45946  1.0000
  H   H794      1.0  0.02756  0.77670  0.46367  1.0000
  H   H795      1.0  0.12176  0.91963  0.37746  1.0000
  H   H796      1.0  0.99661  0.75668  0.45850  1.0000
  H   H797      1.0  0.15905  0.94929  0.42323  1.0000
  S   S261      1.0  0.19922  0.95933  0.40781  1.0000
  C   C796      1.0  0.03427  0.77717  0.45391  1.0000
  C   C797      1.0  0.99865  0.66801  0.39291  1.0000
  C   C798      1.0  0.22336  0.91221  0.45600  1.0000
  H   H798      1.0  0.03924  0.75288  0.47960  1.0000
  C   C799      1.0  0.19674  0.88714  0.48095  1.0000
  C   C800      1.0  0.00664  0.71657  0.38461  1.0000
  H   H799      1.0  0.01712  0.73217  0.37418  1.0000
  C   C801      1.0  0.10805  0.85993  0.47618  1.0000
  H   H800      1.0  0.22069  0.88081  0.46540  1.0000
  C   C802      1.0  0.04203  0.67396  0.47164  1.0000
  C   C803      1.0  0.20942  0.98404  0.45608  1.0000
  H   H801      1.0  0.01395  0.73203  0.47253  1.0000
  C   C804      1.0  0.11548  0.97074  0.41013  1.0000
  C   C805      1.0  0.99580  0.78974  0.45322  1.0000
  H   H802      1.0  0.13361  0.98276  0.46117  1.0000
  C   C806      1.0  0.00819  0.72976  0.38119  1.0000
  H   H803      1.0  0.03917  0.90935  0.46271  1.0000
  H   H804      1.0  0.05686  0.84795  0.47786  1.0000
  C   C807      1.0  0.07353  0.81292  0.47037  1.0000
  C   C808      1.0  0.11933  0.97889  0.41605  1.0000
  H   H805      1.0  0.00231  0.77251  0.46806  1.0000
  H   H806      1.0  0.17057  0.98056  0.38029  1.0000
  H   H807      1.0  0.10549  0.85102  0.47556  1.0000
  C   C809      1.0  0.23336  0.87886  0.47853  1.0000
  H   H808      1.0  0.11371  0.90335  0.47185  1.0000
  H   H809      1.0  0.19704  0.88173  0.47333  1.0000
  C   C810      1.0  0.23419  0.91606  0.44630  1.0000
  C   C811      1.0  0.16714  0.98028  0.39093  1.0000
  H   H810      1.0  0.99306  0.69180  0.36501  1.0000
  H   H811      1.0  0.02656  0.68145  0.43449  1.0000
  C   C812      1.0  0.98759  0.73626  0.39583  1.0000
  C   C813      1.0  0.99122  0.68424  0.37412  1.0000
  C   C814      1.0  0.06159  0.83828  0.47557  1.0000
  H   H812      1.0  0.04831  0.66715  0.47822  1.0000
  H   H813      1.0  0.19428  0.89806  0.47659  1.0000
  C   C815      1.0  0.23300  0.91362  0.47337  1.0000
  C   C816      1.0  0.11961  0.86371  0.46800  1.0000
  H   H814      1.0  0.23516  0.97435  0.43491  1.0000
  H   H815      1.0  0.05019  0.66335  0.45568  1.0000
  H   H816      1.0  0.15770  0.97673  0.46046  1.0000
  C   C817      1.0  0.21701  0.97990  0.41927  1.0000
  H   H817      1.0  0.21287  0.97380  0.42859  1.0000
  C   C818      1.0  0.99850  0.82024  0.48012  1.0000
  C   C819      1.0  0.12280  0.87515  0.46904  1.0000
  H   H818      1.0  0.99830  0.84124  0.47336  1.0000
  C   C820      1.0  0.02919  0.90086  0.48258  1.0000
  H   H819      1.0  0.12405  0.91997  0.55301  1.0000
  Fe  Fe132     1.0  0.05563  0.86834  0.51770  1.0000
  S   S262      1.0  0.05555  0.87024  0.49618  1.0000
  S   S263      1.0  0.05903  0.88640  0.52225  1.0000
  Fe  Fe133     1.0  0.04754  0.84140  0.52681  1.0000
  S   S264      1.0  0.04736  0.84125  0.50600  1.0000
  S   S265      1.0  0.03970  0.82457  0.54249  1.0000
  Fe  Fe134     1.0  0.06600  0.84873  0.49991  1.0000
  N   N67       1.0  0.99440  0.66731  0.48700  1.0000
  Fe  Fe135     1.0  0.03687  0.86257  0.50436  1.0000
  S   S266      1.0  0.01889  0.86977  0.49534  1.0000
  S   S267      1.0  0.06740  0.84707  0.52096  1.0000
  S   S268      1.0  0.03581  0.86260  0.52560  1.0000
  Fe  Fe136     1.0  0.12291  0.90982  0.51503  1.0000
  S   S269      1.0  0.11067  0.93029  0.51697  1.0000
  S   S270      1.0  0.11668  0.89007  0.52264  1.0000
  Fe  Fe137     1.0  0.14747  0.92010  0.49878  1.0000
  S   S271      1.0  0.13733  0.94150  0.49832  1.0000
  H   H820      1.0  0.99370  0.69131  0.52370  1.0000
  Fe  Fe138     1.0  0.12897  0.93413  0.52006  1.0000
  S   S272      1.0  0.13047  0.94529  0.53443  1.0000
  Fe  Fe139     1.0  0.12002  0.93602  0.49520  1.0000
  H   H821      1.0  0.21006  0.94827  0.52723  1.0000
  S   S273      1.0  0.14023  0.91291  0.52074  1.0000
  S   S274      1.0  0.13116  0.91537  0.49296  1.0000
  H   H822      1.0  0.20955  0.98128  0.49131  1.0000
  C   C821      1.0  0.04612  0.70135  0.52728  1.0000
  C   C822      1.0  0.01119  0.69736  0.53711  1.0000
  H   H823      1.0  0.01153  0.68512  0.51878  1.0000
  S   S275      1.0  0.20947  0.90709  0.52455  1.0000
  H   H824      1.0  0.12761  0.88848  0.54508  1.0000
  H   H825      1.0  0.09671  0.88511  0.49283  1.0000
  H   H826      1.0  0.04925  0.68557  0.54460  1.0000
  C   C823      1.0  0.12656  0.98100  0.50802  1.0000
  H   H827      1.0  0.13522  0.89798  0.55090  1.0000
  C   C824      1.0  0.04231  0.68165  0.51683  1.0000
  C   C825      1.0  0.06918  0.73581  0.52020  1.0000
  H   H828      1.0  0.04247  0.71485  0.50877  1.0000
  N   N68       1.0  0.00416  0.68793  0.53880  1.0000
  H   H829      1.0  0.09072  0.86484  0.49150  1.0000
  C   C826      1.0  0.19494  0.96641  0.52500  1.0000
  S   S276      1.0  0.03957  0.74840  0.50756  1.0000
  H   H830      1.0  0.05860  0.79818  0.50808  1.0000
  Fe  Fe140     1.0  0.03043  0.76383  0.52009  1.0000
  C   C827      1.0  0.01480  0.80736  0.49309  1.0000
  S   S277      1.0  0.04218  0.77993  0.51293  1.0000
  C   C828      1.0  0.20017  0.95281  0.52543  1.0000
  C   C829      1.0  0.00617  0.69537  0.56101  1.0000
  Fe  Fe141     1.0  0.00821  0.74961  0.53574  1.0000
  N   N69       1.0  0.04636  0.90982  0.49151  1.0000
  C   C830      1.0  0.04492  0.67837  0.52964  1.0000
  S   S278      1.0  0.02801  0.74862  0.53958  1.0000
  H   H831      1.0  0.03362  0.82707  0.49481  1.0000
  H   H832      1.0  0.00131  0.67401  0.52951  1.0000
  N   N70       1.0  0.18006  0.95073  0.52136  1.0000
  H   H833      1.0  0.01941  0.79782  0.49869  1.0000
  C   C831      1.0  0.03726  0.90318  0.50058  1.0000
  H   H834      1.0  0.01249  0.82361  0.55910  1.0000
  H   H835      1.0  0.08376  0.93477  0.54877  1.0000
  C   C832      1.0  0.12597  0.89445  0.55267  1.0000
  C   C833      1.0  0.11499  0.91808  0.55207  1.0000
  H   H836      1.0  0.99385  0.86918  0.49053  1.0000
  C   C834      1.0  0.20998  0.88455  0.49721  1.0000
  H   H837      1.0  0.02679  0.81525  0.50890  1.0000
  H   H838      1.0  0.01475  0.84509  0.54724  1.0000
  H   H839      1.0  0.17384  0.93240  0.52595  1.0000
  N   N71       1.0  0.11445  0.90562  0.55146  1.0000
  C   C835      1.0  0.10327  0.87906  0.48592  1.0000
  S   S279      1.0  0.23196  0.96089  0.51272  1.0000
  C   C836      1.0  0.04320  0.70469  0.51461  1.0000
  C   C837      1.0  0.00328  0.83833  0.51835  1.0000
  H   H840      1.0  0.01814  0.70849  0.54682  1.0000
  H   H841      1.0  0.16154  0.94693  0.52132  1.0000
  C   C838      1.0  0.01242  0.70111  0.54819  1.0000
  C   C839      1.0  0.03009  0.81763  0.49781  1.0000
  C   C840      1.0  0.13110  0.96197  0.52620  1.0000
  C   C841      1.0  0.12566  0.96792  0.51491  1.0000
  H   H842      1.0  0.08961  0.90864  0.49292  1.0000
  S   S280      1.0  0.04001  0.66955  0.50996  1.0000
  C   C842      1.0  0.09978  0.86767  0.48516  1.0000
  C   C843      1.0  0.13728  0.96930  0.53071  1.0000
  H   H843      1.0  0.12053  0.96252  0.51158  1.0000
  H   H844      1.0  0.03952  0.69743  0.49939  1.0000
  H   H845      1.0  0.10028  0.92422  0.49725  1.0000
  H   H846      1.0  0.14137  0.96480  0.53955  1.0000
  C   C844      1.0  0.17955  0.91424  0.49890  1.0000
  C   C845      1.0  0.19117  0.91903  0.49337  1.0000
  C   C846      1.0  0.20027  0.91719  0.50127  1.0000
  C   C847      1.0  0.19781  0.91047  0.51470  1.0000
  C   C848      1.0  0.18605  0.90590  0.52030  1.0000
  C   C849      1.0  0.17694  0.90778  0.51242  1.0000
  C   C850      1.0  0.00837  0.85841  0.50240  1.0000
  H   H847      1.0  0.20934  0.92064  0.49680  1.0000
  H   H848      1.0  0.18414  0.90062  0.53069  1.0000
  H   H849      1.0  0.16817  0.90373  0.51669  1.0000
  C   C851      1.0  0.19258  0.94509  0.52352  1.0000
  H   H850      1.0  0.04559  0.66822  0.53548  1.0000
  N   N72       1.0  0.20955  0.88365  0.48479  1.0000
  C   C852      1.0  0.18222  0.97211  0.52264  1.0000
  H   H851      1.0  0.19676  0.93454  0.52384  1.0000
  C   C853      1.0  0.07527  0.88734  0.52170  1.0000
  C   C854      1.0  0.08567  0.87602  0.52191  1.0000
  C   C855      1.0  0.09838  0.87700  0.52207  1.0000
  C   C856      1.0  0.10083  0.88933  0.52167  1.0000
  C   C857      1.0  0.09052  0.90072  0.52111  1.0000
  C   C858      1.0  0.07775  0.89968  0.52130  1.0000
  H   H852      1.0  0.08385  0.86644  0.52234  1.0000
  H   H853      1.0  0.10630  0.86813  0.52261  1.0000
  H   H854      1.0  0.09231  0.91027  0.52079  1.0000
  H   H855      1.0  0.06975  0.90848  0.52115  1.0000
  C   C859      1.0  0.04132  0.81093  0.53542  1.0000
  C   C860      1.0  0.05093  0.80911  0.52377  1.0000
  C   C861      1.0  0.05135  0.79919  0.51732  1.0000
  C   C862      1.0  0.04219  0.79096  0.52247  1.0000
  C   C863      1.0  0.03300  0.79223  0.53452  1.0000
  C   C864      1.0  0.03265  0.80216  0.54105  1.0000
  H   H856      1.0  0.05808  0.81536  0.51969  1.0000
  N   N73       1.0  0.06858  0.74924  0.51744  1.0000
  H   H857      1.0  0.02599  0.78581  0.53863  1.0000
  H   H858      1.0  0.02551  0.80316  0.55030  1.0000
  H   H859      1.0  0.05842  0.92339  0.48953  1.0000
  C   C865      1.0  0.05583  0.91399  0.49617  1.0000
  C   C866      1.0  0.01172  0.84722  0.51239  1.0000
  N   N74       1.0  0.01919  0.81862  0.49167  1.0000
  H   H860      1.0  0.99371  0.68158  0.57252  1.0000
  H   H861      1.0  0.22236  0.88400  0.51026  1.0000
  C   C867      1.0  0.17493  0.96411  0.52069  1.0000
  H   H862      1.0  0.02058  0.84557  0.51595  1.0000
  S   S281      1.0  0.22823  0.93351  0.49823  1.0000
  C   C868      1.0  0.00095  0.65422  0.48961  1.0000
  C   C869      1.0  0.09030  0.91806  0.48591  1.0000
  H   H863      1.0  0.99188  0.67524  0.55261  1.0000
  S   S282      1.0  0.01198  0.75027  0.48850  1.0000
  H   H864      1.0  0.12227  0.98551  0.49931  1.0000
  S   S283      1.0  0.00972  0.76649  0.51759  1.0000
  C   C870      1.0  0.00260  0.68445  0.52706  1.0000
  H   H865      1.0  0.02141  0.89327  0.50347  1.0000
  H   H866      1.0  0.16514  0.96866  0.51869  1.0000
  H   H867      1.0  0.06726  0.73019  0.53050  1.0000
  C   C871      1.0  0.23388  0.87995  0.49112  1.0000
  C   C872      1.0  0.22212  0.88278  0.50055  1.0000
  C   C873      1.0  0.17237  0.94247  0.51918  1.0000
  S   S284      1.0  0.04844  0.71365  0.53385  1.0000
  S   S285      1.0  0.16892  0.91554  0.48856  1.0000
  H   H868      1.0  0.07198  0.71854  0.51213  1.0000
  H   H869      1.0  0.20075  0.97251  0.52646  1.0000
  H   H870      1.0  0.17557  0.94127  0.50864  1.0000
  C   C874      1.0  0.01330  0.83070  0.48481  1.0000
  Fe  Fe142     1.0  0.01876  0.75003  0.50652  1.0000
  C   C875      1.0  0.99652  0.86055  0.49827  1.0000
  C   C876      1.0  0.10302  0.90336  0.55019  1.0000
  H   H871      1.0  0.10458  0.93866  0.55131  1.0000
  C   C877      1.0  0.99884  0.68592  0.56263  1.0000
  C   C878      1.0  0.13828  0.98242  0.52372  1.0000
  H   H872      1.0  0.00571  0.86775  0.53499  1.0000
  C   C879      1.0  0.07186  0.72915  0.50983  1.0000
  H   H873      1.0  0.10261  0.89349  0.54965  1.0000
  H   H874      1.0  0.06949  0.76713  0.50226  1.0000
  S   S286      1.0  0.01574  0.73340  0.52435  1.0000
  C   C880      1.0  0.06522  0.75602  0.52854  1.0000
  Fe  Fe143     1.0  0.03553  0.73347  0.52679  1.0000
  H   H875      1.0  0.03867  0.80966  0.49463  1.0000
  C   C881      1.0  0.99790  0.68232  0.55133  1.0000
  C   C882      1.0  0.02852  0.89865  0.49626  1.0000
  C   C883      1.0  0.10395  0.92872  0.55119  1.0000
  C   C884      1.0  0.09181  0.91378  0.54922  1.0000
  H   H876      1.0  0.03680  0.90123  0.51124  1.0000
  C   C885      1.0  0.09230  0.92654  0.54973  1.0000
  H   H877      1.0  0.00086  0.79910  0.48843  1.0000
  H   H878      1.0  0.06745  0.76616  0.52511  1.0000
  C   C886      1.0  0.99122  0.84070  0.51466  1.0000
  H   H879      1.0  0.08289  0.91197  0.54788  1.0000
  H   H880      1.0  0.12432  0.88786  0.56282  1.0000
  H   H881      1.0  0.01587  0.70206  0.52717  1.0000
  H   H882      1.0  0.17804  0.98267  0.52238  1.0000
  H   H883      1.0  0.01666  0.83966  0.48382  1.0000
  C   C887      1.0  0.04151  0.69481  0.50931  1.0000
  C   C888      1.0  0.04703  0.68817  0.53477  1.0000
  H   H884      1.0  0.00597  0.82976  0.52614  1.0000
  N   N75       1.0  0.99694  0.83829  0.55088  1.0000
  H   H885      1.0  0.00688  0.69839  0.56965  1.0000
  H   H886      1.0  0.99177  0.66930  0.50709  1.0000
  H   H887      1.0  0.20089  0.88708  0.50446  1.0000
  C   C889      1.0  0.99954  0.86048  0.53912  1.0000
  C   C890      1.0  0.00458  0.84764  0.54607  1.0000
  H   H888      1.0  0.05444  0.75728  0.53308  1.0000
  C   C891      1.0  0.07042  0.75639  0.50446  1.0000
  S   S287      1.0  0.08228  0.84029  0.48424  1.0000
  H   H889      1.0  0.05177  0.91571  0.50649  1.0000
  H   H890      1.0  0.07089  0.75018  0.53635  1.0000
  S   S288      1.0  0.99005  0.74689  0.55183  1.0000
  C   C892      1.0  0.00245  0.82464  0.55748  1.0000
  H   H891      1.0  0.06505  0.90603  0.49624  1.0000
  H   H892      1.0  0.23247  0.91261  0.48385  1.0000
  H   H893      1.0  0.03226  0.68683  0.48550  1.0000
  H   H894      1.0  0.07559  0.73133  0.48846  1.0000
  C   C893      1.0  0.09641  0.92686  0.48833  1.0000
  Fe  Fe144     1.0  0.22781  0.91538  0.51504  1.0000
  H   H895      1.0  0.98802  0.73971  0.52836  1.0000
  C   C894      1.0  0.07312  0.75005  0.49383  1.0000
  H   H896      1.0  0.00332  0.81763  0.55113  1.0000
  H   H897      1.0  0.18864  0.88476  0.48973  1.0000
  H   H898      1.0  0.99592  0.82166  0.56739  1.0000
  C   C895      1.0  0.00438  0.80799  0.48733  1.0000
  C   C896      1.0  0.98791  0.85171  0.50443  1.0000
  C   C897      1.0  0.07383  0.73634  0.49657  1.0000
  H   H899      1.0  0.11459  0.89636  0.48924  1.0000
  S   S289      1.0  0.23687  0.92261  0.52753  1.0000
  H   H900      1.0  0.07433  0.75581  0.48359  1.0000
  C   C898      1.0  0.98738  0.67395  0.49813  1.0000
  H   H901      1.0  0.98772  0.68471  0.49524  1.0000
  Fe  Fe145     1.0  0.35931  0.03611  0.43349  1.0000
  S   S290      1.0  0.34486  0.02309  0.44439  1.0000
  S   S291      1.0  0.36321  0.04860  0.44518  1.0000
  Fe  Fe146     1.0  0.36201  0.03001  0.40668  1.0000
  S   S292      1.0  0.34759  0.01656  0.41521  1.0000
  S   S293      1.0  0.37088  0.03168  0.38453  1.0000
  Fe  Fe147     1.0  0.33516  0.03196  0.42686  1.0000
  S   S294      1.0  0.31278  0.03870  0.43218  1.0000
  Fe  Fe148     1.0  0.35828  0.00873  0.43206  1.0000
  C   C899      1.0  0.39754  0.00306  0.39004  1.0000
  S   S295      1.0  0.34857  0.04636  0.41678  1.0000
  S   S296      1.0  0.37382  0.02082  0.42266  1.0000
  Fe  Fe149     1.0  0.46889  0.02809  0.32447  1.0000
  S   S297      1.0  0.46213  0.01990  0.31078  1.0000
  Fe  Fe150     1.0  0.44078  0.03544  0.34115  1.0000
  S   S298      1.0  0.43183  0.02850  0.32850  1.0000
  S   S299      1.0  0.42855  0.04280  0.35976  1.0000
  Fe  Fe151     1.0  0.44903  0.01104  0.32974  1.0000
  C   C900      1.0  0.48047  0.99419  0.25478  1.0000
  Fe  Fe152     1.0  0.44556  0.03811  0.31083  1.0000
  S   S300      1.0  0.43792  0.05247  0.29326  1.0000
  S   S301      1.0  0.45741  0.01734  0.34341  1.0000
  S   S302      1.0  0.45305  0.04693  0.32336  1.0000
  H   H902      1.0  0.44179  0.00540  0.30897  1.0000
  S   S303      1.0  0.48648  0.11074  0.00789  1.0000
  Fe  Fe153     1.0  0.43733  0.02610  0.09168  1.0000
  S   S304      1.0  0.44657  0.03439  0.10304  1.0000
  S   S305      1.0  0.43015  0.03767  0.07277  1.0000
  Fe  Fe154     1.0  0.46313  0.01662  0.10031  1.0000
  C   C901      1.0  0.45762  0.05120  0.19714  1.0000
  Fe  Fe155     1.0  0.43815  0.02026  0.12147  1.0000
  S   S306      1.0  0.42944  0.02537  0.14190  1.0000
  C   C902      1.0  0.40060  0.99908  0.21321  1.0000
  S   S307      1.0  0.42687  0.01369  0.11044  1.0000
  Fe  Fe156     1.0  0.43873  0.10700  0.02678  1.0000
  S   S308      1.0  0.44854  0.12425  0.02254  1.0000
  S   S309      1.0  0.43092  0.09908  0.04881  1.0000
  Fe  Fe157     1.0  0.44651  0.10474  0.99759  1.0000
  H   H903      1.0  0.47129  0.04964  0.25766  1.0000
  Fe  Fe158     1.0  0.46497  0.11244  0.00962  1.0000
  C   C903      1.0  0.37324  0.04687  0.46652  1.0000
  Fe  Fe159     1.0  0.43957  0.13213  0.00455  1.0000
  S   S310      1.0  0.43368  0.15427  0.99586  1.0000
  S   S311      1.0  0.45608  0.09462  0.01518  1.0000
  S   S312      1.0  0.42813  0.11589  0.00965  1.0000
  S   S313      1.0  0.45559  0.00307  0.11940  1.0000
  S   S314      1.0  0.43939  0.02575  0.21299  1.0000
  C   C904      1.0  0.25935  0.04639  0.46196  1.0000
  S   S315      1.0  0.46912  0.01313  0.21933  1.0000
  S   S316      1.0  0.24381  0.01437  0.44966  1.0000
  Fe  Fe160     1.0  0.44983  0.02523  0.22876  1.0000
  S   S317      1.0  0.44934  0.04441  0.23390  1.0000
  Fe  Fe161     1.0  0.45794  0.01197  0.20485  1.0000
  S   S318      1.0  0.46677  0.01262  0.18280  1.0000
  H   H904      1.0  0.38781  0.06356  0.36350  1.0000
  H   H905      1.0  0.46878  0.07314  0.07714  1.0000
  Fe  Fe162     1.0  0.43585  0.21657  0.01756  1.0000
  S   S319      1.0  0.45747  0.21087  0.00858  1.0000
  S   S320      1.0  0.42384  0.20069  0.02549  1.0000
  Fe  Fe163     1.0  0.43668  0.24601  0.01366  1.0000
  S   S321      1.0  0.45833  0.24234  0.00427  1.0000
  S   S322      1.0  0.42589  0.26726  0.01470  1.0000
  Fe  Fe164     1.0  0.45358  0.22994  0.99327  1.0000
  Fe  Fe165     1.0  0.45971  0.22382  0.02068  1.0000
  C   C905      1.0  0.33792  0.05127  0.47416  1.0000
  S   S323      1.0  0.43169  0.23483  0.00137  1.0000
  S   S324      1.0  0.43831  0.22827  0.03094  1.0000
  S   S325      1.0  0.45812  0.30551  0.02144  1.0000
  C   C906      1.0  0.44734  0.28300  0.05079  1.0000
  Fe  Fe166     1.0  0.46101  0.99571  0.23286  1.0000
  S   S326      1.0  0.48384  0.01934  0.09429  1.0000
  Fe  Fe167     1.0  0.25355  0.01479  0.42807  1.0000
  S   S327      1.0  0.27571  0.00767  0.42160  1.0000
  C   C907      1.0  0.40939  0.00569  0.16980  1.0000
  C   C908      1.0  0.44941  0.29534  0.01836  1.0000
  C   C909      1.0  0.45493  0.28158  0.01976  1.0000
  C   C910      1.0  0.44792  0.27297  0.01835  1.0000
  C   C911      1.0  0.43528  0.27802  0.01559  1.0000
  C   C912      1.0  0.42984  0.29181  0.01396  1.0000
  C   C913      1.0  0.43691  0.30047  0.01526  1.0000
  C   C914      1.0  0.46565  0.18219  0.03772  1.0000
  H   H906      1.0  0.45213  0.26237  0.01989  1.0000
  H   H907      1.0  0.42006  0.29582  0.01181  1.0000
  H   H908      1.0  0.43255  0.31105  0.01418  1.0000
  C   C915      1.0  0.43344  0.16523  0.00564  1.0000
  C   C916      1.0  0.42446  0.16539  0.01797  1.0000
  C   C917      1.0  0.42202  0.17606  0.02424  1.0000
  C   C918      1.0  0.42861  0.18658  0.01830  1.0000
  C   C919      1.0  0.43821  0.18602  0.00637  1.0000
  C   C920      1.0  0.44052  0.17542  0.00001  1.0000
  H   H909      1.0  0.41882  0.15768  0.02231  1.0000
  H   H910      1.0  0.41461  0.17640  0.03349  1.0000
  H   H911      1.0  0.44332  0.19408  0.00164  1.0000
  C   C921      1.0  0.43378  0.99076  0.32550  1.0000
  C   C922      1.0  0.43060  0.05470  0.06625  1.0000
  C   C923      1.0  0.43063  0.06019  0.05262  1.0000
  C   C924      1.0  0.43096  0.07373  0.04708  1.0000
  C   C925      1.0  0.43087  0.08196  0.05526  1.0000
  C   C926      1.0  0.43077  0.07650  0.06890  1.0000
  C   C927      1.0  0.43083  0.06287  0.07435  1.0000
  H   H912      1.0  0.43039  0.05392  0.04633  1.0000
  H   H913      1.0  0.43095  0.07787  0.03659  1.0000
  H   H914      1.0  0.43061  0.08284  0.07530  1.0000
  H   H915      1.0  0.43067  0.05878  0.08489  1.0000
  C   C928      1.0  0.45604  0.01587  0.17186  1.0000
  C   C929      1.0  0.44256  0.02180  0.17529  1.0000
  C   C930      1.0  0.43454  0.02493  0.16593  1.0000
  C   C931      1.0  0.43989  0.02199  0.15318  1.0000
  C   C932      1.0  0.45336  0.01601  0.14984  1.0000
  C   C933      1.0  0.46136  0.01297  0.15915  1.0000
  H   H916      1.0  0.43834  0.02414  0.18506  1.0000
  H   H917      1.0  0.42414  0.02957  0.16860  1.0000
  H   H918      1.0  0.45762  0.01381  0.14008  1.0000
  H   H919      1.0  0.47171  0.00833  0.15655  1.0000
  C   C934      1.0  0.44105  0.04925  0.27714  1.0000
  C   C935      1.0  0.44476  0.03630  0.27469  1.0000
  C   C936      1.0  0.44719  0.03453  0.26147  1.0000
  C   C937      1.0  0.44604  0.04570  0.25075  1.0000
  C   C938      1.0  0.44248  0.05852  0.25331  1.0000
  C   C939      1.0  0.43987  0.06028  0.26640  1.0000
  H   H920      1.0  0.44564  0.02770  0.28294  1.0000
  H   H921      1.0  0.45004  0.02457  0.25957  1.0000
  H   H922      1.0  0.44161  0.06718  0.24512  1.0000
  H   H923      1.0  0.43703  0.07029  0.26818  1.0000
  C   C940      1.0  0.38696  0.03461  0.37802  1.0000
  C   C941      1.0  0.39346  0.03849  0.38548  1.0000
  C   C942      1.0  0.40626  0.04092  0.37981  1.0000
  C   C943      1.0  0.41268  0.03928  0.36677  1.0000
  C   C944      1.0  0.40619  0.03526  0.35942  1.0000
  C   C945      1.0  0.39336  0.03299  0.36499  1.0000
  H   H924      1.0  0.38857  0.03979  0.39554  1.0000
  H   H925      1.0  0.41120  0.04409  0.38555  1.0000
  H   H926      1.0  0.41087  0.03417  0.34933  1.0000
  H   H927      1.0  0.38837  0.02999  0.35919  1.0000
  C   C946      1.0  0.30250  0.03053  0.42855  1.0000
  C   C947      1.0  0.30789  0.02015  0.42174  1.0000
  C   C948      1.0  0.29954  0.01329  0.41961  1.0000
  C   C949      1.0  0.28576  0.01690  0.42404  1.0000
  C   C950      1.0  0.28032  0.02742  0.43071  1.0000
  C   C951      1.0  0.28868  0.03419  0.43299  1.0000
  H   H928      1.0  0.31850  0.01730  0.41829  1.0000
  H   H929      1.0  0.30376  0.00500  0.41472  1.0000
  H   H930      1.0  0.26969  0.03033  0.43415  1.0000
  H   H931      1.0  0.28442  0.04227  0.43823  1.0000
  C   C952      1.0  0.48676  0.05802  0.25914  1.0000
  C   C953      1.0  0.37428  0.04104  0.45593  1.0000
  C   C954      1.0  0.38402  0.02944  0.45415  1.0000
  H   H932      1.0  0.48499  0.25942  0.02366  1.0000
  H   H933      1.0  0.38499  0.02499  0.44589  1.0000
  H   H934      1.0  0.47074  0.04882  0.08655  1.0000
  C   C955      1.0  0.33693  0.99109  0.43881  1.0000
  N   N76       1.0  0.47850  0.17519  0.03507  1.0000
  C   C956      1.0  0.46993  0.04458  0.20014  1.0000
  C   C957      1.0  0.45556  0.17818  0.03498  1.0000
  H   H935      1.0  0.24697  0.07876  0.46456  1.0000
  C   C958      1.0  0.47994  0.03882  0.19056  1.0000
  H   H936      1.0  0.48218  0.27080  0.99453  1.0000
  H   H937      1.0  0.32827  0.99742  0.40787  1.0000
  H   H938      1.0  0.42900  0.06679  0.31431  1.0000
  H   H939      1.0  0.47430  0.29467  0.99573  1.0000
  H   H940      1.0  0.29839  0.01524  0.45638  1.0000
  H   H941      1.0  0.40045  0.01499  0.46144  1.0000
  H   H942      1.0  0.46458  0.27754  0.02217  1.0000
  H   H943      1.0  0.24615  0.98701  0.40123  1.0000
  H   H944      1.0  0.28339  0.00369  0.45433  1.0000
  H   H945      1.0  0.39245  0.00702  0.21627  1.0000
  H   H946      1.0  0.40181  0.99953  0.17317  1.0000
  H   H947      1.0  0.47058  0.03713  0.13491  1.0000
  H   H948      1.0  0.44737  0.17542  0.99041  1.0000
  C   C959      1.0  0.44962  0.25595  0.05328  1.0000
  C   C960      1.0  0.47490  0.27728  0.98892  1.0000
  H   H949      1.0  0.42846  0.07159  0.33602  1.0000
  H   H950      1.0  0.33117  0.99341  0.47481  1.0000
  C   C961      1.0  0.47057  0.29074  0.98949  1.0000
  S   S328      1.0  0.45471  0.00906  0.08774  1.0000
  C   C962      1.0  0.46635  0.04532  0.06948  1.0000
  C   C963      1.0  0.32274  0.99361  0.47101  1.0000
  H   H951      1.0  0.48695  0.22785  0.00383  1.0000
  C   C964      1.0  0.39124  0.99940  0.38228  1.0000
  H   H952      1.0  0.46665  0.05624  0.15476  1.0000
  H   H953      1.0  0.47782  0.27191  0.05679  1.0000
  H   H954      1.0  0.31680  0.06191  0.43919  1.0000
  C   C965      1.0  0.43639  0.27848  0.05062  1.0000
  C   C966      1.0  0.23797  0.06763  0.45688  1.0000
  H   H955      1.0  0.41061  0.21528  0.00054  1.0000
  H   H956      1.0  0.38099  0.99851  0.38604  1.0000
  H   H957      1.0  0.36306  0.01065  0.46787  1.0000
  H   H958      1.0  0.47885  0.99490  0.13710  1.0000
  C   C967      1.0  0.41225  0.99601  0.21792  1.0000
  C   C968      1.0  0.48173  0.16447  0.02925  1.0000
  H   H959      1.0  0.42152  0.08465  0.99277  1.0000
  N   N77       1.0  0.39755  0.06614  0.34280  1.0000
  C   C969      1.0  0.39784  0.06327  0.33097  1.0000
  C   C970      1.0  0.40832  0.06930  0.34457  1.0000
  C   C971      1.0  0.40918  0.06341  0.32056  1.0000
  H   H960      1.0  0.40824  0.07129  0.35404  1.0000
  C   C972      1.0  0.42016  0.06664  0.32230  1.0000
  C   C973      1.0  0.38543  0.06648  0.35341  1.0000
  H   H961      1.0  0.38932  0.06078  0.32953  1.0000
  H   H962      1.0  0.43233  0.26399  0.98782  1.0000
  H   H963      1.0  0.40955  0.06095  0.31121  1.0000
  H   H964      1.0  0.47642  0.12417  0.05069  1.0000
  H   H965      1.0  0.47190  0.11408  0.03452  1.0000
  C   C974      1.0  0.47971  0.24033  0.02837  1.0000
  H   H966      1.0  0.37978  0.05928  0.35328  1.0000
  H   H967      1.0  0.41074  0.17900  0.99069  1.0000
  N   N78       1.0  0.46448  0.07256  0.05898  1.0000
  H   H968      1.0  0.40018  0.99270  0.25887  1.0000
  C   C975      1.0  0.46739  0.06697  0.07134  1.0000
  H   H969      1.0  0.33591  0.00107  0.43994  1.0000
  N   N79       1.0  0.45914  0.27419  0.05209  1.0000
  H   H970      1.0  0.29472  0.04891  0.47891  1.0000
  C   C976      1.0  0.46326  0.08699  0.05371  1.0000
  H   H971      1.0  0.46647  0.02774  0.11813  1.0000
  C   C977      1.0  0.48614  0.24939  0.02983  1.0000
  H   H972      1.0  0.48497  0.02123  0.34820  1.0000
  H   H973      1.0  0.37321  0.00063  0.45607  1.0000
  H   H974      1.0  0.41235  0.28190  0.99137  1.0000
  H   H975      1.0  0.26752  0.03808  0.46404  1.0000
  C   C978      1.0  0.41391  0.20871  0.99354  1.0000
  H   H976      1.0  0.35134  0.98822  0.41069  1.0000
  H   H977      1.0  0.45260  0.04831  0.16227  1.0000
  C   C979      1.0  0.48302  0.12413  0.04095  1.0000
  S   S329      1.0  0.44241  0.00784  0.24326  1.0000
  S   S330      1.0  0.36245  0.98671  0.44073  1.0000
  C   C980      1.0  0.24965  0.04477  0.45650  1.0000
  S   S331      1.0  0.45693  0.12160  0.99116  1.0000
  H   H978      1.0  0.39323  0.99447  0.36341  1.0000
  S   S332      1.0  0.24175  0.03503  0.42022  1.0000
  H   H979      1.0  0.45098  0.16383  0.02720  1.0000
  C   C981      1.0  0.47394  0.04503  0.27790  1.0000
  H   H980      1.0  0.46639  0.03921  0.28200  1.0000
  H   H981      1.0  0.46817  0.28877  0.05410  1.0000
  H   H982      1.0  0.47365  0.24342  0.02109  1.0000
  H   H983      1.0  0.37902  0.07669  0.35215  1.0000
  C   C982      1.0  0.48148  0.22726  0.03609  1.0000
  C   C983      1.0  0.24783  0.06934  0.46213  1.0000
  H   H984      1.0  0.25045  0.03526  0.45445  1.0000
  H   H985      1.0  0.47164  0.04376  0.20996  1.0000
  H   H986      1.0  0.33611  0.05960  0.44855  1.0000
  N   N80       1.0  0.41699  0.00312  0.37220  1.0000
  C   C984      1.0  0.43049  0.00524  0.36672  1.0000
  C   C985      1.0  0.47761  0.04007  0.17796  1.0000
  H   H987      1.0  0.36597  0.05599  0.46779  1.0000
  H   H988      1.0  0.43116  0.31100  0.98789  1.0000
  C   C986      1.0  0.33469  0.99011  0.40225  1.0000
  N   N81       1.0  0.37504  0.99206  0.47613  1.0000
  H   H989      1.0  0.43278  0.01186  0.37179  1.0000
  H   H990      1.0  0.41628  0.99757  0.35471  1.0000
  H   H991      1.0  0.29591  0.05659  0.45441  1.0000
  Fe  Fe168     1.0  0.44506  0.99734  0.10718  1.0000
  C   C987      1.0  0.30431  0.00576  0.46061  1.0000
  C   C988      1.0  0.39280  0.02385  0.46289  1.0000
  H   H992      1.0  0.40888  0.01035  0.17809  1.0000
  H   H993      1.0  0.39035  0.99405  0.20118  1.0000
  C   C989      1.0  0.31492  0.04972  0.47720  1.0000
  C   C990      1.0  0.38155  0.04094  0.47559  1.0000
  C   C991      1.0  0.30380  0.05117  0.47219  1.0000
  H   H994      1.0  0.44972  0.05549  0.20466  1.0000
  C   C992      1.0  0.39942  0.99179  0.20466  1.0000
  N   N82       1.0  0.42254  0.99729  0.16588  1.0000
  H   H995      1.0  0.48546  0.03568  0.17048  1.0000
  Fe  Fe169     1.0  0.43383  0.00706  0.22664  1.0000
  C   C993      1.0  0.47839  0.03514  0.12632  1.0000
  H   H996      1.0  0.43778  0.99551  0.36768  1.0000
  H   H997      1.0  0.29503  0.99255  0.44423  1.0000
  S   S333      1.0  0.23982  0.00394  0.42523  1.0000
  C   C994      1.0  0.46322  0.04746  0.16191  1.0000
  C   C995      1.0  0.41051  0.00490  0.38481  1.0000
  H   H998      1.0  0.47259  0.08987  0.05306  1.0000
  C   C996      1.0  0.43760  0.26488  0.05175  1.0000
  S   S334      1.0  0.44314  0.99139  0.33627  1.0000
  C   C997      1.0  0.48044  0.11848  0.03179  1.0000
  S   S335      1.0  0.41322  0.00425  0.22960  1.0000
  H   H999      1.0  0.34291  0.05974  0.46911  1.0000
  C   C998      1.0  0.47190  0.16020  0.02636  1.0000
  H   H1000     1.0  0.44651  0.29366  0.04922  1.0000
  C   C999      1.0  0.45550  0.05196  0.18454  1.0000
  C   C1000     1.0  0.43160  0.99397  0.17371  1.0000
  C   C1001     1.0  0.46846  0.05327  0.07673  1.0000
  C   C1002     1.0  0.46333  0.05110  0.05693  1.0000
  H   H1001     1.0  0.37649  0.00866  0.48263  1.0000
  H   H1002     1.0  0.31327  0.00177  0.39147  1.0000
  C   C1003     1.0  0.48103  0.04661  0.28629  1.0000
  H   H1003     1.0  0.43077  0.00201  0.29298  1.0000
  C   C1004     1.0  0.42530  0.07373  0.99337  1.0000
  H   H1004     1.0  0.46885  0.03838  0.15802  1.0000
  S   S336      1.0  0.45182  0.99325  0.21755  1.0000
  C   C1005     1.0  0.47673  0.05087  0.26426  1.0000
  H   H1005     1.0  0.31709  0.01516  0.46550  1.0000
  C   C1006     1.0  0.41980  0.06952  0.33439  1.0000
  C   C1007     1.0  0.46249  0.06481  0.05176  1.0000
  H   H1006     1.0  0.45984  0.06927  0.04212  1.0000
  C   C1008     1.0  0.46031  0.26081  0.05351  1.0000
  C   C1009     1.0  0.47090  0.27921  0.05076  1.0000
  H   H1007     1.0  0.42724  0.28557  0.04900  1.0000
  H   H1008     1.0  0.44536  0.18364  0.03727  1.0000
  C   C1010     1.0  0.32705  0.05725  0.45528  1.0000
  H   H1009     1.0  0.44585  0.05697  0.18236  1.0000
  C   C1011     1.0  0.30444  0.05562  0.45846  1.0000
  C   C1012     1.0  0.41104  0.99912  0.36467  1.0000
  H   H1010     1.0  0.42934  0.26133  0.05109  1.0000
  H   H1011     1.0  0.45489  0.09257  0.06029  1.0000
  H   H1012     1.0  0.42926  0.99775  0.18274  1.0000
  H   H1013     1.0  0.46310  0.19092  0.04202  1.0000
  H   H1014     1.0  0.46109  0.09024  0.04353  1.0000
  N   N83       1.0  0.32629  0.05294  0.46879  1.0000
  C   C1013     1.0  0.25829  0.05856  0.46507  1.0000
  C   C1014     1.0  0.42555  0.99265  0.15442  1.0000
  N   N84       1.0  0.46542  0.04634  0.17519  1.0000
  H   H1015     1.0  0.41519  0.00817  0.39074  1.0000
  H   H1016     1.0  0.47447  0.15152  0.02197  1.0000
  H   H1017     1.0  0.35853  0.99585  0.46738  1.0000
  C   C1015     1.0  0.45872  0.16708  0.02931  1.0000
  C   C1016     1.0  0.42116  0.98710  0.30748  1.0000
  S   S337      1.0  0.26871  0.05951  0.47459  1.0000
  C   C1017     1.0  0.42905  0.99656  0.30331  1.0000
  H   H1018     1.0  0.43169  0.01027  0.35596  1.0000
  H   H1019     1.0  0.39222  0.00500  0.39983  1.0000
  H   H1020     1.0  0.48502  0.98834  0.19530  1.0000
  H   H1021     1.0  0.47566  0.00240  0.24790  1.0000
  H   H1022     1.0  0.45076  0.24537  0.05397  1.0000
  H   H1023     1.0  0.40703  0.01396  0.16117  1.0000
  C   C1018     1.0  0.43531  0.99844  0.31236  1.0000
  H   H1024     1.0  0.46120  0.04507  0.05146  1.0000
  C   C1019     1.0  0.39142  0.02950  0.47374  1.0000
  H   H1025     1.0  0.34511  0.04185  0.47239  1.0000
  C   C1020     1.0  0.39804  0.99729  0.36955  1.0000
  C   C1021     1.0  0.31614  0.05868  0.44993  1.0000
  H   H1026     1.0  0.31754  0.99536  0.43496  1.0000
  C   C1022     1.0  0.23872  0.05522  0.45436  1.0000
  H   H1027     1.0  0.47628  0.28097  0.04007  1.0000
  H   H1028     1.0  0.30954  0.98646  0.40269  1.0000
  H   H1029     1.0  0.31387  0.98786  0.38484  1.0000
  H   H1030     1.0  0.46688  0.03473  0.07368  1.0000
  C   C1023     1.0  0.40905  0.19717  0.99655  1.0000
  C   C1024     1.0  0.36705  0.00025  0.46641  1.0000
  S   S338      1.0  0.47472  0.21534  0.03343  1.0000
  C   C1025     1.0  0.31599  0.99068  0.39318  1.0000
  C   C1026     1.0  0.48619  0.02693  0.10575  1.0000
  H   H1031     1.0  0.47874  0.04206  0.29686  1.0000
  H   H1032     1.0  0.26911  0.98773  0.44488  1.0000
  C   C1027     1.0  0.47605  0.02982  0.11677  1.0000
  C   C1028     1.0  0.41400  0.18834  0.98787  1.0000
  H   H1033     1.0  0.40202  0.19471  0.00591  1.0000
  H   H1034     1.0  0.41794  0.06826  0.00063  1.0000
  C   C1029     1.0  0.31489  0.00577  0.46580  1.0000
  H   H1035     1.0  0.48494  0.18623  0.04511  1.0000
  C   C1030     1.0  0.32644  0.98783  0.43611  1.0000
  C   C1031     1.0  0.29089  0.99409  0.45461  1.0000
  N   N85       1.0  0.30156  0.99398  0.46071  1.0000
  H   H1036     1.0  0.41838  0.99541  0.14817  1.0000
  H   H1037     1.0  0.46964  0.25383  0.05460  1.0000
  H   H1038     1.0  0.43450  0.07091  0.99727  1.0000
  C   C1032     1.0  0.44415  0.98595  0.17004  1.0000
  H   H1039     1.0  0.28560  0.98605  0.46055  1.0000
  H   H1040     1.0  0.46390  0.20549  0.98331  1.0000
  H   H1041     1.0  0.39465  0.29787  0.98331  1.0000
  H   H1042     1.0  0.43238  0.99199  0.66263  1.0000
  N   N86       1.0  0.46701  0.05813  0.65597  1.0000
  C   C1033     1.0  0.48043  0.05617  0.65102  1.0000
  Fe  Fe170     1.0  0.36090  0.03634  0.51896  1.0000
  S   S339      1.0  0.36939  0.01959  0.50839  1.0000
  S   S340      1.0  0.34152  0.04968  0.51457  1.0000
  Fe  Fe171     1.0  0.38327  0.02775  0.53431  1.0000
  S   S341      1.0  0.39337  0.01013  0.52486  1.0000
  S   S342      1.0  0.38811  0.03017  0.55283  1.0000
  Fe  Fe172     1.0  0.38895  0.02426  0.50579  1.0000
  H   H1043     1.0  0.40460  0.01891  0.63042  1.0000
  Fe  Fe173     1.0  0.37292  0.00705  0.52816  1.0000
  S   S343      1.0  0.40142  0.02190  0.48551  1.0000
  S   S344      1.0  0.38032  0.04243  0.51484  1.0000
  S   S345      1.0  0.36295  0.02339  0.53914  1.0000
  Fe  Fe174     1.0  0.44755  0.02384  0.58375  1.0000
  S   S346      1.0  0.45817  0.00271  0.59087  1.0000
  S   S347      1.0  0.44388  0.02975  0.56268  1.0000
  Fe  Fe175     1.0  0.44600  0.03138  0.60979  1.0000
  S   S348      1.0  0.45592  0.01085  0.61902  1.0000
  S   S349      1.0  0.43905  0.04726  0.62178  1.0000
  Fe  Fe176     1.0  0.46992  0.01166  0.59902  1.0000
  C   C1034     1.0  0.41135  0.99424  0.55813  1.0000
  Fe  Fe177     1.0  0.44325  0.00402  0.61010  1.0000
  C   C1035     1.0  0.47025  0.27244  0.98060  1.0000
  S   S350      1.0  0.46085  0.03279  0.59013  1.0000
  S   S351      1.0  0.43178  0.02454  0.60268  1.0000
  C   C1036     1.0  0.35525  0.99241  0.51572  1.0000
  Fe  Fe178     1.0  0.46153  0.02211  0.68849  1.0000
  S   S352      1.0  0.48065  0.02304  0.67344  1.0000
  S   S353      1.0  0.44178  0.03005  0.68288  1.0000
  Fe  Fe179     1.0  0.47503  0.00932  0.71217  1.0000
  C   C1037     1.0  0.39411  0.29212  0.97631  1.0000
  C   C1038     1.0  0.42571  0.26714  0.98096  1.0000
  C   C1039     1.0  0.48685  0.02795  0.75497  1.0000
  C   C1040     1.0  0.44135  0.13078  0.93688  1.0000
  H   H1044     1.0  0.38048  0.04538  0.48390  1.0000
  S   S354      1.0  0.41935  0.30769  0.96847  1.0000
  S   S355      1.0  0.46646  0.03058  0.70306  1.0000
  S   S356      1.0  0.46807  0.00094  0.69900  1.0000
  H   H1045     1.0  0.45787  0.30952  0.98264  1.0000
  H   H1046     1.0  0.42130  0.00343  0.60089  1.0000
  C   C1041     1.0  0.43929  0.22781  0.87697  1.0000
  H   H1047     1.0  0.44800  0.06189  0.65155  1.0000
  H   H1048     1.0  0.48205  0.02515  0.63353  1.0000
  C   C1042     1.0  0.46599  0.25844  0.92162  1.0000
  Fe  Fe180     1.0  0.44733  0.03649  0.82363  1.0000
  S   S357      1.0  0.46016  0.01743  0.83238  1.0000
  S   S358      1.0  0.43693  0.05352  0.83431  1.0000
  Fe  Fe181     1.0  0.45333  0.02855  0.79657  1.0000
  S   S359      1.0  0.46696  0.00902  0.80311  1.0000
  S   S360      1.0  0.44996  0.03641  0.77554  1.0000
  Fe  Fe182     1.0  0.45133  0.00742  0.82214  1.0000
  C   C1043     1.0  0.47673  0.07105  0.85181  1.0000
  Fe  Fe183     1.0  0.47438  0.02079  0.81257  1.0000
  H   H1049     1.0  0.47672  0.06070  0.85790  1.0000
  S   S361      1.0  0.43699  0.02625  0.81504  1.0000
  S   S362      1.0  0.46227  0.04056  0.80442  1.0000
  Fe  Fe184     1.0  0.45144  0.07864  0.89298  1.0000
  S   S363      1.0  0.45241  0.07355  0.91482  1.0000
  S   S364      1.0  0.45249  0.06061  0.88490  1.0000
  Fe  Fe185     1.0  0.45652  0.10652  0.88873  1.0000
  S   S365      1.0  0.45835  0.10328  0.90977  1.0000
  S   S366      1.0  0.46151  0.12569  0.87529  1.0000
  Fe  Fe186     1.0  0.46999  0.08286  0.90753  1.0000
  H   H1050     1.0  0.43126  0.18630  0.95714  1.0000
  Fe  Fe187     1.0  0.44055  0.09445  0.91536  1.0000
  S   S367      1.0  0.42525  0.10073  0.93326  1.0000
  S   S368      1.0  0.46989  0.08677  0.88584  1.0000
  S   S369      1.0  0.43774  0.09896  0.89416  1.0000
  C   C1044     1.0  0.46292  0.20695  0.97319  1.0000
  S   S370      1.0  0.44580  0.20036  0.91860  1.0000
  H   H1051     1.0  0.48584  0.11606  0.97951  1.0000
  H   H1052     1.0  0.47576  0.10293  0.97088  1.0000
  S   S371      1.0  0.46589  0.19833  0.88923  1.0000
  Fe  Fe188     1.0  0.45974  0.21222  0.90342  1.0000
  S   S372      1.0  0.43450  0.98652  0.62197  1.0000
  Fe  Fe189     1.0  0.45368  0.18537  0.90549  1.0000
  S   S373      1.0  0.43916  0.17497  0.90334  1.0000
  C   C1045     1.0  0.45864  0.06014  0.64768  1.0000
  H   H1053     1.0  0.41273  0.07735  0.95435  1.0000
  C   C1046     1.0  0.45537  0.13933  0.88315  1.0000
  C   C1047     1.0  0.44298  0.14073  0.89200  1.0000
  C   C1048     1.0  0.43806  0.15177  0.89805  1.0000
  C   C1049     1.0  0.44568  0.16123  0.89563  1.0000
  C   C1050     1.0  0.45816  0.15977  0.88692  1.0000
  C   C1051     1.0  0.46290  0.14893  0.88053  1.0000
  H   H1054     1.0  0.43707  0.13341  0.89399  1.0000
  H   H1055     1.0  0.42836  0.15291  0.90472  1.0000
  H   H1056     1.0  0.46408  0.16705  0.88497  1.0000
  H   H1057     1.0  0.47248  0.14789  0.87366  1.0000
  C   C1052     1.0  0.44213  0.05575  0.84775  1.0000
  C   C1053     1.0  0.43702  0.06787  0.85201  1.0000
  C   C1054     1.0  0.44032  0.06969  0.86319  1.0000
  C   C1055     1.0  0.44860  0.05929  0.87031  1.0000
  C   C1056     1.0  0.45380  0.04722  0.86595  1.0000
  C   C1057     1.0  0.45068  0.04548  0.85467  1.0000
  H   H1058     1.0  0.43038  0.07587  0.84672  1.0000
  H   H1059     1.0  0.43623  0.07902  0.86646  1.0000
  H   H1060     1.0  0.46034  0.03917  0.87132  1.0000
  H   H1061     1.0  0.45477  0.03613  0.85146  1.0000
  C   C1058     1.0  0.44584  0.24565  0.90489  1.0000
  N   N87       1.0  0.34951  0.05792  0.54327  1.0000
  H   H1062     1.0  0.37996  0.05919  0.54517  1.0000
  C   C1059     1.0  0.43981  0.06327  0.97498  1.0000
  H   H1063     1.0  0.36184  0.04751  0.55725  1.0000
  H   H1064     1.0  0.48544  0.01120  0.83871  1.0000
  H   H1065     1.0  0.45699  0.13906  0.95599  1.0000
  H   H1066     1.0  0.46446  0.05419  0.75236  1.0000
  H   H1067     1.0  0.35727  0.08151  0.51544  1.0000
  C   C1060     1.0  0.47496  0.99041  0.66795  1.0000
  H   H1068     1.0  0.47989  0.00366  0.63050  1.0000
  C   C1061     1.0  0.46225  0.19764  0.95520  1.0000
  C   C1062     1.0  0.46076  0.21042  0.94684  1.0000
  C   C1063     1.0  0.46053  0.22145  0.95164  1.0000
  C   C1064     1.0  0.48580  0.05581  0.63750  1.0000
  H   H1069     1.0  0.43562  0.20451  0.96431  1.0000
  H   H1070     1.0  0.45957  0.21189  0.93676  1.0000
  H   H1071     1.0  0.47174  0.12936  0.90539  1.0000
  C   C1065     1.0  0.45528  0.13687  0.94735  1.0000
  H   H1072     1.0  0.40335  0.04538  0.87031  1.0000
  H   H1073     1.0  0.32397  0.00902  0.53081  1.0000
  C   C1066     1.0  0.43252  0.09969  0.94651  1.0000
  C   C1067     1.0  0.44530  0.09203  0.94677  1.0000
  H   H1074     1.0  0.47402  0.14017  0.93477  1.0000
  C   C1068     1.0  0.42795  0.26419  0.91937  1.0000
  C   C1069     1.0  0.46338  0.19590  0.96835  1.0000
  H   H1075     1.0  0.45062  0.08687  0.93880  1.0000
  C   C1070     1.0  0.47196  0.26930  0.91860  1.0000
  C   C1071     1.0  0.46611  0.00911  0.74566  1.0000
  C   C1072     1.0  0.45993  0.02250  0.74166  1.0000
  C   C1073     1.0  0.45455  0.03062  0.75105  1.0000
  C   C1074     1.0  0.45549  0.02547  0.76446  1.0000
  C   C1075     1.0  0.46142  0.01199  0.76853  1.0000
  C   C1076     1.0  0.46670  0.00382  0.75915  1.0000
  H   H1076     1.0  0.45920  0.02663  0.73137  1.0000
  H   H1077     1.0  0.44977  0.04097  0.74788  1.0000
  H   H1078     1.0  0.46196  0.00784  0.77887  1.0000
  C   C1077     1.0  0.42928  0.18127  0.96793  1.0000
  H   H1079     1.0  0.33052  0.05756  0.55608  1.0000
  H   H1080     1.0  0.43137  0.03020  0.87739  1.0000
  H   H1081     1.0  0.33919  0.06985  0.52804  1.0000
  H   H1082     1.0  0.23803  0.00832  0.48859  1.0000
  H   H1083     1.0  0.46640  0.07710  0.85333  1.0000
  C   C1078     1.0  0.47733  0.05765  0.62903  1.0000
  H   H1084     1.0  0.40231  0.27927  0.95635  1.0000
  C   C1079     1.0  0.45707  0.27569  0.96408  1.0000
  C   C1080     1.0  0.44912  0.99335  0.56369  1.0000
  C   C1081     1.0  0.41831  0.01913  0.64167  1.0000
  H   H1085     1.0  0.43437  0.06384  0.94486  1.0000
  C   C1082     1.0  0.35827  0.07424  0.52474  1.0000
  H   H1086     1.0  0.47134  0.99343  0.76235  1.0000
  C   C1083     1.0  0.45088  0.09029  0.95771  1.0000
  H   H1087     1.0  0.44663  0.28065  0.96346  1.0000
  H   H1088     1.0  0.45137  0.00708  0.54447  1.0000
  H   H1089     1.0  0.43216  0.12827  0.93721  1.0000
  Fe  Fe190     1.0  0.48624  0.02971  0.68883  1.0000
  H   H1090     1.0  0.45646  0.25842  0.92856  1.0000
  S   S374      1.0  0.29821  0.01595  0.52508  1.0000
  H   H1091     1.0  0.46353  0.27768  0.95391  1.0000
  S   S375      1.0  0.42868  0.31069  0.90895  1.0000
  H   H1092     1.0  0.33490  0.04802  0.54327  1.0000
  C   C1084     1.0  0.46488  0.13744  0.93534  1.0000
  H   H1093     1.0  0.43755  0.27899  0.90473  1.0000
  C   C1085     1.0  0.42318  0.21824  0.89515  1.0000
  H   H1094     1.0  0.25467  0.99540  0.50959  1.0000
  H   H1095     1.0  0.40765  0.00357  0.55112  1.0000
  C   C1086     1.0  0.47240  0.31888  0.91873  1.0000
  N   N88       1.0  0.48220  0.04084  0.75659  1.0000
  C   C1087     1.0  0.44000  0.04169  0.63869  1.0000
  C   C1088     1.0  0.42981  0.04733  0.64825  1.0000
  C   C1089     1.0  0.43039  0.04341  0.66178  1.0000
  C   C1090     1.0  0.44141  0.03418  0.66583  1.0000
  C   C1091     1.0  0.45175  0.02860  0.65627  1.0000
  C   C1092     1.0  0.45094  0.03221  0.64270  1.0000
  H   H1096     1.0  0.42135  0.05469  0.64519  1.0000
  H   H1097     1.0  0.42236  0.04772  0.66913  1.0000
  H   H1098     1.0  0.46022  0.02136  0.65935  1.0000
  H   H1099     1.0  0.45883  0.02789  0.63531  1.0000
  C   C1093     1.0  0.41727  0.99461  0.60508  1.0000
  C   C1094     1.0  0.43107  0.10437  0.96811  1.0000
  H   H1100     1.0  0.42045  0.24720  0.93232  1.0000
  H   H1101     1.0  0.47497  0.04718  0.73848  1.0000
  C   C1095     1.0  0.34810  0.06754  0.53187  1.0000
  H   H1102     1.0  0.44628  0.99337  0.80488  1.0000
  S   S376      1.0  0.47335  0.99887  0.73397  1.0000
  C   C1096     1.0  0.37098  0.06172  0.54139  1.0000
  N   N89       1.0  0.40610  0.28159  0.97411  1.0000
  S   S377      1.0  0.41613  0.27565  0.92816  1.0000
  C   C1097     1.0  0.40380  0.02995  0.55517  1.0000
  C   C1098     1.0  0.41410  0.03338  0.54444  1.0000
  C   C1099     1.0  0.42626  0.03354  0.54688  1.0000
  C   C1100     1.0  0.42828  0.03002  0.56003  1.0000
  C   C1101     1.0  0.41802  0.02642  0.57070  1.0000
  C   C1102     1.0  0.40580  0.02653  0.56829  1.0000
  H   H1103     1.0  0.41264  0.03612  0.53429  1.0000
  H   H1104     1.0  0.43415  0.03635  0.53856  1.0000
  H   H1105     1.0  0.41944  0.02363  0.58084  1.0000
  H   H1106     1.0  0.39786  0.02390  0.57665  1.0000
  C   C1103     1.0  0.32941  0.04042  0.51739  1.0000
  C   C1104     1.0  0.33173  0.02686  0.52362  1.0000
  H   H1107     1.0  0.43721  0.25327  0.96849  1.0000
  C   C1105     1.0  0.31734  0.04660  0.51344  1.0000
  H   H1108     1.0  0.34091  0.02203  0.52685  1.0000
  H   H1109     1.0  0.31542  0.05713  0.50875  1.0000
  C   C1106     1.0  0.43268  0.00102  0.55021  1.0000
  S   S378      1.0  0.25511  0.02840  0.49355  1.0000
  H   H1110     1.0  0.41275  0.03357  0.84586  1.0000
  H   H1111     1.0  0.40872  0.08177  0.97691  1.0000
  H   H1112     1.0  0.48499  0.28931  0.90010  1.0000
  S   S379      1.0  0.26590  0.04154  0.51207  1.0000
  C   C1107     1.0  0.42984  0.22859  0.88889  1.0000
  S   S380      1.0  0.28720  0.02312  0.49170  1.0000
  H   H1113     1.0  0.48312  0.13028  0.91431  1.0000
  H   H1114     1.0  0.41202  0.05320  0.85407  1.0000
  H   H1115     1.0  0.44767  0.05974  0.98049  1.0000
  N   N90       1.0  0.43530  0.20660  0.87758  1.0000
  C   C1108     1.0  0.42605  0.20725  0.88933  1.0000
  C   C1109     1.0  0.44195  0.21666  0.87143  1.0000
  C   C1110     1.0  0.42349  0.21141  0.98183  1.0000
  H   H1116     1.0  0.45935  0.23134  0.94519  1.0000
  H   H1117     1.0  0.35228  0.00252  0.51707  1.0000
  C   C1111     1.0  0.43868  0.19481  0.87180  1.0000
  H   H1118     1.0  0.42100  0.19913  0.89440  1.0000
  H   H1119     1.0  0.44957  0.21597  0.86236  1.0000
  H   H1120     1.0  0.48273  0.07537  0.85572  1.0000
  H   H1121     1.0  0.40388  0.99400  0.56778  1.0000
  H   H1122     1.0  0.44854  0.18868  0.87342  1.0000
  H   H1123     1.0  0.43140  0.18832  0.87657  1.0000
  H   H1124     1.0  0.43890  0.19781  0.86089  1.0000
  H   H1125     1.0  0.45791  0.06941  0.67094  1.0000
  C   C1112     1.0  0.44347  0.13343  0.94811  1.0000
  H   H1126     1.0  0.45776  0.26471  0.96737  1.0000
  C   C1113     1.0  0.42606  0.01150  0.65084  1.0000
  Fe  Fe191     1.0  0.42112  0.29526  0.92657  1.0000
  H   H1127     1.0  0.48706  0.05492  0.65752  1.0000
  C   C1114     1.0  0.47314  0.13493  0.91210  1.0000
  H   H1128     1.0  0.43224  0.01597  0.65393  1.0000
  C   C1115     1.0  0.36068  0.05511  0.54818  1.0000
  H   H1129     1.0  0.42760  0.22017  0.97953  1.0000
  H   H1130     1.0  0.48655  0.01866  0.85833  1.0000
  H   H1131     1.0  0.47433  0.10815  0.94121  1.0000
  C   C1116     1.0  0.47494  0.05100  0.74717  1.0000
  H   H1132     1.0  0.47284  0.14549  0.90670  1.0000
  H   H1133     1.0  0.45636  0.99468  0.66210  1.0000
  H   H1134     1.0  0.24428  0.05702  0.49631  1.0000
  H   H1135     1.0  0.45192  0.05490  0.95807  1.0000
  H   H1136     1.0  0.46787  0.23915  0.91771  1.0000
  N   N91       1.0  0.46289  0.13438  0.92452  1.0000
  H   H1137     1.0  0.45696  0.06135  0.62760  1.0000
  H   H1138     1.0  0.43651  0.23079  0.91975  1.0000
  Fe  Fe192     1.0  0.25204  0.02809  0.51523  1.0000
  C   C1117     1.0  0.25464  0.98738  0.50535  1.0000
  H   H1139     1.0  0.42206  0.26097  0.95280  1.0000
  S   S381      1.0  0.26761  0.00930  0.51904  1.0000
  C   C1118     1.0  0.41041  0.01317  0.63780  1.0000
  H   H1140     1.0  0.46458  0.18602  0.97481  1.0000
  S   S382      1.0  0.36905  0.98652  0.53555  1.0000
  C   C1119     1.0  0.32208  0.01949  0.52589  1.0000
  C   C1120     1.0  0.33874  0.05096  0.55045  1.0000
  C   C1121     1.0  0.43531  0.00756  0.85897  1.0000
  Fe  Fe193     1.0  0.27197  0.01090  0.49687  1.0000
  H   H1141     1.0  0.44090  0.99765  0.85768  1.0000
  H   H1142     1.0  0.42543  0.10890  0.97647  1.0000
  H   H1143     1.0  0.47354  0.00035  0.66938  1.0000
  H   H1144     1.0  0.44948  0.12915  0.91651  1.0000
  H   H1145     1.0  0.43597  0.13285  0.95737  1.0000
  N   N92       1.0  0.42440  0.99396  0.56002  1.0000
  C   C1122     1.0  0.40877  0.27583  0.96341  1.0000
  C   C1123     1.0  0.44612  0.25926  0.90073  1.0000
  C   C1124     1.0  0.41945  0.02779  0.85240  1.0000
  H   H1146     1.0  0.39302  0.29947  0.96674  1.0000
  S   S383      1.0  0.43639  0.29399  0.93765  1.0000
  C   C1125     1.0  0.46142  0.29910  0.98205  1.0000
  H   H1147     1.0  0.34219  0.04158  0.55755  1.0000
  H   H1148     1.0  0.47413  0.26212  0.97972  1.0000
  H   H1149     1.0  0.44483  0.23562  0.87231  1.0000
  Fe  Fe194     1.0  0.28188  0.02278  0.51368  1.0000
  C   C1126     1.0  0.48397  0.04434  0.76726  1.0000
  C   C1127     1.0  0.42986  0.02593  0.86996  1.0000
  H   H1150     1.0  0.47956  0.05981  0.74320  1.0000
  H   H1151     1.0  0.37786  0.07622  0.52402  1.0000
  H   H1152     1.0  0.41856  0.02958  0.63742  1.0000
  C   C1128     1.0  0.43713  0.01311  0.86854  1.0000
  H   H1153     1.0  0.39034  0.99490  0.49862  1.0000
  Fe  Fe195     1.0  0.26992  0.04064  0.49051  1.0000
  C   C1129     1.0  0.46148  0.21973  0.96487  1.0000
  Fe  Fe196     1.0  0.44278  0.31063  0.92111  1.0000
  H   H1154     1.0  0.42273  0.17434  0.96947  1.0000
  N   N93       1.0  0.42122  0.03312  0.86188  1.0000
  H   H1155     1.0  0.33527  0.05099  0.48509  1.0000
  H   H1156     1.0  0.41819  0.05108  0.86856  1.0000
  C   C1130     1.0  0.43733  0.26849  0.90806  1.0000
  C   C1131     1.0  0.43243  0.06545  0.95491  1.0000
  H   H1157     1.0  0.47139  0.09045  0.93223  1.0000
  H   H1158     1.0  0.45300  0.05372  0.67431  1.0000
  C   C1132     1.0  0.47237  0.24764  0.91554  1.0000
  H   H1159     1.0  0.44984  0.30050  0.96805  1.0000
  C   C1133     1.0  0.35094  0.98910  0.50605  1.0000
  C   C1134     1.0  0.48447  0.24792  0.90640  1.0000
  H   H1160     1.0  0.41602  0.21863  0.90458  1.0000
  H   H1161     1.0  0.46888  0.05380  0.67634  1.0000
  C   C1135     1.0  0.42539  0.10593  0.95719  1.0000
  H   H1162     1.0  0.40489  0.99978  0.59081  1.0000
  C   C1136     1.0  0.48138  0.06394  0.81818  1.0000
  H   H1163     1.0  0.34490  0.99674  0.49982  1.0000
  H   H1164     1.0  0.41542  0.11181  0.95707  1.0000
  S   S384      1.0  0.47038  0.17356  0.91555  1.0000
  C   C1137     1.0  0.46144  0.05882  0.67006  1.0000
  C   C1138     1.0  0.48608  0.31817  0.91414  1.0000
  C   C1139     1.0  0.47647  0.06454  0.83167  1.0000
  C   C1140     1.0  0.30771  0.03917  0.51558  1.0000
  H   H1165     1.0  0.29837  0.04399  0.51263  1.0000
  C   C1141     1.0  0.36979  0.07126  0.52954  1.0000
  C   C1142     1.0  0.31008  0.02559  0.52183  1.0000
  H   H1166     1.0  0.42794  0.23706  0.89341  1.0000
  H   H1167     1.0  0.48544  0.03106  0.59955  1.0000
  S   S385      1.0  0.40551  0.31028  0.93695  1.0000
  C   C1143     1.0  0.48092  0.09290  0.92975  1.0000
  N   N94       1.0  0.48201  0.07077  0.83760  1.0000
  C   C1144     1.0  0.41810  0.07558  0.97297  1.0000
  H   H1168     1.0  0.48409  0.28668  0.94338  1.0000
  C   C1145     1.0  0.43676  0.24126  0.91646  1.0000
  Fe  Fe197     1.0  0.42152  0.31018  0.94653  1.0000
  C   C1146     1.0  0.44376  0.09631  0.96847  1.0000
  H   H1169     1.0  0.44418  0.00755  0.87475  1.0000
  C   C1147     1.0  0.41042  0.99961  0.64318  1.0000
  S   S386      1.0  0.45677  0.23448  0.89520  1.0000
  H   H1170     1.0  0.40466  0.99494  0.63973  1.0000
  C   C1148     1.0  0.42771  0.25056  0.92358  1.0000
  Fe  Fe198     1.0  0.46345  0.18943  0.92745  1.0000
  H   H1171     1.0  0.31846  0.99457  0.51177  1.0000
  C   C1149     1.0  0.41995  0.26551  0.96130  1.0000
  S   S387      1.0  0.46488  0.30904  0.91353  1.0000
  H   H1172     1.0  0.46062  0.08390  0.95800  1.0000
  C   C1150     1.0  0.45122  0.13129  0.92512  1.0000
  H   H1173     1.0  0.45317  0.26268  0.89180  1.0000
  S   S388      1.0  0.27654  0.99369  0.48700  1.0000
  S   S389      1.0  0.46214  0.18384  0.94953  1.0000
  C   C1151     1.0  0.46366  0.05987  0.63411  1.0000
  C   C1152     1.0  0.40791  0.99257  0.59943  1.0000
  H   H1174     1.0  0.43884  0.17518  0.97046  1.0000
  H   H1175     1.0  0.38525  0.28769  0.98048  1.0000
  C   C1153     1.0  0.42847  0.26118  0.97012  1.0000
  H   H1176     1.0  0.42957  0.00704  0.54112  1.0000
  S   S390      1.0  0.46050  0.23364  0.97098  1.0000
  C   C1154     1.0  0.42808  0.20244  0.97330  1.0000
  C   C1155     1.0  0.42846  0.98617  0.57135  1.0000
  H   H1177     1.0  0.48131  0.05749  0.61851  1.0000
  H   H1178     1.0  0.46701  0.27768  0.92336  1.0000
  H   H1179     1.0  0.48013  0.05451  0.76861  1.0000
  S   S391      1.0  0.44588  0.98776  0.83324  1.0000
  N   N95       1.0  0.42339  0.19106  0.97641  1.0000
  C   C1156     1.0  0.38708  0.99017  0.49270  1.0000
  C   C1157     1.0  0.41326  0.04632  0.86386  1.0000
  N   N96       1.0  0.46130  0.28072  0.97330  1.0000
  C   C1158     1.0  0.48634  0.10031  0.97046  1.0000
  C   C1159     1.0  0.42641  0.01492  0.85085  1.0000
  S   S392      1.0  0.47675  0.20250  0.91350  1.0000
  H   H1180     1.0  0.48210  0.23340  0.98118  1.0000
  C   C1160     1.0  0.45688  0.29391  0.97391  1.0000
  H   H1181     1.0  0.48521  0.02508  0.74668  1.0000
  C   C1161     1.0  0.48262  0.10292  0.93478  1.0000
  H   H1182     1.0  0.45864  0.99335  0.56524  1.0000
  C   C1162     1.0  0.46526  0.98722  0.66375  1.0000
  S   S393      1.0  0.45031  0.09165  0.98292  1.0000
  H   H1183     1.0  0.42507  0.01070  0.84328  1.0000
  C   C1163     1.0  0.44229  0.06049  0.96231  1.0000
  Fe  Fe199     1.0  0.48196  0.18780  0.90049  1.0000
  C   C1164     1.0  0.42024  0.07301  0.96027  1.0000
  N   N97       1.0  0.41824  0.99216  0.65201  1.0000
  C   C1165     1.0  0.42601  0.99793  0.65583  1.0000
  H   H1184     1.0  0.46835  0.05982  0.83742  1.0000
  H   H1185     1.0  0.47708  0.05874  0.81364  1.0000
  N   N98       1.0  0.42785  0.07080  0.98011  1.0000
  H   H1186     1.0  0.31438  0.04604  0.48785  1.0000
  N   N99       1.0  0.48402  0.26930  0.90991  1.0000
  C   C1166     1.0  0.41434  0.27728  0.98293  1.0000
  H   H1187     1.0  0.31462  0.98813  0.52956  1.0000
  H   H1188     1.0  0.29195  0.98805  0.53311  1.0000
  C   C1167     1.0  0.44510  0.00095  0.55196  1.0000
  C   C1168     1.0  0.37925  0.99793  0.48358  1.0000
  S   S394      1.0  0.44702  0.63915  0.99734  1.0000
  S   S395      1.0  0.24545  0.44782  0.00872  1.0000
  H   H1189     1.0  0.40210  0.38611  0.99410  1.0000
  H   H1190     1.0  0.36539  0.52400  0.98625  1.0000
  S   S396      1.0  0.25624  0.50933  0.04665  1.0000
  Fe  Fe200     1.0  0.46141  0.61933  0.99821  1.0000
  S   S397      1.0  0.45237  0.61021  0.01932  1.0000
  C   C1169     1.0  0.41367  0.41353  0.02954  1.0000
  Fe  Fe201     1.0  0.43471  0.62984  0.99037  1.0000
  S   S398      1.0  0.42344  0.62197  0.01085  1.0000
  Fe  Fe202     1.0  0.26761  0.49740  0.03122  1.0000
  Fe  Fe203     1.0  0.43717  0.62962  0.01783  1.0000
  C   C1170     1.0  0.31832  0.46807  0.04603  1.0000
  Fe  Fe204     1.0  0.43958  0.60340  0.01015  1.0000
  S   S399      1.0  0.43624  0.58220  0.01631  1.0000
  H   H1191     1.0  0.28985  0.53380  0.06902  1.0000
  H   H1192     1.0  0.27527  0.55314  0.02624  1.0000
  Fe  Fe205     1.0  0.37512  0.52561  0.01156  1.0000
  S   S400      1.0  0.37379  0.53348  0.02955  1.0000
  S   S401      1.0  0.38696  0.50637  0.00560  1.0000
  Fe  Fe206     1.0  0.35502  0.54924  0.00075  1.0000
  S   S402      1.0  0.35178  0.55904  0.01761  1.0000
  C   C1171     1.0  0.29781  0.53228  0.06037  1.0000
  Fe  Fe207     1.0  0.37401  0.55344  0.01493  1.0000
  S   S403      1.0  0.38218  0.57165  0.01265  1.0000
  Fe  Fe208     1.0  0.35179  0.53848  0.03045  1.0000
  S   S404      1.0  0.33597  0.53514  0.04916  1.0000
  S   S405      1.0  0.37709  0.54503  0.99689  1.0000
  S   S406      1.0  0.35324  0.52920  0.01370  1.0000
  C   C1172     1.0  0.31844  0.52894  0.03800  1.0000
  S   S407      1.0  0.45812  0.34175  0.02405  1.0000
  H   H1193     1.0  0.41870  0.40958  0.03780  1.0000
  S   S408      1.0  0.44955  0.36630  0.99903  1.0000
  C   C1173     1.0  0.27207  0.49053  0.98739  1.0000
  Fe  Fe209     1.0  0.46770  0.35075  0.00305  1.0000
  H   H1194     1.0  0.28524  0.47888  0.05426  1.0000
  Fe  Fe210     1.0  0.43931  0.35619  0.01920  1.0000
  S   S409      1.0  0.42380  0.36924  0.03212  1.0000
  N   N100      1.0  0.30514  0.46790  0.04903  1.0000
  H   H1195     1.0  0.29110  0.45544  0.05466  1.0000
  Fe  Fe211     1.0  0.35371  0.44772  0.01999  1.0000
  S   S410      1.0  0.33522  0.45464  0.01202  1.0000
  S   S411      1.0  0.35564  0.46015  0.03291  1.0000
  Fe  Fe212     1.0  0.36344  0.42310  0.00815  1.0000
  H   H1196     1.0  0.32584  0.45942  0.04346  1.0000
  S   S412      1.0  0.37919  0.40588  0.00136  1.0000
  Fe  Fe213     1.0  0.27104  0.52228  0.03648  1.0000
  H   H1197     1.0  0.29184  0.49911  0.05475  1.0000
  Fe  Fe214     1.0  0.33377  0.43317  0.01877  1.0000
  S   S413      1.0  0.31352  0.42961  0.03014  1.0000
  S   S414      1.0  0.36725  0.44385  0.00056  1.0000
  S   S415      1.0  0.35138  0.42649  0.02836  1.0000
  Fe  Fe215     1.0  0.25323  0.42619  0.00825  1.0000
  S   S416      1.0  0.25488  0.50862  0.01653  1.0000
  S   S417      1.0  0.27512  0.41773  0.00141  1.0000
  C   C1174     1.0  0.25053  0.45004  0.03928  1.0000
  C   C1175     1.0  0.39492  0.42782  0.02066  1.0000
  C   C1176     1.0  0.30321  0.42555  0.02229  1.0000
  C   C1177     1.0  0.30803  0.42191  0.00990  1.0000
  C   C1178     1.0  0.29940  0.41917  0.00373  1.0000
  C   C1179     1.0  0.28585  0.42049  0.00971  1.0000
  C   C1180     1.0  0.28108  0.42401  0.02215  1.0000
  C   C1181     1.0  0.28980  0.42623  0.02853  1.0000
  H   H1198     1.0  0.31837  0.42125  0.00508  1.0000
  S   S418      1.0  0.46357  0.33610  0.99414  1.0000
  H   H1199     1.0  0.27070  0.42478  0.02697  1.0000
  H   H1200     1.0  0.28612  0.42858  0.03833  1.0000
  C   C1182     1.0  0.41072  0.37872  0.02416  1.0000
  C   C1183     1.0  0.39997  0.38732  0.03065  1.0000
  C   C1184     1.0  0.39000  0.39558  0.02393  1.0000
  C   C1185     1.0  0.39081  0.39524  0.01068  1.0000
  C   C1186     1.0  0.40142  0.38648  0.00432  1.0000
  C   C1187     1.0  0.41134  0.37828  0.01101  1.0000
  H   H1201     1.0  0.39940  0.38766  0.04085  1.0000
  H   H1202     1.0  0.38177  0.40224  0.02894  1.0000
  H   H1203     1.0  0.43923  0.33003  0.98909  1.0000
  H   H1204     1.0  0.41951  0.37167  0.00590  1.0000
  C   C1188     1.0  0.37881  0.49316  0.01349  1.0000
  C   C1189     1.0  0.36924  0.49371  0.02542  1.0000
  C   C1190     1.0  0.36238  0.48340  0.03139  1.0000
  C   C1191     1.0  0.36475  0.47267  0.02528  1.0000
  C   C1192     1.0  0.37424  0.47215  0.01328  1.0000
  C   C1193     1.0  0.38139  0.48231  0.00749  1.0000
  H   H1205     1.0  0.36727  0.50200  0.03017  1.0000
  H   H1206     1.0  0.35520  0.48379  0.04076  1.0000
  H   H1207     1.0  0.37620  0.46389  0.00855  1.0000
  Fe  Fe216     1.0  0.26985  0.52147  0.00880  1.0000
  C   C1194     1.0  0.32075  0.53210  0.04898  1.0000
  C   C1195     1.0  0.31043  0.53350  0.06020  1.0000
  S   S419      1.0  0.42865  0.64064  0.03450  1.0000
  H   H1208     1.0  0.31212  0.53589  0.06872  1.0000
  H   H1209     1.0  0.32635  0.52779  0.02929  1.0000
  C   C1196     1.0  0.42121  0.57919  0.01539  1.0000
  C   C1197     1.0  0.41932  0.56603  0.01896  1.0000
  C   C1198     1.0  0.40747  0.56340  0.01814  1.0000
  C   C1199     1.0  0.39736  0.57397  0.01395  1.0000
  C   C1200     1.0  0.39918  0.58709  0.01070  1.0000
  C   C1201     1.0  0.41107  0.58971  0.01128  1.0000
  H   H1210     1.0  0.42709  0.55782  0.02223  1.0000
  H   H1211     1.0  0.40613  0.55324  0.02079  1.0000
  H   H1212     1.0  0.39127  0.59531  0.00777  1.0000
  H   H1213     1.0  0.41235  0.59987  0.00853  1.0000
  C   C1202     1.0  0.25993  0.46855  0.03815  1.0000
  C   C1203     1.0  0.34896  0.48640  0.98787  1.0000
  H   H1214     1.0  0.33222  0.53625  0.99887  1.0000
  C   C1204     1.0  0.31219  0.56383  0.03071  1.0000
  C   C1205     1.0  0.26159  0.45527  0.03759  1.0000
  H   H1215     1.0  0.38875  0.48188  0.99823  1.0000
  H   H1216     1.0  0.28623  0.45089  0.99755  1.0000
  C   C1206     1.0  0.29216  0.55856  0.02866  1.0000
  C   C1207     1.0  0.30052  0.47079  0.00632  1.0000
  Fe  Fe217     1.0  0.45265  0.32809  0.01470  1.0000
  Fe  Fe218     1.0  0.44465  0.35089  0.99195  1.0000
  H   H1217     1.0  0.25185  0.43980  0.03864  1.0000
  H   H1218     1.0  0.29034  0.45505  0.01765  1.0000
  H   H1219     1.0  0.38543  0.43490  0.02188  1.0000
  S   S420      1.0  0.34558  0.42789  0.99933  1.0000
  H   H1220     1.0  0.30098  0.45650  0.03792  1.0000
  S   S421      1.0  0.43307  0.34173  0.01177  1.0000
  C   C1208     1.0  0.29532  0.52937  0.04944  1.0000
  C   C1209     1.0  0.30572  0.52742  0.03828  1.0000
  H   H1221     1.0  0.47795  0.62147  0.01686  1.0000
  C   C1210     1.0  0.31081  0.55839  0.01036  1.0000
  C   C1211     1.0  0.25960  0.39677  0.98910  1.0000
  S   S422      1.0  0.45005  0.61089  0.98908  1.0000
  S   S423      1.0  0.23882  0.41858  0.02681  1.0000
  C   C1212     1.0  0.43193  0.39991  0.01606  1.0000
  H   H1222     1.0  0.30815  0.44669  0.05194  1.0000
  H   H1223     1.0  0.30316  0.41637  0.99414  1.0000
  H   H1224     1.0  0.41674  0.41071  0.99814  1.0000
  C   C1213     1.0  0.34305  0.39780  0.98803  1.0000
  C   C1214     1.0  0.24718  0.47659  0.04066  1.0000
  H   H1225     1.0  0.24584  0.48689  0.04104  1.0000
  H   H1226     1.0  0.40965  0.62246  0.99133  1.0000
  S   S424      1.0  0.28342  0.50915  0.02244  1.0000
  H   H1227     1.0  0.27141  0.44910  0.03564  1.0000
  H   H1228     1.0  0.30385  0.52525  0.02975  1.0000
  H   H1229     1.0  0.26301  0.39151  0.99826  1.0000
  H   H1230     1.0  0.32271  0.55824  0.02913  1.0000
  S   S425      1.0  0.24051  0.42712  0.99452  1.0000
  H   H1231     1.0  0.39697  0.60859  0.98708  1.0000
  H   H1232     1.0  0.39722  0.42600  0.04058  1.0000
  C   C1215     1.0  0.28519  0.55479  0.02157  1.0000
  N   N101      1.0  0.41902  0.40931  0.01778  1.0000
  S   S426      1.0  0.27875  0.52962  0.05002  1.0000
  H   H1233     1.0  0.32084  0.55979  0.00589  1.0000
  H   H1234     1.0  0.34408  0.48866  0.00828  1.0000
  H   H1235     1.0  0.24569  0.48705  0.01185  1.0000
  H   H1236     1.0  0.33279  0.47933  0.04414  1.0000
  C   C1216     1.0  0.29124  0.55273  0.00869  1.0000
  H   H1237     1.0  0.43998  0.40543  0.01134  1.0000
  H   H1238     1.0  0.39529  0.42702  0.00055  1.0000
  N   N102      1.0  0.40401  0.59491  0.04470  1.0000
  C   C1217     1.0  0.40054  0.60817  0.04507  1.0000
  C   C1218     1.0  0.41659  0.58770  0.04539  1.0000
  C   C1219     1.0  0.40983  0.61458  0.04600  1.0000
  C   C1220     1.0  0.42616  0.59383  0.04618  1.0000
  C   C1221     1.0  0.42272  0.60734  0.04654  1.0000
  C   C1222     1.0  0.39398  0.58834  0.04411  1.0000
  H   H1239     1.0  0.39055  0.61388  0.04456  1.0000
  H   H1240     1.0  0.41945  0.57723  0.04493  1.0000
  H   H1241     1.0  0.40716  0.62514  0.04611  1.0000
  H   H1242     1.0  0.43625  0.58818  0.04622  1.0000
  H   H1243     1.0  0.43006  0.61225  0.04707  1.0000
  H   H1244     1.0  0.38807  0.59470  0.03664  1.0000
  H   H1245     1.0  0.39856  0.57869  0.04094  1.0000
  H   H1246     1.0  0.38723  0.58636  0.05410  1.0000
  C   C1223     1.0  0.31278  0.49054  0.04954  1.0000
  C   C1224     1.0  0.29570  0.47891  0.05204  1.0000
  C   C1225     1.0  0.36569  0.38612  0.98857  1.0000
  C   C1226     1.0  0.32233  0.47934  0.04633  1.0000
  H   H1247     1.0  0.31576  0.49932  0.04989  1.0000
  C   C1227     1.0  0.30117  0.45608  0.04839  1.0000
  S   S427      1.0  0.27388  0.47517  0.03513  1.0000
  C   C1228     1.0  0.29936  0.49039  0.05234  1.0000
  H   H1248     1.0  0.28747  0.55975  0.03882  1.0000
  H   H1249     1.0  0.43375  0.39339  0.02583  1.0000
  C   C1229     1.0  0.44274  0.56961  0.98563  1.0000
  H   H1250     1.0  0.27125  0.48138  0.99482  1.0000
  H   H1251     1.0  0.30194  0.47292  0.01511  1.0000
  H   H1252     1.0  0.31186  0.57472  0.02751  1.0000
  C   C1230     1.0  0.41265  0.41424  0.00738  1.0000
  C   C1231     1.0  0.40051  0.42352  0.00867  1.0000
  H   H1253     1.0  0.37422  0.38340  0.99311  1.0000
  S   S428      1.0  0.25869  0.53589  0.02201  1.0000
  C   C1232     1.0  0.40154  0.42280  0.03118  1.0000
  C   C1233     1.0  0.34908  0.49217  0.99803  1.0000
  H   H1254     1.0  0.43231  0.39304  0.00975  1.0000
  Fe  Fe219     1.0  0.24481  0.52178  0.03099  1.0000
  H   H1255     1.0  0.31105  0.43752  0.98463  1.0000
  C   C1234     1.0  0.29388  0.46082  0.00777  1.0000
  H   H1256     1.0  0.46510  0.57956  0.98757  1.0000
  S   S429      1.0  0.48309  0.61883  0.98914  1.0000
  H   H1257     1.0  0.30886  0.55324  0.99290  1.0000
  H   H1258     1.0  0.28600  0.54956  0.00319  1.0000
  Fe  Fe220     1.0  0.34850  0.44886  0.99337  1.0000
  H   H1259     1.0  0.30806  0.56126  0.04168  1.0000
  C   C1235     1.0  0.29157  0.45849  0.99647  1.0000
  H   H1260     1.0  0.31008  0.48598  0.99245  1.0000
  C   C1236     1.0  0.24677  0.39726  0.98813  1.0000
  H   H1261     1.0  0.27848  0.49899  0.99988  1.0000
  H   H1262     1.0  0.32505  0.44952  0.98943  1.0000
  N   N103      1.0  0.30491  0.56005  0.02313  1.0000
  H   H1263     1.0  0.35333  0.39773  0.00287  1.0000
  H   H1264     1.0  0.35599  0.50679  0.00287  1.0000
  H   H1265     1.0  0.32606  0.51937  0.99120  1.0000
  H   H1266     1.0  0.48156  0.36643  0.01639  1.0000
  C   C1237     1.0  0.35392  0.39421  0.99406  1.0000
  H   H1267     1.0  0.24251  0.50650  0.99385  1.0000
  C   C1238     1.0  0.30408  0.55468  0.00296  1.0000
  C   C1239     1.0  0.24152  0.48151  0.00726  1.0000
  C   C1240     1.0  0.35585  0.50244  0.99492  1.0000
  H   H1268     1.0  0.42343  0.56487  0.99104  1.0000
  H   H1269     1.0  0.24975  0.47552  0.00099  1.0000
  C   C1241     1.0  0.42929  0.57224  0.98553  1.0000
  C   C1242     1.0  0.27589  0.50065  0.99037  1.0000
  C   C1243     1.0  0.30506  0.47813  0.99351  1.0000
  C   C1244     1.0  0.23778  0.45805  0.04177  1.0000
  H   H1270     1.0  0.24027  0.39230  0.99667  1.0000
  H   H1271     1.0  0.44718  0.56015  0.99142  1.0000
  H   H1272     1.0  0.34359  0.47858  0.99006  1.0000
  S   S430      1.0  0.27761  0.52645  0.98656  1.0000
  H   H1273     1.0  0.36879  0.58516  0.99041  1.0000
  C   C1245     1.0  0.33450  0.53634  0.98831  1.0000
  H   H1274     1.0  0.33399  0.40425  0.99225  1.0000
  H   H1275     1.0  0.47418  0.65129  0.02219  1.0000
  C   C1246     1.0  0.33098  0.52682  0.98398  1.0000
  S   S431      1.0  0.34448  0.55857  0.98400  1.0000
  C   C1247     1.0  0.29606  0.46617  0.98382  1.0000
  Fe  Fe221     1.0  0.25369  0.51431  0.93141  1.0000
  S   S432      1.0  0.26821  0.49468  0.93349  1.0000
  S   S433      1.0  0.26048  0.53358  0.92371  1.0000
  Fe  Fe222     1.0  0.25441  0.48794  0.92586  1.0000
  S   S434      1.0  0.26400  0.47557  0.91040  1.0000
  H   H1276     1.0  0.46444  0.34418  0.95879  1.0000
  S   S435      1.0  0.42516  0.64099  0.97308  1.0000
  H   H1277     1.0  0.47176  0.33544  0.88974  1.0000
  C   C1248     1.0  0.47608  0.60905  0.91155  1.0000
  Fe  Fe223     1.0  0.41414  0.32578  0.92031  1.0000
  C   C1249     1.0  0.40116  0.61589  0.97896  1.0000
  S   S436      1.0  0.24404  0.40390  0.93861  1.0000
  C   C1250     1.0  0.47343  0.36327  0.96278  1.0000
  H   H1278     1.0  0.48590  0.58579  0.94402  1.0000
  C   C1251     1.0  0.39758  0.59136  0.89087  1.0000
  C   C1252     1.0  0.43387  0.33123  0.98151  1.0000
  C   C1253     1.0  0.47459  0.34091  0.96008  1.0000
  C   C1254     1.0  0.32618  0.44870  0.97927  1.0000
  H   H1279     1.0  0.24646  0.41728  0.95760  1.0000
  Fe  Fe224     1.0  0.33546  0.52374  0.91453  1.0000
  S   S437      1.0  0.33765  0.50456  0.92994  1.0000
  S   S438      1.0  0.32176  0.52924  0.90048  1.0000
  Fe  Fe225     1.0  0.35700  0.53325  0.92089  1.0000
  S   S439      1.0  0.36138  0.51445  0.93642  1.0000
  S   S440      1.0  0.36405  0.55233  0.91755  1.0000
  Fe  Fe226     1.0  0.35934  0.50370  0.92198  1.0000
  S   S441      1.0  0.37278  0.48432  0.91783  1.0000
  Fe  Fe227     1.0  0.33932  0.51703  0.94289  1.0000
  S   S442      1.0  0.32985  0.51488  0.96476  1.0000
  S   S443      1.0  0.35717  0.52223  0.90562  1.0000
  S   S444      1.0  0.33488  0.53640  0.92824  1.0000
  C   C1255     1.0  0.38885  0.57203  0.97511  1.0000
  C   C1256     1.0  0.43173  0.34338  0.97222  1.0000
  C   C1257     1.0  0.40215  0.61303  0.88958  1.0000
  H   H1280     1.0  0.25475  0.44856  0.93050  1.0000
  C   C1258     1.0  0.45491  0.62801  0.93756  1.0000
  S   S445      1.0  0.40266  0.34516  0.90945  1.0000
  H   H1281     1.0  0.26531  0.46641  0.88716  1.0000
  Fe  Fe228     1.0  0.31474  0.41894  0.91831  1.0000
  S   S446      1.0  0.33645  0.41242  0.90899  1.0000
  S   S447      1.0  0.29716  0.42335  0.90891  1.0000
  Fe  Fe229     1.0  0.32059  0.42434  0.94190  1.0000
  S   S448      1.0  0.34261  0.41864  0.93501  1.0000
  S   S449      1.0  0.31044  0.43095  0.96092  1.0000
  Fe  Fe230     1.0  0.33882  0.43017  0.91487  1.0000
  S   S450      1.0  0.35164  0.44374  0.90031  1.0000
  Fe  Fe231     1.0  0.33873  0.40128  0.92990  1.0000
  S   S451      1.0  0.35043  0.38092  0.93879  1.0000
  S   S452      1.0  0.31712  0.43750  0.92238  1.0000
  S   S453      1.0  0.31670  0.40623  0.93861  1.0000
  C   C1259     1.0  0.46483  0.32807  0.92658  1.0000
  C   C1260     1.0  0.31968  0.44056  0.96364  1.0000
  C   C1261     1.0  0.32875  0.44653  0.95311  1.0000
  C   C1262     1.0  0.33658  0.45360  0.95572  1.0000
  C   C1263     1.0  0.33552  0.45435  0.96888  1.0000
  C   C1264     1.0  0.48311  0.59233  0.93500  1.0000
  H   H1282     1.0  0.36377  0.43939  0.96026  1.0000
  H   H1283     1.0  0.32978  0.44561  0.94301  1.0000
  H   H1284     1.0  0.34380  0.45797  0.94768  1.0000
  H   H1285     1.0  0.29965  0.49251  0.96669  1.0000
  C   C1265     1.0  0.26314  0.41088  0.96693  1.0000
  C   C1266     1.0  0.36510  0.37134  0.93041  1.0000
  C   C1267     1.0  0.37048  0.37534  0.91674  1.0000
  C   C1268     1.0  0.38201  0.36724  0.91047  1.0000
  C   C1269     1.0  0.38829  0.35513  0.91779  1.0000
  C   C1270     1.0  0.38303  0.35124  0.93151  1.0000
  C   C1271     1.0  0.37148  0.35930  0.93776  1.0000
  H   H1286     1.0  0.36567  0.38456  0.91095  1.0000
  H   H1287     1.0  0.38598  0.37032  0.89985  1.0000
  H   H1288     1.0  0.38776  0.34195  0.93727  1.0000
  H   H1289     1.0  0.36738  0.35609  0.94832  1.0000
  H   H1290     1.0  0.24265  0.42332  0.88699  1.0000
  H   H1291     1.0  0.35637  0.58547  0.98212  1.0000
  H   H1292     1.0  0.26842  0.38678  0.91251  1.0000
  H   H1293     1.0  0.40020  0.61531  0.89961  1.0000
  C   C1272     1.0  0.42029  0.33404  0.96174  1.0000
  H   H1294     1.0  0.40802  0.55909  0.96985  1.0000
  C   C1273     1.0  0.43430  0.63790  0.91071  1.0000
  Fe  Fe232     1.0  0.42560  0.60506  0.91692  1.0000
  C   C1274     1.0  0.41269  0.63426  0.95775  1.0000
  H   H1295     1.0  0.39306  0.61738  0.88550  1.0000
  C   C1275     1.0  0.36548  0.47466  0.91225  1.0000
  C   C1276     1.0  0.35372  0.47071  0.91979  1.0000
  C   C1277     1.0  0.34932  0.46112  0.91636  1.0000
  C   C1278     1.0  0.35650  0.45579  0.90515  1.0000
  C   C1279     1.0  0.36785  0.46027  0.89730  1.0000
  C   C1280     1.0  0.37247  0.46945  0.90097  1.0000
  H   H1296     1.0  0.34830  0.47472  0.92852  1.0000
  H   H1297     1.0  0.34039  0.45789  0.92230  1.0000
  H   H1298     1.0  0.37335  0.45634  0.88852  1.0000
  H   H1299     1.0  0.38157  0.47241  0.89512  1.0000
  C   C1281     1.0  0.33395  0.52686  0.97032  1.0000
  C   C1282     1.0  0.34038  0.53647  0.96105  1.0000
  C   C1283     1.0  0.34340  0.54629  0.96530  1.0000
  C   C1284     1.0  0.42933  0.32045  0.98084  1.0000
  C   C1285     1.0  0.40568  0.62625  0.95536  1.0000
  H   H1300     1.0  0.25905  0.55549  0.94745  1.0000
  H   H1301     1.0  0.34302  0.53646  0.95054  1.0000
  H   H1302     1.0  0.34816  0.55382  0.95800  1.0000
  C   C1286     1.0  0.43478  0.65036  0.91249  1.0000
  C   C1287     1.0  0.25735  0.44730  0.96191  1.0000
  S   S454      1.0  0.42903  0.32689  0.93084  1.0000
  C   C1288     1.0  0.39200  0.56700  0.92406  1.0000
  C   C1289     1.0  0.38014  0.56565  0.92200  1.0000
  C   C1290     1.0  0.37869  0.55321  0.92131  1.0000
  C   C1291     1.0  0.38913  0.54205  0.92292  1.0000
  H   H1303     1.0  0.46263  0.36388  0.96674  1.0000
  H   H1304     1.0  0.39304  0.57665  0.92442  1.0000
  H   H1305     1.0  0.37208  0.57432  0.92079  1.0000
  H   H1306     1.0  0.38814  0.53244  0.92233  1.0000
  H   H1307     1.0  0.24962  0.40407  0.90525  1.0000
  S   S455      1.0  0.42433  0.57682  0.94868  1.0000
  S   S456      1.0  0.39532  0.60405  0.96243  1.0000
  C   C1292     1.0  0.24614  0.46240  0.88957  1.0000
  H   H1308     1.0  0.41005  0.61814  0.88281  1.0000
  C   C1293     1.0  0.25927  0.44750  0.93876  1.0000
  S   S457      1.0  0.26397  0.47986  0.97140  1.0000
  H   H1309     1.0  0.36647  0.46742  0.94632  1.0000
  C   C1294     1.0  0.47103  0.59271  0.93220  1.0000
  C   C1295     1.0  0.28311  0.39769  0.89975  1.0000
  C   C1296     1.0  0.27436  0.41916  0.88666  1.0000
  C   C1297     1.0  0.48435  0.33645  0.92437  1.0000
  C   C1298     1.0  0.27851  0.54879  0.95200  1.0000
  H   H1310     1.0  0.38745  0.59629  0.89014  1.0000
  C   C1299     1.0  0.46213  0.34144  0.89342  1.0000
  H   H1311     1.0  0.37555  0.37537  0.97286  1.0000
  C   C1300     1.0  0.40145  0.57748  0.89224  1.0000
  H   H1312     1.0  0.31075  0.54226  0.95201  1.0000
  C   C1301     1.0  0.40028  0.61675  0.96590  1.0000
  H   H1313     1.0  0.29689  0.54188  0.96602  1.0000
  H   H1314     1.0  0.24070  0.44960  0.95332  1.0000
  H   H1315     1.0  0.44005  0.62876  0.91561  1.0000
  C   C1302     1.0  0.25847  0.41036  0.93171  1.0000
  C   C1303     1.0  0.25829  0.42248  0.92227  1.0000
  C   C1304     1.0  0.27017  0.42670  0.91578  1.0000
  C   C1305     1.0  0.28225  0.41902  0.91891  1.0000
  C   C1306     1.0  0.28232  0.40732  0.92896  1.0000
  C   C1307     1.0  0.27046  0.40294  0.93525  1.0000
  H   H1316     1.0  0.24909  0.42836  0.91958  1.0000
  H   H1317     1.0  0.27002  0.43583  0.90808  1.0000
  H   H1318     1.0  0.29161  0.40127  0.93137  1.0000
  H   H1319     1.0  0.27066  0.39358  0.94259  1.0000
  C   C1308     1.0  0.27763  0.53093  0.91722  1.0000
  C   C1309     1.0  0.28232  0.53753  0.90414  1.0000
  C   C1310     1.0  0.29593  0.53655  0.89905  1.0000
  C   C1311     1.0  0.30492  0.52937  0.90716  1.0000
  C   C1312     1.0  0.30032  0.52264  0.92028  1.0000
  C   C1313     1.0  0.28664  0.52329  0.92526  1.0000
  H   H1320     1.0  0.27539  0.54347  0.89793  1.0000
  H   H1321     1.0  0.29947  0.54170  0.88889  1.0000
  H   H1322     1.0  0.30725  0.51705  0.92658  1.0000
  H   H1323     1.0  0.28301  0.51831  0.93546  1.0000
  H   H1324     1.0  0.46467  0.34437  0.93482  1.0000
  H   H1325     1.0  0.44460  0.63367  0.94074  1.0000
  H   H1326     1.0  0.28457  0.45094  0.96715  1.0000
  H   H1327     1.0  0.42482  0.37275  0.91186  1.0000
  C   C1314     1.0  0.27458  0.55729  0.92964  1.0000
  H   H1328     1.0  0.33311  0.39095  0.96388  1.0000
  C   C1315     1.0  0.44865  0.35856  0.90526  1.0000
  H   H1329     1.0  0.47009  0.35332  0.90121  1.0000
  H   H1330     1.0  0.41753  0.36611  0.90267  1.0000
  H   H1331     1.0  0.26947  0.44893  0.97907  1.0000
  H   H1332     1.0  0.36194  0.57461  0.96372  1.0000
  H   H1333     1.0  0.47899  0.63212  0.92392  1.0000
  S   S458      1.0  0.40729  0.59670  0.92631  1.0000
  H   H1334     1.0  0.27605  0.42856  0.87999  1.0000
  C   C1316     1.0  0.40848  0.62363  0.98132  1.0000
  H   H1335     1.0  0.31664  0.48690  0.96863  1.0000
  C   C1317     1.0  0.42668  0.63734  0.90219  1.0000
  H   H1336     1.0  0.41985  0.35700  0.91913  1.0000
  C   C1318     1.0  0.39793  0.56247  0.96845  1.0000
  C   C1319     1.0  0.35579  0.49073  0.97483  1.0000
  H   H1337     1.0  0.27459  0.54622  0.96272  1.0000
  C   C1320     1.0  0.40262  0.55594  0.92516  1.0000
  H   H1338     1.0  0.25116  0.44814  0.97170  1.0000
  H   H1339     1.0  0.35607  0.38190  0.96262  1.0000
  C   C1321     1.0  0.37205  0.57124  0.96511  1.0000
  H   H1340     1.0  0.47330  0.61545  0.90247  1.0000
  H   H1341     1.0  0.24875  0.45914  0.88026  1.0000
  C   C1322     1.0  0.27595  0.51297  0.98131  1.0000
  C   C1323     1.0  0.25140  0.44803  0.95154  1.0000
  C   C1324     1.0  0.25962  0.40551  0.90076  1.0000
  C   C1325     1.0  0.43827  0.34619  0.89753  1.0000
  C   C1326     1.0  0.25019  0.41132  0.96638  1.0000
  N   N104      1.0  0.37605  0.57614  0.97353  1.0000
  H   H1342     1.0  0.46868  0.56527  0.98012  1.0000
  C   C1327     1.0  0.26965  0.55414  0.94344  1.0000
  H   H1343     1.0  0.26783  0.56098  0.92285  1.0000
  Fe  Fe233     1.0  0.42141  0.57668  0.92867  1.0000
  H   H1344     1.0  0.42296  0.35431  0.95536  1.0000
  C   C1328     1.0  0.38086  0.56169  0.95828  1.0000
  H   H1345     1.0  0.45538  0.61719  0.94187  1.0000
  N   N105      1.0  0.48058  0.34947  0.96244  1.0000
  H   H1346     1.0  0.29219  0.55717  0.91382  1.0000
  H   H1347     1.0  0.29513  0.41140  0.88692  1.0000
  C   C1329     1.0  0.41899  0.59219  0.89213  1.0000
  H   H1348     1.0  0.44802  0.36601  0.91067  1.0000
  C   C1330     1.0  0.25212  0.47082  0.90548  1.0000
  C   C1331     1.0  0.27859  0.44506  0.94722  1.0000
  S   S459      1.0  0.24218  0.48089  0.94618  1.0000
  H   H1349     1.0  0.47681  0.36728  0.96951  1.0000
  Fe  Fe234     1.0  0.25487  0.48945  0.95351  1.0000
  S   S460      1.0  0.41814  0.55746  0.92636  1.0000
  H   H1350     1.0  0.29396  0.46456  0.97510  1.0000
  C   C1332     1.0  0.47073  0.33695  0.92920  1.0000
  C   C1333     1.0  0.45062  0.33871  0.89229  1.0000
  C   C1334     1.0  0.27296  0.44594  0.93657  1.0000
  C   C1335     1.0  0.27006  0.50436  0.96552  1.0000
  C   C1336     1.0  0.42288  0.32176  0.97072  1.0000
  S   S461      1.0  0.24091  0.50821  0.92180  1.0000
  C   C1337     1.0  0.36731  0.42888  0.94470  1.0000
  S   S462      1.0  0.42638  0.62212  0.89893  1.0000
  N   N106      1.0  0.29191  0.54631  0.94693  1.0000
  C   C1338     1.0  0.46118  0.35145  0.89990  1.0000
  H   H1351     1.0  0.45818  0.60156  0.91827  1.0000
  N   N107      1.0  0.24225  0.40445  0.97684  1.0000
  H   H1352     1.0  0.48040  0.63651  0.88729  1.0000
  C   C1339     1.0  0.25549  0.46649  0.89348  1.0000
  H   H1353     1.0  0.42652  0.60364  0.96607  1.0000
  C   C1340     1.0  0.31825  0.44187  0.97661  1.0000
  H   H1354     1.0  0.27913  0.44563  0.92661  1.0000
  H   H1355     1.0  0.25330  0.43472  0.87865  1.0000
  C   C1341     1.0  0.40108  0.54345  0.92474  1.0000
  S   S463      1.0  0.43949  0.58494  0.91718  1.0000
  C   C1342     1.0  0.37317  0.42847  0.93132  1.0000
  C   C1343     1.0  0.33245  0.39753  0.97061  1.0000
  H   H1356     1.0  0.41717  0.64133  0.94949  1.0000
  H   H1357     1.0  0.47502  0.36959  0.95249  1.0000
  H   H1358     1.0  0.40481  0.62713  0.94526  1.0000
  C   C1344     1.0  0.42334  0.58461  0.97863  1.0000
  Fe  Fe235     1.0  0.41136  0.59737  0.94553  1.0000
  H   H1359     1.0  0.26797  0.50584  0.95582  1.0000
  Fe  Fe236     1.0  0.44111  0.58680  0.93707  1.0000
  H   H1360     1.0  0.41470  0.33526  0.95435  1.0000
  C   C1345     1.0  0.27339  0.51469  0.96871  1.0000
  C   C1346     1.0  0.44437  0.59104  0.97181  1.0000
  C   C1347     1.0  0.42482  0.34485  0.96241  1.0000
  C   C1348     1.0  0.25042  0.42759  0.88821  1.0000
  N   N108      1.0  0.37557  0.44836  0.94207  1.0000
  C   C1349     1.0  0.38153  0.44789  0.92901  1.0000
  C   C1350     1.0  0.38042  0.43796  0.92344  1.0000
  C   C1351     1.0  0.37567  0.45958  0.94735  1.0000
  H   H1361     1.0  0.38682  0.45550  0.92268  1.0000
  H   H1362     1.0  0.38475  0.43792  0.91295  1.0000
  H   H1363     1.0  0.38427  0.46417  0.94177  1.0000
  H   H1364     1.0  0.37610  0.45634  0.95811  1.0000
  N   N109      1.0  0.46428  0.63243  0.94212  1.0000
  H   H1365     1.0  0.29141  0.39039  0.90326  1.0000
  C   C1352     1.0  0.46106  0.63452  0.95482  1.0000
  C   C1353     1.0  0.46749  0.60116  0.92050  1.0000
  S   S464      1.0  0.34675  0.46085  0.97280  1.0000
  H   H1366     1.0  0.36791  0.50421  0.96200  1.0000
  N   N110      1.0  0.26178  0.41704  0.89169  1.0000
  C   C1354     1.0  0.46415  0.57612  0.97903  1.0000
  N   N111      1.0  0.27075  0.44595  0.95964  1.0000
  C   C1355     1.0  0.28824  0.55506  0.92456  1.0000
  H   H1367     1.0  0.33198  0.40791  0.96460  1.0000
  N   N112      1.0  0.43741  0.35602  0.90385  1.0000
  C   C1356     1.0  0.26912  0.49238  0.97497  1.0000
  C   C1357     1.0  0.42313  0.57830  0.89373  1.0000
  H   H1368     1.0  0.47682  0.32126  0.95688  1.0000
  H   H1369     1.0  0.39204  0.57612  0.98162  1.0000
  C   C1358     1.0  0.30098  0.53943  0.95597  1.0000
  C   C1359     1.0  0.39390  0.55733  0.95994  1.0000
  H   H1370     1.0  0.41726  0.56011  0.89541  1.0000
  C   C1360     1.0  0.41430  0.57094  0.89373  1.0000
  H   H1371     1.0  0.30737  0.54708  0.92926  1.0000
  H   H1372     1.0  0.42587  0.59785  0.89228  1.0000
  C   C1361     1.0  0.30757  0.48357  0.96912  1.0000
  C   C1362     1.0  0.23939  0.47103  0.91359  1.0000
  H   H1373     1.0  0.40926  0.53485  0.92559  1.0000
  H   H1374     1.0  0.45435  0.32867  0.93028  1.0000
  H   H1375     1.0  0.37194  0.42096  0.92698  1.0000
  H   H1376     1.0  0.37760  0.55775  0.95171  1.0000
  C   C1363     1.0  0.36863  0.43895  0.94994  1.0000
  H   H1377     1.0  0.42936  0.34394  0.89666  1.0000
  H   H1378     1.0  0.46987  0.58129  0.96952  1.0000
  H   H1379     1.0  0.36152  0.42165  0.95090  1.0000
  H   H1380     1.0  0.44081  0.65088  0.91881  1.0000
  C   C1364     1.0  0.42431  0.36336  0.90968  1.0000
  H   H1381     1.0  0.36879  0.52399  0.96889  1.0000
  N   N113      1.0  0.40638  0.59854  0.89066  1.0000
  N   N114      1.0  0.31848  0.48752  0.90019  1.0000
  C   C1365     1.0  0.32280  0.47511  0.89727  1.0000
  C   C1366     1.0  0.30520  0.49318  0.90299  1.0000
  C   C1367     1.0  0.31373  0.46791  0.89739  1.0000
  C   C1368     1.0  0.29586  0.48625  0.90319  1.0000
  C   C1369     1.0  0.30017  0.47351  0.90044  1.0000
  C   C1370     1.0  0.32803  0.49507  0.89993  1.0000
  H   H1382     1.0  0.33332  0.47068  0.89481  1.0000
  H   H1383     1.0  0.30177  0.50313  0.90505  1.0000
  H   H1384     1.0  0.31722  0.45804  0.89514  1.0000
  H   H1385     1.0  0.28532  0.49074  0.90541  1.0000
  H   H1386     1.0  0.29299  0.46804  0.90060  1.0000
  H   H1387     1.0  0.32821  0.50362  0.89110  1.0000
  H   H1388     1.0  0.32522  0.49911  0.90912  1.0000
  H   H1389     1.0  0.33825  0.48879  0.89943  1.0000
  H   H1390     1.0  0.28149  0.43439  0.97451  1.0000
  H   H1391     1.0  0.45126  0.33063  0.88767  1.0000
  C   C1371     1.0  0.28522  0.40947  0.89052  1.0000
  H   H1392     1.0  0.41286  0.58689  0.97874  1.0000
  H   H1393     1.0  0.39440  0.57174  0.89268  1.0000
  H   H1394     1.0  0.24606  0.43330  0.89625  1.0000
  S   S465      1.0  0.42844  0.60740  0.93598  1.0000
  H   H1395     1.0  0.30259  0.52843  0.95735  1.0000
  S   S466      1.0  0.46032  0.58282  0.94351  1.0000
  H   H1396     1.0  0.40090  0.55004  0.95458  1.0000
  C   C1372     1.0  0.29681  0.54934  0.93338  1.0000
  H   H1397     1.0  0.27343  0.52409  0.96157  1.0000
  C   C1373     1.0  0.27024  0.39566  0.90492  1.0000
  H   H1398     1.0  0.43299  0.57322  0.89534  1.0000
  H   H1399     1.0  0.26943  0.41625  0.95856  1.0000
  C   C1374     1.0  0.36257  0.50092  0.97212  1.0000
  H   H1400     1.0  0.45835  0.64073  0.88211  1.0000
  C   C1375     1.0  0.47421  0.64654  0.88631  1.0000
  C   C1376     1.0  0.27684  0.44498  0.97066  1.0000
  C   C1377     1.0  0.46995  0.63828  0.95964  1.0000
  C   C1378     1.0  0.43094  0.59406  0.97165  1.0000
  N   N115      1.0  0.30300  0.47560  0.98245  1.0000
  S   S467      1.0  0.24132  0.50972  0.95206  1.0000
  H   H1401     1.0  0.27768  0.40356  0.97921  1.0000
  C   C1379     1.0  0.41451  0.63259  0.97066  1.0000
  C   C1380     1.0  0.48222  0.63988  0.95138  1.0000
  H   H1402     1.0  0.28924  0.44384  0.94548  1.0000
  H   H1403     1.0  0.38012  0.51299  0.97922  1.0000
  C   C1381     1.0  0.47635  0.63387  0.93396  1.0000
  H   H1404     1.0  0.45719  0.62963  0.92648  1.0000
  H   H1405     1.0  0.45155  0.63335  0.96130  1.0000
  C   C1382     1.0  0.41954  0.64922  0.89559  1.0000
  H   H1406     1.0  0.45023  0.59838  0.96621  1.0000
  H   H1407     1.0  0.35560  0.48640  0.96683  1.0000
  H   H1408     1.0  0.36794  0.59644  0.97435  1.0000
  C   C1383     1.0  0.26782  0.40363  0.97842  1.0000
  C   C1384     1.0  0.36953  0.51746  0.97893  1.0000
  C   C1385     1.0  0.34052  0.54623  0.97892  1.0000
  S   S468      1.0  0.43783  0.35664  0.97280  1.0000
  H   H1409     1.0  0.31019  0.47761  0.96134  1.0000
  C   C1386     1.0  0.46182  0.64886  0.88327  1.0000
  N   N116      1.0  0.45013  0.57890  0.97865  1.0000
  N   N117      1.0  0.36230  0.50682  0.98205  1.0000
  C   C1387     1.0  0.36679  0.58633  0.98041  1.0000
  C   C1388     1.0  0.35536  0.38539  0.97148  1.0000
  C   C1389     1.0  0.36644  0.38166  0.97721  1.0000
  N   N118      1.0  0.34383  0.39327  0.97697  1.0000
  H   H1410     1.0  0.32301  0.39728  0.97826  1.0000
  H   H1411     1.0  0.46726  0.64000  0.96970  1.0000
  C   C1390     1.0  0.48151  0.32789  0.95907  1.0000
  H   H1412     1.0  0.41369  0.64892  0.88896  1.0000
  C   C1391     1.0  0.48547  0.63770  0.93844  1.0000
  H   H1413     1.0  0.47868  0.65249  0.97702  1.0000
  C   C1392     1.0  0.39677  0.97799  0.25057  1.0000
  Fe  Fe237     1.0  0.46077  0.83383  0.99579  1.0000
  S   S469      1.0  0.43971  0.83801  0.00742  1.0000
  H   H1414     1.0  0.47272  0.76726  0.01464  1.0000
  Fe  Fe238     1.0  0.47180  0.82417  0.02100  1.0000
  S   S470      1.0  0.45177  0.82677  0.03463  1.0000
  C   C1393     1.0  0.24382  0.91748  0.46369  1.0000
  Fe  Fe239     1.0  0.44629  0.81803  0.02065  1.0000
  S   S471      1.0  0.43507  0.80162  0.02929  1.0000
  Fe  Fe240     1.0  0.44748  0.84642  0.02023  1.0000
  S   S472      1.0  0.43892  0.86620  0.02679  1.0000
  S   S473      1.0  0.46694  0.81343  0.00834  1.0000
  S   S474      1.0  0.46792  0.84414  0.00715  1.0000
  Fe  Fe241     1.0  0.44632  0.88899  0.08992  1.0000
  S   S475      1.0  0.46427  0.89792  0.08087  1.0000
  S   S476      1.0  0.44365  0.87166  0.08314  1.0000
  Fe  Fe242     1.0  0.43816  0.90260  0.11372  1.0000
  S   S477      1.0  0.45551  0.91229  0.10648  1.0000
  S   S478      1.0  0.42359  0.90688  0.13278  1.0000
  Fe  Fe243     1.0  0.45094  0.91691  0.08632  1.0000
  S   S479      1.0  0.45394  0.93725  0.07400  1.0000
  Fe  Fe244     1.0  0.46730  0.89270  0.10180  1.0000
  C   C1394     1.0  0.47930  0.87371  0.01061  1.0000
  S   S480      1.0  0.43252  0.90854  0.09368  1.0000
  S   S481      1.0  0.45041  0.88244  0.11073  1.0000
  Fe  Fe245     1.0  0.43959  0.92610  0.19029  1.0000
  S   S482      1.0  0.44276  0.94658  0.18796  1.0000
  S   S483      1.0  0.45109  0.91406  0.17481  1.0000
  Fe  Fe246     1.0  0.42235  0.92548  0.21825  1.0000
  S   S484      1.0  0.42385  0.94572  0.21851  1.0000
  S   S485      1.0  0.41013  0.91366  0.23561  1.0000
  Fe  Fe247     1.0  0.42112  0.95137  0.19741  1.0000
  S   S486      1.0  0.40820  0.97140  0.19123  1.0000
  C   C1395     1.0  0.34774  0.98495  0.40387  1.0000
  S   S487      1.0  0.41756  0.93152  0.19786  1.0000
  S   S488      1.0  0.44411  0.91832  0.21077  1.0000
  C   C1396     1.0  0.27701  0.97038  0.43624  1.0000
  H   H1415     1.0  0.35591  0.90929  0.37969  1.0000
  C   C1397     1.0  0.47699  0.75984  0.05398  1.0000
  C   C1398     1.0  0.39983  0.90152  0.21396  1.0000
  H   H1416     1.0  0.39439  0.90533  0.35326  1.0000
  H   H1417     1.0  0.38857  0.91035  0.32574  1.0000
  C   C1399     1.0  0.43577  0.88692  0.18814  1.0000
  C   C1400     1.0  0.35560  0.89507  0.47288  1.0000
  H   H1418     1.0  0.45425  0.97797  0.27492  1.0000
  C   C1401     1.0  0.36211  0.91084  0.36965  1.0000
  H   H1419     1.0  0.24991  0.94747  0.47315  1.0000
  H   H1420     1.0  0.34584  0.92227  0.36035  1.0000
  Fe  Fe248     1.0  0.30920  0.93372  0.41584  1.0000
  S   S489      1.0  0.32925  0.92208  0.40731  1.0000
  S   S490      1.0  0.29070  0.92570  0.42057  1.0000
  Fe  Fe249     1.0  0.32107  0.95381  0.42100  1.0000
  S   S491      1.0  0.34212  0.94418  0.41284  1.0000
  S   S492      1.0  0.31463  0.97199  0.42965  1.0000
  Fe  Fe250     1.0  0.33409  0.94200  0.39648  1.0000
  S   S493      1.0  0.34372  0.94713  0.37435  1.0000
  Fe  Fe251     1.0  0.33564  0.92519  0.42434  1.0000
  S   S494      1.0  0.31335  0.95351  0.40364  1.0000
  S   S495      1.0  0.31530  0.93502  0.43382  1.0000
  S   S496      1.0  0.39850  0.92688  0.29271  1.0000
  H   H1421     1.0  0.24629  0.92854  0.41527  1.0000
  C   C1402     1.0  0.48345  0.77848  0.98403  1.0000
  Fe  Fe252     1.0  0.41378  0.93735  0.32681  1.0000
  S   S497      1.0  0.40547  0.93160  0.34923  1.0000
  S   S498      1.0  0.40061  0.94984  0.31287  1.0000
  H   H1422     1.0  0.41438  0.65451  0.99510  1.0000
  H   H1423     1.0  0.23789  0.96055  0.42702  1.0000
  S   S499      1.0  0.42411  0.92195  0.31431  1.0000
  Fe  Fe253     1.0  0.45399  0.73862  0.00060  1.0000
  H   H1424     1.0  0.46978  0.65305  0.00083  1.0000
  C   C1403     1.0  0.35110  0.97092  0.38849  1.0000
  Fe  Fe254     1.0  0.44712  0.71150  0.01456  1.0000
  S   S500      1.0  0.46824  0.70082  0.01470  1.0000
  S   S501      1.0  0.42967  0.70172  0.02323  1.0000
  Fe  Fe255     1.0  0.46973  0.71909  0.02015  1.0000
  H   H1425     1.0  0.46393  0.94940  0.15278  1.0000
  Fe  Fe256     1.0  0.47221  0.71268  0.99359  1.0000
  H   H1426     1.0  0.48300  0.92613  0.06868  1.0000
  S   S502      1.0  0.44814  0.72873  0.02223  1.0000
  S   S503      1.0  0.45096  0.72231  0.99295  1.0000
  H   H1427     1.0  0.41395  0.66143  0.04792  1.0000
  H   H1428     1.0  0.32632  0.97218  0.47452  1.0000
  H   H1429     1.0  0.47057  0.86275  0.04025  1.0000
  H   H1430     1.0  0.44983  0.68013  0.98640  1.0000
  H   H1431     1.0  0.44534  0.88803  0.20292  1.0000
  C   C1404     1.0  0.48601  0.93448  0.32185  1.0000
  C   C1405     1.0  0.43042  0.65720  0.03162  1.0000
  H   H1432     1.0  0.46286  0.94768  0.26557  1.0000
  H   H1433     1.0  0.38996  0.94831  0.26781  1.0000
  C   C1406     1.0  0.42400  0.89410  0.20867  1.0000
  S   S504      1.0  0.46001  0.94343  0.21780  1.0000
  H   H1434     1.0  0.48359  0.93649  0.11198  1.0000
  C   C1407     1.0  0.44077  0.67597  0.01908  1.0000
  C   C1408     1.0  0.43138  0.68425  0.02709  1.0000
  C   C1409     1.0  0.42183  0.67887  0.03750  1.0000
  C   C1410     1.0  0.30925  0.98202  0.46574  1.0000
  C   C1411     1.0  0.45500  0.95479  0.26117  1.0000
  H   H1435     1.0  0.44809  0.68009  0.01094  1.0000
  H   H1436     1.0  0.41450  0.68521  0.04366  1.0000
  C   C1412     1.0  0.43527  0.97309  0.24940  1.0000
  H   H1437     1.0  0.41244  0.97320  0.32425  1.0000
  C   C1413     1.0  0.48080  0.89945  0.12394  1.0000
  H   H1438     1.0  0.40264  0.89629  0.19003  1.0000
  H   H1439     1.0  0.23768  0.96229  0.46887  1.0000
  C   C1414     1.0  0.46614  0.78090  0.04199  1.0000
  N   N119      1.0  0.37808  0.91604  0.34411  1.0000
  H   H1440     1.0  0.32543  0.89830  0.45046  1.0000
  H   H1441     1.0  0.28350  0.91333  0.45390  1.0000
  H   H1442     1.0  0.46726  0.74495  0.02228  1.0000
  S   S505      1.0  0.34819  0.90783  0.43585  1.0000
  C   C1415     1.0  0.41194  0.89414  0.19310  1.0000
  H   H1443     1.0  0.45968  0.96033  0.28121  1.0000
  N   N120      1.0  0.30200  0.90792  0.47673  1.0000
  N   N121      1.0  0.46446  0.93946  0.12513  1.0000
  H   H1444     1.0  0.38035  0.90061  0.37606  1.0000
  H   H1445     1.0  0.47534  0.84871  0.07033  1.0000
  C   C1416     1.0  0.35060  0.90631  0.47851  1.0000
  C   C1417     1.0  0.46572  0.93042  0.31945  1.0000
  H   H1446     1.0  0.48116  0.91917  0.08640  1.0000
  H   H1447     1.0  0.42399  0.97600  0.34000  1.0000
  S   S506      1.0  0.41568  0.98247  0.29576  1.0000
  C   C1418     1.0  0.36106  0.94376  0.36794  1.0000
  C   C1419     1.0  0.36588  0.94819  0.35417  1.0000
  C   C1420     1.0  0.37950  0.94495  0.34843  1.0000
  C   C1421     1.0  0.38848  0.93721  0.35639  1.0000
  C   C1422     1.0  0.38371  0.93317  0.37027  1.0000
  C   C1423     1.0  0.37004  0.93643  0.37605  1.0000
  H   H1448     1.0  0.35901  0.95396  0.34785  1.0000
  H   H1449     1.0  0.38296  0.94827  0.33781  1.0000
  H   H1450     1.0  0.39057  0.92720  0.37653  1.0000
  H   H1451     1.0  0.36645  0.93298  0.38669  1.0000
  H   H1452     1.0  0.48530  0.94000  0.28894  1.0000
  C   C1424     1.0  0.44243  0.96207  0.24391  1.0000
  Fe  Fe257     1.0  0.41716  0.96041  0.30278  1.0000
  H   H1453     1.0  0.44985  0.96921  0.30562  1.0000
  C   C1425     1.0  0.34971  0.96850  0.43889  1.0000
  C   C1426     1.0  0.33907  0.96522  0.43623  1.0000
  H   H1454     1.0  0.46991  0.94648  0.10418  1.0000
  C   C1427     1.0  0.46443  0.95687  0.34490  1.0000
  H   H1455     1.0  0.35879  0.96106  0.43978  1.0000
  H   H1456     1.0  0.33988  0.95517  0.43539  1.0000
  H   H1457     1.0  0.42424  0.89611  0.21802  1.0000
  H   H1458     1.0  0.47087  0.89837  0.12524  1.0000
  C   C1428     1.0  0.43823  0.97477  0.26072  1.0000
  H   H1459     1.0  0.47712  0.79636  0.03520  1.0000
  C   C1429     1.0  0.31572  0.90202  0.45626  1.0000
  H   H1460     1.0  0.39613  0.92041  0.33122  1.0000
  H   H1461     1.0  0.39223  0.95633  0.28646  1.0000
  C   C1430     1.0  0.24443  0.91870  0.45017  1.0000
  C   C1431     1.0  0.32753  0.97503  0.43454  1.0000
  H   H1462     1.0  0.28126  0.91474  0.47731  1.0000
  C   C1432     1.0  0.25257  0.94691  0.40532  1.0000
  C   C1433     1.0  0.26303  0.95353  0.40194  1.0000
  C   C1434     1.0  0.27489  0.94717  0.40638  1.0000
  C   C1435     1.0  0.27642  0.93404  0.41403  1.0000
  C   C1436     1.0  0.26611  0.92735  0.41701  1.0000
  C   C1437     1.0  0.25417  0.93380  0.41285  1.0000
  H   H1463     1.0  0.26193  0.96361  0.39592  1.0000
  H   H1464     1.0  0.28284  0.95237  0.40385  1.0000
  H   H1465     1.0  0.26735  0.91710  0.42264  1.0000
  S   S507      1.0  0.44848  0.76074  0.99152  1.0000
  H   H1466     1.0  0.42971  0.97053  0.20253  1.0000
  C   C1438     1.0  0.45770  0.96854  0.31043  1.0000
  C   C1439     1.0  0.45202  0.93702  0.12852  1.0000
  S   S508      1.0  0.25625  0.92128  0.46855  1.0000
  H   H1467     1.0  0.38255  0.96278  0.24149  1.0000
  H   H1468     1.0  0.45792  0.76335  0.04924  1.0000
  C   C1440     1.0  0.35477  0.89580  0.45982  1.0000
  H   H1469     1.0  0.36036  0.88574  0.47858  1.0000
  H   H1470     1.0  0.48714  0.97728  0.30430  1.0000
  S   S509      1.0  0.42672  0.94721  0.28816  1.0000
  C   C1441     1.0  0.47298  0.93772  0.11207  1.0000
  N   N122      1.0  0.41980  0.68928  0.99327  1.0000
  N   N123      1.0  0.25627  0.96015  0.45462  1.0000
  H   H1471     1.0  0.41145  0.68589  0.01427  1.0000
  N   N124      1.0  0.44811  0.96578  0.26632  1.0000
  H   H1472     1.0  0.32300  0.90039  0.47359  1.0000
  H   H1473     1.0  0.43321  0.93839  0.14258  1.0000
  C   C1442     1.0  0.40779  0.91724  0.25140  1.0000
  C   C1443     1.0  0.39748  0.91306  0.26163  1.0000
  C   C1444     1.0  0.39500  0.91591  0.27426  1.0000
  C   C1445     1.0  0.40296  0.92274  0.27692  1.0000
  C   C1446     1.0  0.41346  0.92684  0.26676  1.0000
  C   C1447     1.0  0.41583  0.92417  0.25394  1.0000
  H   H1474     1.0  0.39125  0.90771  0.25977  1.0000
  H   H1475     1.0  0.38682  0.91279  0.28201  1.0000
  H   H1476     1.0  0.41964  0.93218  0.26872  1.0000
  H   H1477     1.0  0.42395  0.92728  0.24613  1.0000
  C   C1448     1.0  0.44931  0.94930  0.08386  1.0000
  C   C1449     1.0  0.44113  0.94702  0.09664  1.0000
  C   C1450     1.0  0.43861  0.95591  0.10502  1.0000
  C   C1451     1.0  0.44440  0.96701  0.10084  1.0000
  C   C1452     1.0  0.45180  0.96987  0.08770  1.0000
  C   C1453     1.0  0.45428  0.96099  0.07923  1.0000
  H   H1478     1.0  0.43675  0.93837  0.10011  1.0000
  H   H1479     1.0  0.43231  0.95402  0.11492  1.0000
  H   H1480     1.0  0.46956  0.97870  0.29274  1.0000
  H   H1481     1.0  0.46030  0.96301  0.06920  1.0000
  C   C1454     1.0  0.43094  0.90839  0.14492  1.0000
  C   C1455     1.0  0.42340  0.91533  0.15495  1.0000
  C   C1456     1.0  0.42943  0.91713  0.16426  1.0000
  C   C1457     1.0  0.44298  0.91179  0.16366  1.0000
  C   C1458     1.0  0.45034  0.90439  0.15399  1.0000
  C   C1459     1.0  0.44435  0.90276  0.14462  1.0000
  H   H1482     1.0  0.41296  0.91962  0.15526  1.0000
  H   H1483     1.0  0.42363  0.92276  0.17175  1.0000
  H   H1484     1.0  0.46073  0.89992  0.15372  1.0000
  H   H1485     1.0  0.45003  0.89697  0.13724  1.0000
  C   C1460     1.0  0.44097  0.86778  0.04216  1.0000
  C   C1461     1.0  0.44526  0.85656  0.05170  1.0000
  C   C1462     1.0  0.44631  0.85801  0.06405  1.0000
  C   C1463     1.0  0.44327  0.87070  0.06695  1.0000
  C   C1464     1.0  0.43912  0.88198  0.05737  1.0000
  C   C1465     1.0  0.43779  0.88049  0.04510  1.0000
  H   H1486     1.0  0.44758  0.84671  0.04971  1.0000
  H   H1487     1.0  0.44941  0.84922  0.07144  1.0000
  H   H1488     1.0  0.43653  0.89179  0.05960  1.0000
  H   H1489     1.0  0.43422  0.88924  0.03790  1.0000
  C   C1466     1.0  0.43927  0.79016  0.01883  1.0000
  C   C1467     1.0  0.43908  0.77666  0.02445  1.0000
  C   C1468     1.0  0.44220  0.76750  0.01618  1.0000
  C   C1469     1.0  0.44514  0.77186  0.00222  1.0000
  C   C1470     1.0  0.44521  0.78541  0.99663  1.0000
  C   C1471     1.0  0.44256  0.79446  0.00489  1.0000
  H   H1490     1.0  0.43648  0.77325  0.03522  1.0000
  H   H1491     1.0  0.44196  0.75715  0.02063  1.0000
  H   H1492     1.0  0.44871  0.93308  0.12201  1.0000
  H   H1493     1.0  0.44260  0.80488  0.00047  1.0000
  H   H1494     1.0  0.47857  0.94598  0.13093  1.0000
  H   H1495     1.0  0.43273  0.98342  0.26491  1.0000
  C   C1472     1.0  0.44018  0.66246  0.02125  1.0000
  Fe  Fe258     1.0  0.43855  0.93530  0.30363  1.0000
  H   H1496     1.0  0.39854  0.91247  0.21266  1.0000
  H   H1497     1.0  0.46962  0.84233  0.03440  1.0000
  H   H1498     1.0  0.33419  0.97257  0.38079  1.0000
  C   C1473     1.0  0.47380  0.93079  0.32758  1.0000
  C   C1474     1.0  0.48324  0.90774  0.13069  1.0000
  H   H1499     1.0  0.48256  0.94921  0.22197  1.0000
  C   C1475     1.0  0.46867  0.94413  0.13357  1.0000
  H   H1500     1.0  0.24918  0.97153  0.42120  1.0000
  H   H1501     1.0  0.48511  0.86771  0.08917  1.0000
  S   S510      1.0  0.47571  0.72997  0.99894  1.0000
  H   H1502     1.0  0.41565  0.70699  0.00071  1.0000
  H   H1503     1.0  0.45646  0.92726  0.32398  1.0000
  C   C1476     1.0  0.26503  0.95270  0.44598  1.0000
  C   C1477     1.0  0.40983  0.98133  0.20098  1.0000
  H   H1504     1.0  0.40812  0.66350  0.01573  1.0000
  H   H1505     1.0  0.46257  0.69303  0.99204  1.0000
  C   C1478     1.0  0.47963  0.65479  0.99614  1.0000
  H   H1506     1.0  0.39758  0.97861  0.28206  1.0000
  S   S511      1.0  0.48192  0.71920  0.03401  1.0000
  H   H1507     1.0  0.47724  0.74941  0.05882  1.0000
  C   C1479     1.0  0.34341  0.91905  0.45789  1.0000
  H   H1508     1.0  0.47113  0.91528  0.18692  1.0000
  H   H1509     1.0  0.47064  0.92802  0.33837  1.0000
  C   C1480     1.0  0.26806  0.97786  0.44514  1.0000
  Fe  Fe259     1.0  0.44526  0.93933  0.20915  1.0000
  H   H1510     1.0  0.45753  0.88773  0.02238  1.0000
  N   N125      1.0  0.47850  0.88485  0.01499  1.0000
  H   H1511     1.0  0.45795  0.78693  0.03748  1.0000
  C   C1481     1.0  0.34441  0.91835  0.47103  1.0000
  C   C1482     1.0  0.47626  0.74624  0.02388  1.0000
  C   C1483     1.0  0.39364  0.96248  0.27638  1.0000
  H   H1512     1.0  0.46363  0.95622  0.18938  1.0000
  H   H1513     1.0  0.44049  0.96076  0.23495  1.0000
  H   H1514     1.0  0.36015  0.92643  0.33761  1.0000
  H   H1515     1.0  0.44500  0.88362  0.18135  1.0000
  H   H1516     1.0  0.44717  0.65616  0.01490  1.0000
  H   H1517     1.0  0.40004  0.89676  0.22465  1.0000
  H   H1518     1.0  0.48590  0.91277  0.16475  1.0000
  C   C1484     1.0  0.47197  0.95184  0.20667  1.0000
  C   C1485     1.0  0.23858  0.97113  0.42523  1.0000
  H   H1519     1.0  0.43142  0.98278  0.21808  1.0000
  H   H1520     1.0  0.33876  0.92834  0.45206  1.0000
  C   C1486     1.0  0.46622  0.89055  0.02363  1.0000
  H   H1521     1.0  0.39105  0.89959  0.21192  1.0000
  C   C1487     1.0  0.46989  0.93361  0.30552  1.0000
  C   C1488     1.0  0.46039  0.94627  0.14585  1.0000
  H   H1522     1.0  0.45804  0.94431  0.24554  1.0000
  C   C1489     1.0  0.43596  0.88942  0.20024  1.0000
  C   C1490     1.0  0.47939  0.75887  0.01948  1.0000
  C   C1491     1.0  0.29218  0.91044  0.45823  1.0000
  H   H1523     1.0  0.24122  0.94901  0.46034  1.0000
  H   H1524     1.0  0.47212  0.92857  0.10969  1.0000
  C   C1492     1.0  0.48214  0.96236  0.18420  1.0000
  H   H1525     1.0  0.42770  0.98043  0.24476  1.0000
  C   C1493     1.0  0.35595  0.97521  0.39702  1.0000
  H   H1526     1.0  0.37506  0.97385  0.47156  1.0000
  C   C1494     1.0  0.37855  0.97850  0.47739  1.0000
  C   C1495     1.0  0.24574  0.95448  0.46472  1.0000
  C   C1496     1.0  0.39313  0.96057  0.24198  1.0000
  C   C1497     1.0  0.47703  0.78617  0.04073  1.0000
  H   H1527     1.0  0.38189  0.92808  0.32422  1.0000
  H   H1528     1.0  0.44714  0.78899  0.98588  1.0000
  H   H1529     1.0  0.39881  0.96530  0.23217  1.0000
  C   C1498     1.0  0.29101  0.91132  0.47139  1.0000
  N   N126      1.0  0.41524  0.84694  0.05783  1.0000
  C   C1499     1.0  0.41300  0.85391  0.04547  1.0000
  C   C1500     1.0  0.41778  0.83327  0.06092  1.0000
  C   C1501     1.0  0.41351  0.84718  0.03575  1.0000
  C   C1502     1.0  0.41830  0.82621  0.05145  1.0000
  C   C1503     1.0  0.41612  0.83324  0.03880  1.0000
  C   C1504     1.0  0.41422  0.85416  0.06806  1.0000
  H   H1530     1.0  0.41115  0.86475  0.04292  1.0000
  H   H1531     1.0  0.41950  0.82773  0.07072  1.0000
  H   H1532     1.0  0.41213  0.85276  0.02584  1.0000
  H   H1533     1.0  0.42053  0.81535  0.05376  1.0000
  H   H1534     1.0  0.41663  0.82786  0.03134  1.0000
  H   H1535     1.0  0.42153  0.84877  0.07442  1.0000
  H   H1536     1.0  0.41641  0.86425  0.06344  1.0000
  H   H1537     1.0  0.40407  0.85536  0.07451  1.0000
  C   C1505     1.0  0.30463  0.90575  0.45065  1.0000
  N   N127      1.0  0.41219  0.89625  0.20512  1.0000
  C   C1506     1.0  0.38655  0.91882  0.33067  1.0000
  C   C1507     1.0  0.35645  0.91812  0.35877  1.0000
  C   C1508     1.0  0.27552  0.95769  0.43666  1.0000
  C   C1509     1.0  0.37581  0.90600  0.36761  1.0000
  Fe  Fe260     1.0  0.41163  0.93516  0.29986  1.0000
  C   C1510     1.0  0.48202  0.93750  0.29973  1.0000
  H   H1538     1.0  0.48687  0.91831  0.27688  1.0000
  H   H1539     1.0  0.47083  0.86911  0.01345  1.0000
  H   H1540     1.0  0.35734  0.96327  0.38320  1.0000
  H   H1541     1.0  0.44787  0.95886  0.32963  1.0000
  C   C1511     1.0  0.33796  0.97622  0.38719  1.0000
  C   C1512     1.0  0.47852  0.97322  0.30977  1.0000
  C   C1513     1.0  0.38370  0.90869  0.35469  1.0000
  H   H1542     1.0  0.28511  0.97442  0.42907  1.0000
  C   C1514     1.0  0.47632  0.85505  0.07650  1.0000
  H   H1543     1.0  0.35890  0.88705  0.45555  1.0000
  S   S512      1.0  0.46071  0.93149  0.29527  1.0000
  C   C1515     1.0  0.31425  0.90322  0.46937  1.0000
  C   C1516     1.0  0.41581  0.66430  0.99460  1.0000
  N   N128      1.0  0.46621  0.96219  0.33041  1.0000
  C   C1517     1.0  0.42370  0.88930  0.18451  1.0000
  H   H1544     1.0  0.47415  0.95213  0.34773  1.0000
  H   H1545     1.0  0.47354  0.86562  0.07110  1.0000
  S   S513      1.0  0.44388  0.97563  0.11295  1.0000
  H   H1546     1.0  0.45134  0.98358  0.17622  1.0000
  C   C1518     1.0  0.34877  0.90776  0.45224  1.0000
  C   C1519     1.0  0.44751  0.94425  0.14913  1.0000
  H   H1547     1.0  0.28249  0.95170  0.42988  1.0000
  C   C1520     1.0  0.46614  0.76765  0.04862  1.0000
  H   H1548     1.0  0.48473  0.96685  0.32845  1.0000
  C   C1521     1.0  0.47172  0.95681  0.19308  1.0000
  N   N129      1.0  0.39436  0.96554  0.25299  1.0000
  C   C1522     1.0  0.39244  0.95794  0.26576  1.0000
  C   C1523     1.0  0.48056  0.91824  0.18390  1.0000
  C   C1524     1.0  0.25775  0.97253  0.45439  1.0000
  C   C1525     1.0  0.42146  0.66540  0.03986  1.0000
  C   C1526     1.0  0.41421  0.68202  0.00526  1.0000
  C   C1527     1.0  0.42265  0.98563  0.21410  1.0000
  H   H1549     1.0  0.47509  0.91327  0.13697  1.0000
  C   C1528     1.0  0.41892  0.98015  0.32087  1.0000
  H   H1550     1.0  0.47814  0.92450  0.20216  1.0000
  C   C1529     1.0  0.41221  0.66939  0.00613  1.0000
  S   S514      1.0  0.42970  0.94912  0.31767  1.0000
  H   H1551     1.0  0.45856  0.94902  0.34826  1.0000
  H   H1552     1.0  0.30738  0.97271  0.46532  1.0000
  S   S515      1.0  0.47284  0.97757  0.24435  1.0000
  H   H1553     1.0  0.42353  0.88783  0.17488  1.0000
  C   C1530     1.0  0.45230  0.95281  0.24986  1.0000
  H   H1554     1.0  0.44256  0.96836  0.28626  1.0000
  H   H1555     1.0  0.26400  0.94278  0.44627  1.0000
  C   C1531     1.0  0.47859  0.84291  0.03656  1.0000
  H   H1556     1.0  0.25274  0.92183  0.44275  1.0000
  C   C1532     1.0  0.48480  0.73533  0.03019  1.0000
  H   H1557     1.0  0.48035  0.96176  0.08142  1.0000
  C   C1533     1.0  0.39660  0.97497  0.27391  1.0000
  C   C1534     1.0  0.36462  0.92056  0.34597  1.0000
  C   C1535     1.0  0.44323  0.93982  0.14030  1.0000
  H   H1558     1.0  0.44091  0.94589  0.15857  1.0000
  C   C1536     1.0  0.45660  0.96271  0.32407  1.0000
  H   H1559     1.0  0.46913  0.85346  0.08627  1.0000
  H   H1560     1.0  0.25093  0.97837  0.46137  1.0000
  H   H1561     1.0  0.30566  0.90510  0.44039  1.0000
  H   H1562     1.0  0.36596  0.97084  0.39850  1.0000
  S   S516      1.0  0.23751  0.95526  0.40024  1.0000
  C   C1537     1.0  0.45133  0.96819  0.27778  1.0000
  C   C1538     1.0  0.48171  0.65751  0.01752  1.0000
  C   C1539     1.0  0.48239  0.95288  0.21144  1.0000
  C   C1540     1.0  0.47910  0.85451  0.03991  1.0000
  C   C1541     1.0  0.48019  0.98105  0.25532  1.0000
  H   H1563     1.0  0.48209  0.96596  0.17366  1.0000
  H   H1564     1.0  0.44035  0.98114  0.14119  1.0000
  H   H1565     1.0  0.39717  0.94959  0.24340  1.0000
  H   H1566     1.0  0.27167  0.97170  0.47990  1.0000
  H   H1567     1.0  0.46430  0.90163  0.02117  1.0000
  C   C1542     1.0  0.42150  0.97840  0.20557  1.0000
  C   C1543     1.0  0.48449  0.92341  0.19244  1.0000
  H   H1568     1.0  0.45920  0.96510  0.35021  1.0000
  C   C1544     1.0  0.46870  0.97390  0.30326  1.0000
  H   H1569     1.0  0.46698  0.88685  0.03430  1.0000
  C   C1545     1.0  0.44736  0.98129  0.15828  1.0000
  H   H1570     1.0  0.45590  0.97870  0.08418  1.0000
  C   C1546     1.0  0.47707  0.96736  0.32345  1.0000
  H   H1571     1.0  0.45711  0.97523  0.15523  1.0000
  H   H1572     1.0  0.43285  0.70035  0.99430  1.0000
  C   C1547     1.0  0.42534  0.98185  0.32982  1.0000
  H   H1573     1.0  0.24242  0.87716  0.47095  1.0000
  C   C1548     1.0  0.48229  0.97677  0.09028  1.0000
  H   H1574     1.0  0.48325  0.90726  0.30051  1.0000
  C   C1549     1.0  0.31996  0.98165  0.47095  1.0000
  C   C1550     1.0  0.42268  0.70207  0.99272  1.0000
  H   H1575     1.0  0.34051  0.92709  0.47533  1.0000
  C   C1551     1.0  0.39809  0.98285  0.26093  1.0000
  C   C1552     1.0  0.34872  0.98157  0.43984  1.0000
  H   H1576     1.0  0.47697  0.66799  0.01840  1.0000
  H   H1577     1.0  0.47243  0.97764  0.09673  1.0000
  H   H1578     1.0  0.48618  0.96029  0.26472  1.0000
  C   C1553     1.0  0.48634  0.97048  0.26433  1.0000
  C   C1554     1.0  0.43800  0.98460  0.15042  1.0000
  H   H1579     1.0  0.39761  0.98428  0.24061  1.0000
  C   C1555     1.0  0.48671  0.96788  0.08172  1.0000
  N   N130      1.0  0.32993  0.98567  0.39406  1.0000
  H   H1580     1.0  0.48705  0.77057  0.99194  1.0000
  N   N131      1.0  0.48717  0.65700  0.00338  1.0000
  C   C1556     1.0  0.47417  0.79847  0.96371  1.0000
  S   S517      1.0  0.45449  0.83258  0.90440  1.0000
  C   C1557     1.0  0.46608  0.68963  0.98276  1.0000
  Fe  Fe261     1.0  0.46427  0.79437  0.90461  1.0000
  S   S518      1.0  0.44311  0.80581  0.90814  1.0000
  S   S519      1.0  0.47246  0.77229  0.90529  1.0000
  Fe  Fe262     1.0  0.45025  0.82209  0.89110  1.0000
  S   S520      1.0  0.44078  0.83297  0.87340  1.0000
  C   C1558     1.0  0.46408  0.72132  0.94990  1.0000
  S   S521      1.0  0.47089  0.80979  0.88650  1.0000
  S   S522      1.0  0.47020  0.80272  0.91861  1.0000
  Fe  Fe263     1.0  0.44989  0.90202  0.82230  1.0000
  S   S523      1.0  0.46609  0.89091  0.80833  1.0000
  S   S524      1.0  0.44288  0.89329  0.84440  1.0000
  Fe  Fe264     1.0  0.45593  0.90457  0.79195  1.0000
  S   S525      1.0  0.45327  0.89800  0.77459  1.0000
  Fe  Fe265     1.0  0.47617  0.90757  0.80534  1.0000
  C   C1559     1.0  0.45871  0.83260  0.96468  1.0000
  H   H1581     1.0  0.42170  0.85838  0.92251  1.0000
  S   S526      1.0  0.46056  0.91815  0.81994  1.0000
  H   H1582     1.0  0.46228  0.97653  0.61323  1.0000
  S   S527      1.0  0.46759  0.83758  0.97333  1.0000
  H   H1583     1.0  0.42450  0.90750  0.76775  1.0000
  Fe  Fe266     1.0  0.25636  0.91242  0.51641  1.0000
  S   S528      1.0  0.27484  0.90077  0.52348  1.0000
  S   S529      1.0  0.25905  0.93040  0.49991  1.0000
  Fe  Fe267     1.0  0.32483  0.93642  0.52304  1.0000
  S   S530      1.0  0.33205  0.94035  0.50079  1.0000
  S   S531      1.0  0.30321  0.94062  0.53252  1.0000
  Fe  Fe268     1.0  0.35263  0.92872  0.52895  1.0000
  S   S532      1.0  0.36252  0.93172  0.50700  1.0000
  S   S533      1.0  0.36044  0.92217  0.54810  1.0000
  Fe  Fe269     1.0  0.34609  0.95013  0.50455  1.0000
  S   S534      1.0  0.34773  0.97109  0.49393  1.0000
  Fe  Fe270     1.0  0.34757  0.92166  0.50498  1.0000
  S   S535      1.0  0.35225  0.90447  0.49497  1.0000
  S   S536      1.0  0.33737  0.94789  0.52657  1.0000
  S   S537      1.0  0.33917  0.91693  0.52713  1.0000
  Fe  Fe271     1.0  0.42227  0.92799  0.60035  1.0000
  S   S538      1.0  0.42682  0.94720  0.60001  1.0000
  S   S539      1.0  0.42334  0.91156  0.61892  1.0000
  Fe  Fe272     1.0  0.41751  0.93705  0.57195  1.0000
  S   S540      1.0  0.42219  0.95693  0.56946  1.0000
  S   S541      1.0  0.41253  0.93590  0.55299  1.0000
  Fe  Fe273     1.0  0.43895  0.94575  0.57953  1.0000
  S   S542      1.0  0.45829  0.95229  0.57415  1.0000
  Fe  Fe274     1.0  0.40965  0.95662  0.59008  1.0000
  S   S543      1.0  0.39593  0.97580  0.59419  1.0000
  S   S544      1.0  0.43568  0.92569  0.58028  1.0000
  S   S545      1.0  0.40376  0.93754  0.59214  1.0000
  Fe  Fe275     1.0  0.43711  0.92769  0.67996  1.0000
  S   S546      1.0  0.45512  0.93166  0.66415  1.0000
  S   S547      1.0  0.42152  0.92006  0.67590  1.0000
  Fe  Fe276     1.0  0.44520  0.93544  0.70159  1.0000
  S   S548      1.0  0.46366  0.94034  0.68728  1.0000
  S   S549      1.0  0.44161  0.94042  0.72190  1.0000
  Fe  Fe277     1.0  0.45112  0.92919  0.80267  1.0000
  Fe  Fe278     1.0  0.46576  0.92153  0.68080  1.0000
  H   H1584     1.0  0.24334  0.87894  0.49346  1.0000
  S   S550      1.0  0.43244  0.94694  0.68673  1.0000
  S   S551      1.0  0.44816  0.91575  0.69620  1.0000
  H   H1585     1.0  0.29787  0.89928  0.49756  1.0000
  H   H1586     1.0  0.40762  0.91545  0.76613  1.0000
  C   C1560     1.0  0.30049  0.90857  0.49066  1.0000
  C   C1561     1.0  0.48089  0.86912  0.86106  1.0000
  H   H1587     1.0  0.47230  0.84269  0.84858  1.0000
  C   C1562     1.0  0.42309  0.93968  0.78058  1.0000
  H   H1588     1.0  0.45140  0.96114  0.60966  1.0000
  C   C1563     1.0  0.47774  0.69259  0.97392  1.0000
  N   N132      1.0  0.45966  0.96721  0.71373  1.0000
  H   H1589     1.0  0.45162  0.68189  0.88367  1.0000
  H   H1590     1.0  0.43945  0.71992  0.95300  1.0000
  C   C1564     1.0  0.41652  0.83986  0.92389  1.0000
  Fe  Fe279     1.0  0.44569  0.70782  0.92281  1.0000
  S   S552      1.0  0.46347  0.69627  0.93110  1.0000
  S   S553      1.0  0.43660  0.72950  0.92388  1.0000
  Fe  Fe280     1.0  0.44170  0.68304  0.91674  1.0000
  S   S554      1.0  0.45924  0.66928  0.92452  1.0000
  C   C1565     1.0  0.39053  0.97632  0.49422  1.0000
  Fe  Fe281     1.0  0.45213  0.68028  0.94121  1.0000
  C   C1566     1.0  0.26419  0.97400  0.48861  1.0000
  Fe  Fe282     1.0  0.46937  0.68622  0.91379  1.0000
  H   H1591     1.0  0.31999  0.97105  0.50200  1.0000
  S   S555      1.0  0.43356  0.69258  0.93454  1.0000
  S   S556      1.0  0.45256  0.69921  0.90442  1.0000
  H   H1592     1.0  0.48536  0.93834  0.78277  1.0000
  H   H1593     1.0  0.32689  0.97804  0.51911  1.0000
  C   C1567     1.0  0.47498  0.68089  0.95874  1.0000
  H   H1594     1.0  0.48358  0.81103  0.96898  1.0000
  H   H1595     1.0  0.45460  0.79265  0.95739  1.0000
  Fe  Fe283     1.0  0.47466  0.81923  0.90088  1.0000
  H   H1596     1.0  0.36017  0.95191  0.59770  1.0000
  S   S557      1.0  0.45382  0.96987  0.65883  1.0000
  C   C1568     1.0  0.42350  0.68428  0.98195  1.0000
  H   H1597     1.0  0.48165  0.85437  0.87965  1.0000
  C   C1569     1.0  0.46789  0.74719  0.94000  1.0000
  H   H1598     1.0  0.42830  0.68980  0.97249  1.0000
  H   H1599     1.0  0.48211  0.88493  0.82889  1.0000
  C   C1570     1.0  0.45514  0.74470  0.94505  1.0000
  C   C1571     1.0  0.36386  0.95381  0.58693  1.0000
  C   C1572     1.0  0.28467  0.97680  0.52400  1.0000
  C   C1573     1.0  0.41975  0.66154  0.89761  1.0000
  C   C1574     1.0  0.46681  0.97425  0.66226  1.0000
  H   H1600     1.0  0.47365  0.86508  0.83396  1.0000
  C   C1575     1.0  0.35822  0.94976  0.57884  1.0000
  N   N133      1.0  0.47847  0.65676  0.88799  1.0000
  C   C1576     1.0  0.45798  0.97334  0.73430  1.0000
  H   H1601     1.0  0.48541  0.71506  0.94502  1.0000
  H   H1602     1.0  0.47363  0.67728  0.88905  1.0000
  C   C1577     1.0  0.47071  0.95172  0.73050  1.0000
  H   H1603     1.0  0.44391  0.97964  0.58248  1.0000
  H   H1604     1.0  0.25402  0.95883  0.48994  1.0000
  H   H1605     1.0  0.41701  0.81383  0.93200  1.0000
  N   N134      1.0  0.41431  0.83184  0.91710  1.0000
  H   H1606     1.0  0.41606  0.83663  0.93459  1.0000
  H   H1607     1.0  0.48597  0.91059  0.64857  1.0000
  H   H1608     1.0  0.41315  0.82965  0.89815  1.0000
  S   S558      1.0  0.43867  0.91429  0.80626  1.0000
  H   H1609     1.0  0.47850  0.74457  0.90494  1.0000
  C   C1578     1.0  0.46745  0.94372  0.58645  1.0000
  C   C1579     1.0  0.46424  0.93216  0.59541  1.0000
  C   C1580     1.0  0.47197  0.92491  0.60479  1.0000
  H   H1610     1.0  0.42185  0.70909  0.98294  1.0000
  H   H1611     1.0  0.42272  0.96067  0.77336  1.0000
  C   C1581     1.0  0.44844  0.82598  0.97158  1.0000
  H   H1612     1.0  0.45593  0.92863  0.59495  1.0000
  H   H1613     1.0  0.46950  0.91585  0.61146  1.0000
  H   H1614     1.0  0.46907  0.78216  0.94906  1.0000
  C   C1582     1.0  0.42175  0.91598  0.63414  1.0000
  C   C1583     1.0  0.41394  0.90966  0.64572  1.0000
  C   C1584     1.0  0.41358  0.91157  0.65830  1.0000
  C   C1585     1.0  0.42131  0.91950  0.65956  1.0000
  C   C1586     1.0  0.42903  0.92608  0.64797  1.0000
  C   C1587     1.0  0.42917  0.92439  0.63524  1.0000
  H   H1615     1.0  0.40828  0.90309  0.64497  1.0000
  H   H1616     1.0  0.40757  0.90650  0.66716  1.0000
  H   H1617     1.0  0.43496  0.93231  0.64883  1.0000
  H   H1618     1.0  0.43536  0.92916  0.62634  1.0000
  H   H1619     1.0  0.47855  0.67737  0.94950  1.0000
  N   N135      1.0  0.47111  0.78624  0.96668  1.0000
  C   C1588     1.0  0.40749  0.97129  0.61514  1.0000
  C   C1589     1.0  0.48592  0.94100  0.59660  1.0000
  H   H1620     1.0  0.40409  0.96203  0.61877  1.0000
  H   H1621     1.0  0.48672  0.93858  0.64213  1.0000
  H   H1622     1.0  0.41196  0.98556  0.55405  1.0000
  H   H1623     1.0  0.46855  0.95858  0.74835  1.0000
  C   C1590     1.0  0.44447  0.95618  0.82006  1.0000
  C   C1591     1.0  0.44548  0.97488  0.80099  1.0000
  H   H1624     1.0  0.41795  0.85164  0.88593  1.0000
  C   C1592     1.0  0.45884  0.68239  0.97956  1.0000
  C   C1593     1.0  0.48291  0.92921  0.60531  1.0000
  C   C1594     1.0  0.36315  0.95222  0.56501  1.0000
  H   H1625     1.0  0.46511  0.96694  0.69301  1.0000
  C   C1595     1.0  0.37515  0.92573  0.54920  1.0000
  C   C1596     1.0  0.38318  0.93232  0.53804  1.0000
  C   C1597     1.0  0.39463  0.93526  0.53938  1.0000
  C   C1598     1.0  0.39805  0.93188  0.55191  1.0000
  C   C1599     1.0  0.38995  0.92540  0.56311  1.0000
  C   C1600     1.0  0.37863  0.92221  0.56172  1.0000
  H   H1626     1.0  0.38062  0.93506  0.52836  1.0000
  H   H1627     1.0  0.40087  0.94023  0.53066  1.0000
  H   H1628     1.0  0.39252  0.92267  0.57278  1.0000
  H   H1629     1.0  0.37250  0.91708  0.57040  1.0000
  H   H1630     1.0  0.23758  0.98206  0.52007  1.0000
  C   C1601     1.0  0.36150  0.96593  0.51328  1.0000
  C   C1602     1.0  0.36594  0.96926  0.52276  1.0000
  C   C1603     1.0  0.31725  0.98540  0.51967  1.0000
  C   C1604     1.0  0.25433  0.96661  0.49439  1.0000
  C   C1605     1.0  0.30045  0.96748  0.50613  1.0000
  H   H1631     1.0  0.36402  0.95567  0.51239  1.0000
  H   H1632     1.0  0.37188  0.96155  0.52901  1.0000
  S   S559      1.0  0.44454  0.95150  0.79587  1.0000
  H   H1633     1.0  0.44573  0.97904  0.79044  1.0000
  H   H1634     1.0  0.28022  0.96524  0.51286  1.0000
  C   C1606     1.0  0.28270  0.91195  0.52581  1.0000
  C   C1607     1.0  0.27527  0.92405  0.52916  1.0000
  C   C1608     1.0  0.28161  0.93289  0.53120  1.0000
  C   C1609     1.0  0.29541  0.92984  0.52941  1.0000
  C   C1610     1.0  0.30288  0.91796  0.52558  1.0000
  C   C1611     1.0  0.29650  0.90888  0.52408  1.0000
  H   H1635     1.0  0.26460  0.92647  0.53048  1.0000
  H   H1636     1.0  0.27580  0.94208  0.53413  1.0000
  H   H1637     1.0  0.31355  0.91560  0.52405  1.0000
  H   H1638     1.0  0.30227  0.89955  0.52142  1.0000
  C   C1612     1.0  0.46304  0.67842  0.96734  1.0000
  C   C1613     1.0  0.44530  0.97780  0.82284  1.0000
  Fe  Fe284     1.0  0.45138  0.94998  0.67206  1.0000
  H   H1639     1.0  0.44553  0.82429  0.98238  1.0000
  C   C1614     1.0  0.41962  0.85224  0.91713  1.0000
  C   C1615     1.0  0.47838  0.96466  0.66435  1.0000
  H   H1640     1.0  0.47026  0.83996  0.94527  1.0000
  H   H1641     1.0  0.44368  0.95720  0.62723  1.0000
  C   C1616     1.0  0.42153  0.95177  0.77121  1.0000
  C   C1617     1.0  0.47584  0.86264  0.84382  1.0000
  C   C1618     1.0  0.45236  0.90961  0.75914  1.0000
  C   C1619     1.0  0.45130  0.92322  0.75796  1.0000
  C   C1620     1.0  0.44859  0.93249  0.74622  1.0000
  C   C1621     1.0  0.44720  0.92826  0.73545  1.0000
  C   C1622     1.0  0.44904  0.91459  0.73630  1.0000
  C   C1623     1.0  0.45150  0.90531  0.74816  1.0000
  H   H1642     1.0  0.45192  0.92667  0.76632  1.0000
  H   H1643     1.0  0.44705  0.94304  0.74571  1.0000
  H   H1644     1.0  0.44797  0.91120  0.72808  1.0000
  H   H1645     1.0  0.45234  0.89479  0.74897  1.0000
  H   H1646     1.0  0.44412  0.96032  0.83888  1.0000
  S   S560      1.0  0.48604  0.70276  0.97734  1.0000
  N   N136      1.0  0.46428  0.95600  0.62325  1.0000
  C   C1624     1.0  0.42180  0.98491  0.61569  1.0000
  C   C1625     1.0  0.41078  0.81906  0.92451  1.0000
  H   H1647     1.0  0.48065  0.70821  0.90701  1.0000
  C   C1626     1.0  0.44252  0.84942  0.86503  1.0000
  C   C1627     1.0  0.44135  0.85416  0.85161  1.0000
  C   C1628     1.0  0.44200  0.86744  0.84494  1.0000
  C   C1629     1.0  0.44338  0.87620  0.85180  1.0000
  C   C1630     1.0  0.44460  0.87144  0.86520  1.0000
  C   C1631     1.0  0.44441  0.85805  0.87171  1.0000
  H   H1648     1.0  0.43980  0.84757  0.84640  1.0000
  H   H1649     1.0  0.44090  0.87104  0.83466  1.0000
  H   H1650     1.0  0.44564  0.87816  0.87057  1.0000
  H   H1651     1.0  0.44538  0.85453  0.88200  1.0000
  C   C1632     1.0  0.46210  0.76086  0.90940  1.0000
  C   C1633     1.0  0.44840  0.76458  0.91417  1.0000
  C   C1634     1.0  0.44062  0.75493  0.91829  1.0000
  C   C1635     1.0  0.44649  0.74152  0.91770  1.0000
  C   C1636     1.0  0.46014  0.73786  0.91280  1.0000
  C   C1637     1.0  0.46791  0.74750  0.90864  1.0000
  H   H1652     1.0  0.44383  0.77484  0.91480  1.0000
  H   H1653     1.0  0.43004  0.75784  0.92203  1.0000
  H   H1654     1.0  0.46471  0.72757  0.91234  1.0000
  C   C1638     1.0  0.28771  0.96946  0.51418  1.0000
  H   H1655     1.0  0.45266  0.98118  0.69698  1.0000
  H   H1656     1.0  0.40020  0.82080  0.92981  1.0000
  H   H1657     1.0  0.47070  0.80629  0.95569  1.0000
  C   C1639     1.0  0.44456  0.96439  0.82829  1.0000
  C   C1640     1.0  0.43997  0.72942  0.95498  1.0000
  N   N137      1.0  0.47328  0.89820  0.64959  1.0000
  C   C1641     1.0  0.47008  0.89751  0.63828  1.0000
  C   C1642     1.0  0.46406  0.89780  0.66143  1.0000
  C   C1643     1.0  0.45747  0.89597  0.63874  1.0000
  C   C1644     1.0  0.45137  0.89621  0.66227  1.0000
  C   C1645     1.0  0.44817  0.89511  0.65088  1.0000
  H   H1658     1.0  0.48314  0.81981  0.92341  1.0000
  N   N138      1.0  0.30704  0.97982  0.51792  1.0000
  H   H1659     1.0  0.46646  0.89878  0.67030  1.0000
  C   C1646     1.0  0.48713  0.92208  0.70903  1.0000
  H   H1660     1.0  0.44397  0.89608  0.67161  1.0000
  C   C1647     1.0  0.48462  0.65448  0.98262  1.0000
  C   C1648     1.0  0.47939  0.95768  0.81824  1.0000
  C   C1649     1.0  0.48152  0.94690  0.63562  1.0000
  H   H1661     1.0  0.38869  0.95963  0.48776  1.0000
  H   H1662     1.0  0.39394  0.97174  0.56874  1.0000
  S   S561      1.0  0.42824  0.67821  0.90676  1.0000
  H   H1663     1.0  0.45904  0.83174  0.93279  1.0000
  C   C1650     1.0  0.41752  0.84844  0.89663  1.0000
  C   C1651     1.0  0.41915  0.97771  0.65662  1.0000
  H   H1664     1.0  0.41982  0.96606  0.62939  1.0000
  C   C1652     1.0  0.47098  0.94548  0.63130  1.0000
  C   C1653     1.0  0.44582  0.98301  0.80916  1.0000
  C   C1654     1.0  0.42745  0.66221  0.90592  1.0000
  H   H1665     1.0  0.45843  0.77517  0.96439  1.0000
  H   H1666     1.0  0.47182  0.94648  0.80301  1.0000
  N   N139      1.0  0.32212  0.91398  0.55928  1.0000
  C   C1655     1.0  0.31114  0.91181  0.55689  1.0000
  C   C1656     1.0  0.33325  0.90394  0.55995  1.0000
  C   C1657     1.0  0.31135  0.89957  0.55441  1.0000
  C   C1658     1.0  0.33383  0.89159  0.55746  1.0000
  C   C1659     1.0  0.32283  0.88945  0.55456  1.0000
  C   C1660     1.0  0.32182  0.92699  0.56152  1.0000
  H   H1667     1.0  0.30223  0.91969  0.55655  1.0000
  H   H1668     1.0  0.34193  0.90560  0.56196  1.0000
  H   H1669     1.0  0.30274  0.89807  0.55210  1.0000
  H   H1670     1.0  0.34286  0.88385  0.55749  1.0000
  H   H1671     1.0  0.32322  0.88002  0.55234  1.0000
  H   H1672     1.0  0.31815  0.92704  0.57233  1.0000
  H   H1673     1.0  0.33185  0.92926  0.55807  1.0000
  H   H1674     1.0  0.31529  0.93518  0.55569  1.0000
  H   H1675     1.0  0.48555  0.95745  0.82515  1.0000
  Fe  Fe285     1.0  0.44955  0.81524  0.92100  1.0000
  H   H1676     1.0  0.43272  0.73740  0.94985  1.0000
  C   C1661     1.0  0.42008  0.85655  0.90340  1.0000
  C   C1662     1.0  0.45807  0.67199  0.88410  1.0000
  C   C1663     1.0  0.38628  0.97041  0.48649  1.0000
  H   H1677     1.0  0.43413  0.81621  0.96993  1.0000
  C   C1664     1.0  0.47695  0.72346  0.94504  1.0000
  H   H1678     1.0  0.41037  0.97482  0.65570  1.0000
  S   S562      1.0  0.46775  0.92001  0.78767  1.0000
  C   C1665     1.0  0.45602  0.83012  0.94359  1.0000
  C   C1666     1.0  0.41476  0.83599  0.90364  1.0000
  C   C1667     1.0  0.47505  0.84997  0.85202  1.0000
  C   C1668     1.0  0.36291  0.98252  0.52396  1.0000
  C   C1669     1.0  0.44198  0.82144  0.96450  1.0000
  N   N140      1.0  0.37920  0.96255  0.56745  1.0000
  H   H1679     1.0  0.47654  0.83723  0.87147  1.0000
  C   C1670     1.0  0.37385  0.95846  0.55950  1.0000
  S   S563      1.0  0.48626  0.90878  0.67784  1.0000
  H   H1680     1.0  0.30291  0.96167  0.49858  1.0000
  H   H1681     1.0  0.47491  0.91184  0.70460  1.0000
  H   H1682     1.0  0.45480  0.89560  0.62976  1.0000
  C   C1671     1.0  0.46297  0.78389  0.95896  1.0000
  H   H1683     1.0  0.37796  0.95993  0.54882  1.0000
  N   N141      1.0  0.41926  0.92869  0.76563  1.0000
  H   H1684     1.0  0.35896  0.94906  0.55857  1.0000
  C   C1672     1.0  0.45472  0.97623  0.72181  1.0000
  H   H1685     1.0  0.47681  0.94198  0.73383  1.0000
  H   H1686     1.0  0.48278  0.91464  0.82900  1.0000
  H   H1687     1.0  0.30976  0.90980  0.49239  1.0000
  C   C1673     1.0  0.46239  0.83476  0.95067  1.0000
  H   H1688     1.0  0.41551  0.94097  0.74688  1.0000
  H   H1689     1.0  0.41995  0.97430  0.66727  1.0000
  H   H1690     1.0  0.43837  0.89388  0.65137  1.0000
  C   C1674     1.0  0.47047  0.66929  0.88721  1.0000
  H   H1691     1.0  0.41411  0.67066  0.89247  1.0000
  C   C1675     1.0  0.26429  0.98443  0.49410  1.0000
  H   H1692     1.0  0.44667  0.75307  0.94484  1.0000
  C   C1676     1.0  0.47973  0.88518  0.83967  1.0000
  H   H1693     1.0  0.47008  0.89229  0.84192  1.0000
  C   C1677     1.0  0.42187  0.92816  0.77764  1.0000
  H   H1694     1.0  0.39829  0.96336  0.55511  1.0000
  C   C1678     1.0  0.35403  0.97581  0.50491  1.0000
  H   H1695     1.0  0.37859  0.96358  0.58734  1.0000
  C   C1679     1.0  0.46776  0.96811  0.61937  1.0000
  H   H1696     1.0  0.47222  0.95130  0.82403  1.0000
  H   H1697     1.0  0.44382  0.94588  0.82436  1.0000
  C   C1680     1.0  0.45273  0.95453  0.61953  1.0000
  H   H1698     1.0  0.35014  0.94463  0.58325  1.0000
  H   H1699     1.0  0.42339  0.91871  0.78485  1.0000
  H   H1700     1.0  0.29250  0.91720  0.49337  1.0000
  H   H1701     1.0  0.45375  0.94413  0.61876  1.0000
  S   S564      1.0  0.24718  0.90335  0.50571  1.0000
  C   C1681     1.0  0.31006  0.97275  0.50816  1.0000
  H   H1702     1.0  0.42251  0.86610  0.89797  1.0000
  C   C1682     1.0  0.47884  0.73647  0.93992  1.0000
  H   H1703     1.0  0.47971  0.95465  0.66306  1.0000
  H   H1704     1.0  0.38643  0.97920  0.55451  1.0000
  C   C1683     1.0  0.44482  0.96145  0.80641  1.0000
  H   H1705     1.0  0.41246  0.81221  0.91774  1.0000
  C   C1684     1.0  0.37434  0.96035  0.58101  1.0000
  H   H1706     1.0  0.42458  0.66782  0.97343  1.0000
  C   C1685     1.0  0.41807  0.91652  0.76270  1.0000
  C   C1686     1.0  0.24472  0.96953  0.50573  1.0000
  S   S565      1.0  0.43814  0.81696  0.94188  1.0000
  H   H1707     1.0  0.44417  0.66369  0.87966  1.0000
  C   C1687     1.0  0.44583  0.82340  0.95050  1.0000
  S   S566      1.0  0.45309  0.67083  0.96268  1.0000
  C   C1688     1.0  0.41741  0.94058  0.75649  1.0000
  C   C1689     1.0  0.47589  0.77619  0.97650  1.0000
  C   C1690     1.0  0.41860  0.95227  0.75910  1.0000
  H   H1708     1.0  0.41749  0.96159  0.75166  1.0000
  C   C1691     1.0  0.46601  0.96099  0.73866  1.0000
  H   H1709     1.0  0.47379  0.96810  0.81523  1.0000
  C   C1692     1.0  0.48238  0.68791  0.96206  1.0000
  H   H1710     1.0  0.46924  0.75733  0.93568  1.0000
  H   H1711     1.0  0.42542  0.93924  0.78999  1.0000
  N   N142      1.0  0.45338  0.73187  0.94968  1.0000
  C   C1693     1.0  0.48523  0.95917  0.63161  1.0000
  H   H1712     1.0  0.43704  0.72901  0.96591  1.0000
  Fe  Fe286     1.0  0.23870  0.93988  0.50989  1.0000
  C   C1694     1.0  0.42147  0.67179  0.98243  1.0000
  H   H1713     1.0  0.47730  0.89814  0.62883  1.0000
  C   C1695     1.0  0.48406  0.91531  0.70124  1.0000
  H   H1714     1.0  0.48044  0.92360  0.71844  1.0000
  H   H1715     1.0  0.48065  0.95724  0.58027  1.0000
  C   C1696     1.0  0.40351  0.98061  0.60407  1.0000
  C   C1697     1.0  0.47821  0.94823  0.58714  1.0000
  H   H1716     1.0  0.47105  0.94776  0.71172  1.0000
  C   C1698     1.0  0.41651  0.97352  0.62106  1.0000
  C   C1699     1.0  0.48647  0.89996  0.64896  1.0000
  H   H1717     1.0  0.44843  0.96504  0.70134  1.0000
  C   C1700     1.0  0.46743  0.95503  0.71799  1.0000
  H   H1718     1.0  0.42140  0.91677  0.75178  1.0000
  C   C1701     1.0  0.29447  0.98209  0.52565  1.0000
  C   C1702     1.0  0.48642  0.98079  0.67029  1.0000
  C   C1703     1.0  0.45625  0.97028  0.70064  1.0000
  C   C1704     1.0  0.24491  0.97989  0.51122  1.0000
  H   H1719     1.0  0.46819  0.93590  0.63440  1.0000
  C   C1705     1.0  0.39003  0.96957  0.56118  1.0000
  C   C1706     1.0  0.48614  0.79109  0.98145  1.0000
  N   N143      1.0  0.47901  0.87191  0.84830  1.0000
  C   C1707     1.0  0.48013  0.85659  0.86953  1.0000
  H   H1720     1.0  0.27475  0.97844  0.53024  1.0000
  C   C1708     1.0  0.48158  0.80115  0.97114  1.0000
  C   C1709     1.0  0.47835  0.96986  0.62339  1.0000
  H   H1721     1.0  0.48295  0.87662  0.86477  1.0000
  H   H1722     1.0  0.42816  0.97237  0.65047  1.0000
  Fe  Fe287     1.0  0.24845  0.92213  0.49003  1.0000
  H   H1723     1.0  0.46270  0.71116  0.95369  1.0000
  H   H1724     1.0  0.45439  0.98070  0.74049  1.0000
  H   H1725     1.0  0.39632  0.97017  0.50150  1.0000
  C   C1710     1.0  0.47729  0.84694  0.86493  1.0000
  H   H1726     1.0  0.47364  0.76642  0.97877  1.0000
  C   C1711     1.0  0.48208  0.94736  0.79952  1.0000
  H   H1727     1.0  0.48107  0.97949  0.62028  1.0000
  C   C1712     1.0  0.45383  0.66173  0.88196  1.0000
  H   H1728     1.0  0.42214  0.98018  0.57889  1.0000
  H   H1729     1.0  0.44837  0.98581  0.71857  1.0000
  C   C1713     1.0  0.44081  0.98580  0.57342  1.0000
  C   C1714     1.0  0.52664  0.99530  0.33974  1.0000
  H   H1730     1.0  0.53923  0.31764  0.00436  1.0000
  N   N144      1.0  0.57265  0.00782  0.16210  1.0000
  H   H1731     1.0  0.49085  0.21327  0.05149  1.0000
  H   H1732     1.0  0.58108  0.12269  0.05165  1.0000
  C   C1715     1.0  0.52533  0.00263  0.32688  1.0000
  H   H1733     1.0  0.63048  0.05067  0.39881  1.0000
  S   S567      1.0  0.52316  0.15786  0.02576  1.0000
  H   H1734     1.0  0.51246  0.00499  0.11366  1.0000
  C   C1716     1.0  0.51815  0.99339  0.15023  1.0000
  C   C1717     1.0  0.58534  0.99190  0.37954  1.0000
  C   C1718     1.0  0.54504  0.00232  0.11195  1.0000
  N   N145      1.0  0.51807  0.99937  0.32008  1.0000
  Fe  Fe288     1.0  0.63213  0.01614  0.44356  1.0000
  S   S568      1.0  0.62560  0.03475  0.42872  1.0000
  S   S569      1.0  0.62661  0.01501  0.46568  1.0000
  Fe  Fe289     1.0  0.64389  0.99972  0.42247  1.0000
  S   S570      1.0  0.63896  0.01712  0.40567  1.0000
  Fe  Fe290     1.0  0.72221  0.00828  0.44888  1.0000
  Fe  Fe291     1.0  0.64589  0.02846  0.41618  1.0000
  S   S571      1.0  0.65706  0.04411  0.40340  1.0000
  Fe  Fe292     1.0  0.61922  0.02152  0.41974  1.0000
  S   S572      1.0  0.59883  0.02581  0.41526  1.0000
  S   S573      1.0  0.65286  0.01055  0.43160  1.0000
  S   S574      1.0  0.62385  0.00351  0.43597  1.0000
  Fe  Fe293     1.0  0.57412  0.02381  0.35123  1.0000
  S   S575      1.0  0.56158  0.00858  0.36124  1.0000
  S   S576      1.0  0.59143  0.02585  0.35827  1.0000
  Fe  Fe294     1.0  0.56471  0.03012  0.32499  1.0000
  S   S577      1.0  0.55187  0.01534  0.33292  1.0000
  S   S578      1.0  0.56696  0.04164  0.30361  1.0000
  Fe  Fe295     1.0  0.54572  0.02342  0.35139  1.0000
  S   S579      1.0  0.52394  0.02521  0.36095  1.0000
  Fe  Fe296     1.0  0.56872  0.00199  0.34182  1.0000
  H   H1735     1.0  0.69238  0.05762  0.46088  1.0000
  S   S580      1.0  0.55758  0.03946  0.34294  1.0000
  S   S581      1.0  0.58221  0.01602  0.33231  1.0000
  N   N146      1.0  0.56861  0.15592  0.04931  1.0000
  H   H1736     1.0  0.55262  0.03203  0.25521  1.0000
  C   C1719     1.0  0.66805  0.05373  0.44880  1.0000
  S   S582      1.0  0.71382  0.04526  0.40871  1.0000
  S   S583      1.0  0.70942  0.02885  0.44683  1.0000
  Fe  Fe297     1.0  0.53439  0.24573  0.99991  1.0000
  Fe  Fe298     1.0  0.51624  0.04254  0.13380  1.0000
  S   S584      1.0  0.53550  0.08172  0.11262  1.0000
  S   S585      1.0  0.52269  0.05625  0.14197  1.0000
  Fe  Fe299     1.0  0.53659  0.05970  0.12174  1.0000
  H   H1737     1.0  0.65875  0.05047  0.45217  1.0000
  C   C1720     1.0  0.49878  0.00135  0.18762  1.0000
  C   C1721     1.0  0.50022  0.12378  0.01585  1.0000
  C   C1722     1.0  0.53595  0.20289  0.03211  1.0000
  H   H1738     1.0  0.70987  0.00434  0.43177  1.0000
  H   H1739     1.0  0.51061  0.03595  0.11278  1.0000
  H   H1740     1.0  0.56628  0.16963  0.03097  1.0000
  S   S586      1.0  0.50252  0.25666  0.04066  1.0000
  S   S587      1.0  0.53847  0.25085  0.01719  1.0000
  S   S588      1.0  0.73690  0.01268  0.45740  1.0000
  S   S589      1.0  0.53465  0.02766  0.23964  1.0000
  H   H1741     1.0  0.54786  0.11955  0.00382  1.0000
  S   S590      1.0  0.50583  0.02604  0.26053  1.0000
  C   C1723     1.0  0.54196  0.21187  0.00816  1.0000
  Fe  Fe300     1.0  0.51549  0.02335  0.23959  1.0000
  S   S591      1.0  0.50551  0.03240  0.22215  1.0000
  Fe  Fe301     1.0  0.52569  0.02839  0.26119  1.0000
  S   S592      1.0  0.52707  0.04582  0.26814  1.0000
  S   S593      1.0  0.52216  0.00120  0.24592  1.0000
  C   C1724     1.0  0.53229  0.07989  0.06658  1.0000
  N   N147      1.0  0.60676  0.05426  0.37605  1.0000
  H   H1742     1.0  0.54892  0.10153  0.99282  1.0000
  H   H1743     1.0  0.58829  0.05319  0.37305  1.0000
  H   H1744     1.0  0.57343  0.03669  0.26615  1.0000
  C   C1725     1.0  0.50779  0.00661  0.19064  1.0000
  H   H1745     1.0  0.62826  0.99602  0.41162  1.0000
  H   H1746     1.0  0.49670  0.00433  0.17769  1.0000
  C   C1726     1.0  0.53913  0.02581  0.19388  1.0000
  C   C1727     1.0  0.59776  0.05613  0.36726  1.0000
  Fe  Fe302     1.0  0.51715  0.27362  0.99186  1.0000
  H   H1747     1.0  0.49163  0.05723  0.29966  1.0000
  C   C1728     1.0  0.56742  0.00058  0.15697  1.0000
  C   C1729     1.0  0.57510  0.13193  0.05447  1.0000
  C   C1730     1.0  0.70451  0.06634  0.43553  1.0000
  S   S594      1.0  0.55329  0.04297  0.12806  1.0000
  C   C1731     1.0  0.58057  0.01994  0.13990  1.0000
  Fe  Fe303     1.0  0.51851  0.13962  0.04090  1.0000
  H   H1748     1.0  0.62417  0.05127  0.36062  1.0000
  C   C1732     1.0  0.49418  0.02458  0.34473  1.0000
  H   H1749     1.0  0.56424  0.17738  0.04450  1.0000
  C   C1733     1.0  0.48936  0.22340  0.04555  1.0000
  S   S595      1.0  0.53091  0.02455  0.14155  1.0000
  N   N148      1.0  0.49889  0.99175  0.13839  1.0000
  S   S596      1.0  0.53669  0.17647  0.04369  1.0000
  H   H1750     1.0  0.61392  0.99406  0.39849  1.0000
  H   H1751     1.0  0.59553  0.06675  0.36189  1.0000
  C   C1734     1.0  0.67501  0.05362  0.45810  1.0000
  C   C1735     1.0  0.51708  0.00699  0.30649  1.0000
  C   C1736     1.0  0.52962  0.09212  0.05759  1.0000
  S   S597      1.0  0.51251  0.25418  0.00442  1.0000
  H   H1752     1.0  0.58370  0.14457  0.03651  1.0000
  H   H1753     1.0  0.53453  0.22382  0.02305  1.0000
  C   C1737     1.0  0.55747  0.29188  0.00778  1.0000
  C   C1738     1.0  0.54954  0.29118  0.02075  1.0000
  C   C1739     1.0  0.54988  0.29966  0.02859  1.0000
  C   C1740     1.0  0.55786  0.30910  0.02334  1.0000
  C   C1741     1.0  0.56561  0.30992  0.01033  1.0000
  Fe  Fe304     1.0  0.54428  0.02982  0.12158  1.0000
  H   H1754     1.0  0.54330  0.28398  0.02478  1.0000
  H   H1755     1.0  0.54387  0.29899  0.03866  1.0000
  C   C1742     1.0  0.50773  0.00434  0.14788  1.0000
  S   S598      1.0  0.54644  0.03124  0.16659  1.0000
  C   C1743     1.0  0.63007  0.98684  0.40858  1.0000
  N   N149      1.0  0.49078  0.05370  0.28123  1.0000
  H   H1756     1.0  0.68154  0.00188  0.47622  1.0000
  C   C1744     1.0  0.50181  0.02354  0.35392  1.0000
  H   H1757     1.0  0.63954  0.04887  0.37515  1.0000
  C   C1745     1.0  0.49554  0.23256  0.04725  1.0000
  H   H1758     1.0  0.52800  0.06924  0.08718  1.0000
  H   H1759     1.0  0.57376  0.98856  0.28296  1.0000
  H   H1760     1.0  0.50305  0.11191  0.09114  1.0000
  H   H1761     1.0  0.50177  0.22950  0.05445  1.0000
  S   S599      1.0  0.53463  0.12522  0.03036  1.0000
  H   H1762     1.0  0.67117  0.05024  0.46875  1.0000
  C   C1746     1.0  0.50092  0.03459  0.11385  1.0000
  H   H1763     1.0  0.50084  0.21291  0.01885  1.0000
  C   C1747     1.0  0.55146  0.98661  0.20897  1.0000
  C   C1748     1.0  0.57005  0.16871  0.03996  1.0000
  H   H1764     1.0  0.50529  0.04498  0.29289  1.0000
  Fe  Fe305     1.0  0.72231  0.03271  0.42635  1.0000
  H   H1765     1.0  0.66791  0.05800  0.42781  1.0000
  C   C1749     1.0  0.49835  0.05471  0.29025  1.0000
  C   C1750     1.0  0.48915  0.11816  0.01930  1.0000
  C   C1751     1.0  0.56353  0.98898  0.31913  1.0000
  C   C1752     1.0  0.54446  0.13538  0.98664  1.0000
  C   C1753     1.0  0.55297  0.10088  0.06941  1.0000
  C   C1754     1.0  0.54316  0.10841  0.07776  1.0000
  C   C1755     1.0  0.53819  0.10239  0.09106  1.0000
  C   C1756     1.0  0.54270  0.08871  0.09604  1.0000
  C   C1757     1.0  0.55249  0.08109  0.08773  1.0000
  C   C1758     1.0  0.55773  0.08723  0.07447  1.0000
  H   H1766     1.0  0.53960  0.11893  0.07413  1.0000
  H   H1767     1.0  0.53070  0.10833  0.09750  1.0000
  H   H1768     1.0  0.55608  0.07054  0.09154  1.0000
  H   H1769     1.0  0.56540  0.08136  0.06809  1.0000
  C   C1759     1.0  0.53495  0.03220  0.18188  1.0000
  C   C1760     1.0  0.52177  0.03916  0.18232  1.0000
  C   C1761     1.0  0.51286  0.03968  0.19475  1.0000
  C   C1762     1.0  0.51699  0.03295  0.20671  1.0000
  C   C1763     1.0  0.53017  0.02610  0.20623  1.0000
  H   H1770     1.0  0.53224  0.20453  0.04220  1.0000
  H   H1771     1.0  0.51854  0.04437  0.17311  1.0000
  H   H1772     1.0  0.50284  0.04551  0.19513  1.0000
  H   H1773     1.0  0.53346  0.02096  0.21539  1.0000
  S   S600      1.0  0.55569  0.01162  0.11312  1.0000
  C   C1764     1.0  0.54369  0.18790  0.01685  1.0000
  H   H1774     1.0  0.65911  0.98913  0.46806  1.0000
  H   H1775     1.0  0.51692  0.00693  0.20603  1.0000
  H   H1776     1.0  0.48936  0.03329  0.19298  1.0000
  S   S601      1.0  0.55447  0.14463  0.02787  1.0000
  C   C1765     1.0  0.51398  0.02750  0.34949  1.0000
  H   H1777     1.0  0.50977  0.98930  0.08263  1.0000
  S   S602      1.0  0.55737  0.28152  0.99759  1.0000
  H   H1778     1.0  0.58232  0.31507  0.04250  1.0000
  C   C1766     1.0  0.51063  0.03400  0.32671  1.0000
  C   C1767     1.0  0.51825  0.03292  0.33587  1.0000
  H   H1779     1.0  0.58312  0.02327  0.15787  1.0000
  N   N150      1.0  0.50370  0.99367  0.21322  1.0000
  H   H1780     1.0  0.51413  0.03807  0.31618  1.0000
  H   H1781     1.0  0.52741  0.03635  0.33237  1.0000
  C   C1768     1.0  0.55500  0.04246  0.29487  1.0000
  C   C1769     1.0  0.54954  0.03149  0.29635  1.0000
  C   C1770     1.0  0.54117  0.03217  0.28797  1.0000
  C   C1771     1.0  0.53787  0.04399  0.27854  1.0000
  C   C1772     1.0  0.54313  0.05493  0.27733  1.0000
  C   C1773     1.0  0.55185  0.05407  0.28524  1.0000
  H   H1782     1.0  0.55216  0.02237  0.30357  1.0000
  H   H1783     1.0  0.53721  0.02365  0.28888  1.0000
  H   H1784     1.0  0.54060  0.06410  0.27009  1.0000
  H   H1785     1.0  0.55609  0.06252  0.28398  1.0000
  C   C1774     1.0  0.59314  0.02439  0.37465  1.0000
  C   C1775     1.0  0.58220  0.02625  0.38526  1.0000
  C   C1776     1.0  0.58408  0.02637  0.39778  1.0000
  C   C1777     1.0  0.59689  0.02449  0.39979  1.0000
  C   C1778     1.0  0.60783  0.02219  0.38931  1.0000
  C   C1779     1.0  0.60595  0.02219  0.37679  1.0000
  H   H1786     1.0  0.57229  0.02806  0.38368  1.0000
  H   H1787     1.0  0.57556  0.02822  0.40585  1.0000
  H   H1788     1.0  0.61773  0.02065  0.39075  1.0000
  H   H1789     1.0  0.61447  0.02066  0.36864  1.0000
  C   C1780     1.0  0.67306  0.04337  0.40515  1.0000
  C   C1781     1.0  0.67878  0.03420  0.41541  1.0000
  C   C1782     1.0  0.69146  0.03443  0.41656  1.0000
  C   C1783     1.0  0.69839  0.04376  0.40738  1.0000
  C   C1784     1.0  0.69265  0.05277  0.39715  1.0000
  C   C1785     1.0  0.68005  0.05262  0.39608  1.0000
  H   H1790     1.0  0.67343  0.02706  0.42251  1.0000
  H   H1791     1.0  0.69580  0.02748  0.42455  1.0000
  H   H1792     1.0  0.69792  0.06002  0.39006  1.0000
  H   H1793     1.0  0.67570  0.05974  0.38816  1.0000
  C   C1786     1.0  0.59233  0.98985  0.42311  1.0000
  C   C1787     1.0  0.50507  0.11328  0.08008  1.0000
  H   H1794     1.0  0.59203  0.99844  0.37772  1.0000
  S   S603      1.0  0.53357  0.00667  0.26916  1.0000
  C   C1788     1.0  0.62889  0.05072  0.37909  1.0000
  C   C1789     1.0  0.62382  0.05173  0.39241  1.0000
  H   H1795     1.0  0.49840  0.01945  0.36446  1.0000
  S   S604      1.0  0.73711  0.03955  0.43263  1.0000
  C   C1790     1.0  0.57405  0.99905  0.27911  1.0000
  C   C1791     1.0  0.48744  0.99671  0.26279  1.0000
  H   H1796     1.0  0.50764  0.00692  0.30423  1.0000
  C   C1792     1.0  0.56205  0.98889  0.22534  1.0000
  H   H1797     1.0  0.48927  0.06228  0.24848  1.0000
  H   H1798     1.0  0.70785  0.99601  0.41317  1.0000
  C   C1793     1.0  0.53143  0.00769  0.11384  1.0000
  H   H1799     1.0  0.56405  0.99753  0.13905  1.0000
  C   C1794     1.0  0.49822  0.00334  0.14184  1.0000
  H   H1800     1.0  0.57171  0.30178  0.99263  1.0000
  C   C1795     1.0  0.63781  0.01969  0.47169  1.0000
  C   C1796     1.0  0.65008  0.02166  0.46353  1.0000
  C   C1797     1.0  0.65950  0.02389  0.46896  1.0000
  H   H1801     1.0  0.57915  0.99620  0.17973  1.0000
  C   C1798     1.0  0.57146  0.00507  0.17660  1.0000
  H   H1802     1.0  0.65246  0.02115  0.45314  1.0000
  H   H1803     1.0  0.66918  0.02489  0.46275  1.0000
  C   C1799     1.0  0.57460  0.99207  0.39057  1.0000
  H   H1804     1.0  0.56358  0.02069  0.24496  1.0000
  H   H1805     1.0  0.55264  0.16472  0.06352  1.0000
  C   C1800     1.0  0.68519  0.06209  0.43099  1.0000
  S   S605      1.0  0.52912  0.04708  0.11320  1.0000
  S   S606      1.0  0.50322  0.98922  0.28093  1.0000
  H   H1806     1.0  0.51092  0.13442  0.02184  1.0000
  N   N151      1.0  0.51440  0.10167  0.07552  1.0000
  C   C1801     1.0  0.67958  0.99242  0.47565  1.0000
  C   C1802     1.0  0.52576  0.07860  0.08003  1.0000
  H   H1807     1.0  0.54175  0.99779  0.22419  1.0000
  C   C1803     1.0  0.56556  0.30120  0.00266  1.0000
  H   H1808     1.0  0.54987  0.14306  0.07891  1.0000
  C   C1804     1.0  0.52781  0.98782  0.10979  1.0000
  C   C1805     1.0  0.57648  0.14431  0.04595  1.0000
  H   H1809     1.0  0.56850  0.03518  0.24547  1.0000
  H   H1810     1.0  0.51746  0.20543  0.01248  1.0000
  S   S607      1.0  0.51945  0.28073  0.00872  1.0000
  H   H1811     1.0  0.60613  0.05439  0.40796  1.0000
  C   C1806     1.0  0.49486  0.98846  0.21033  1.0000
  C   C1807     1.0  0.50261  0.12969  0.02484  1.0000
  H   H1812     1.0  0.51582  0.10579  0.98837  1.0000
  S   S608      1.0  0.53863  0.26460  0.98547  1.0000
  C   C1808     1.0  0.49851  0.02965  0.10414  1.0000
  H   H1813     1.0  0.70245  0.07735  0.43416  1.0000
  C   C1809     1.0  0.53734  0.21383  0.02126  1.0000
  C   C1810     1.0  0.50969  0.21471  0.01091  1.0000
  H   H1814     1.0  0.57232  0.01380  0.17977  1.0000
  H   H1815     1.0  0.56434  0.12189  0.07304  1.0000
  H   H1816     1.0  0.50431  0.06246  0.28557  1.0000
  C   C1811     1.0  0.56559  0.13147  0.06646  1.0000
  C   C1812     1.0  0.57520  0.01266  0.13458  1.0000
  H   H1817     1.0  0.53960  0.07152  0.06318  1.0000
  H   H1818     1.0  0.51715  0.01763  0.30532  1.0000
  C   C1813     1.0  0.56314  0.02724  0.25163  1.0000
  S   S609      1.0  0.53030  0.14060  0.05467  1.0000
  C   C1814     1.0  0.49463  0.22474  0.99554  1.0000
  C   C1815     1.0  0.52684  0.31251  0.99487  1.0000
  H   H1819     1.0  0.58060  0.16947  0.03684  1.0000
  H   H1820     1.0  0.55299  0.99600  0.30310  1.0000
  C   C1816     1.0  0.56886  0.00635  0.26789  1.0000
  H   H1821     1.0  0.54932  0.02061  0.19369  1.0000
  C   C1817     1.0  0.50607  0.99005  0.22678  1.0000
  C   C1818     1.0  0.52292  0.00058  0.11253  1.0000
  S   S610      1.0  0.49792  0.13614  0.04901  1.0000
  H   H1822     1.0  0.49054  0.99801  0.12127  1.0000
  H   H1823     1.0  0.53016  0.01096  0.32236  1.0000
  C   C1819     1.0  0.49222  0.99229  0.19752  1.0000
  S   S611      1.0  0.56103  0.99400  0.23999  1.0000
  C   C1820     1.0  0.55538  0.98795  0.31143  1.0000
  H   H1824     1.0  0.71020  0.06353  0.42588  1.0000
  H   H1825     1.0  0.56466  0.00135  0.26304  1.0000
  H   H1826     1.0  0.53214  0.99812  0.34523  1.0000
  C   C1821     1.0  0.51006  0.00270  0.20363  1.0000
  H   H1827     1.0  0.50086  0.99844  0.23190  1.0000
  N   N152      1.0  0.56899  0.01963  0.26313  1.0000
  N   N153      1.0  0.69205  0.06176  0.44015  1.0000
  C   C1822     1.0  0.57933  0.01898  0.28064  1.0000
  C   C1823     1.0  0.53895  0.18994  0.02992  1.0000
  S   S612      1.0  0.54224  0.22559  0.99435  1.0000
  Fe  Fe306     1.0  0.54083  0.27060  0.00315  1.0000
  H   H1828     1.0  0.58329  0.99994  0.29428  1.0000
  C   C1824     1.0  0.49100  0.03722  0.12503  1.0000
  C   C1825     1.0  0.70869  0.99425  0.43357  1.0000
  C   C1826     1.0  0.49868  0.02966  0.33107  1.0000
  H   H1829     1.0  0.52751  0.01746  0.11608  1.0000
  H   H1830     1.0  0.56772  0.99768  0.31653  1.0000
  Fe  Fe307     1.0  0.54045  0.14362  0.01623  1.0000
  H   H1831     1.0  0.49579  0.17051  0.04291  1.0000
  C   C1827     1.0  0.55750  0.14333  0.06975  1.0000
  H   H1832     1.0  0.53509  0.30697  0.98860  1.0000
  C   C1828     1.0  0.55915  0.15555  0.06100  1.0000
  H   H1833     1.0  0.49559  0.11506  0.07695  1.0000
  C   C1829     1.0  0.52046  0.10291  0.06224  1.0000
  H   H1834     1.0  0.50921  0.12238  0.07555  1.0000
  Fe  Fe308     1.0  0.51438  0.00420  0.26683  1.0000
  H   H1835     1.0  0.51202  0.30914  0.98698  1.0000
  H   H1836     1.0  0.59112  0.05680  0.39325  1.0000
  S   S613      1.0  0.49470  0.04167  0.13804  1.0000
  C   C1830     1.0  0.68702  0.05778  0.45358  1.0000
  C   C1831     1.0  0.57392  0.02602  0.26949  1.0000
  Fe  Fe309     1.0  0.53665  0.15759  0.03841  1.0000
  H   H1837     1.0  0.51291  0.01375  0.18308  1.0000
  Fe  Fe310     1.0  0.72515  0.03378  0.45339  1.0000
  H   H1838     1.0  0.71103  0.06164  0.44280  1.0000
  Fe  Fe311     1.0  0.54068  0.00563  0.24750  1.0000
  H   H1839     1.0  0.57598  0.01473  0.12385  1.0000
  H   H1840     1.0  0.54893  0.19725  0.99589  1.0000
  H   H1841     1.0  0.60216  0.04972  0.35979  1.0000
  C   C1832     1.0  0.67315  0.05800  0.43515  1.0000
  S   S614      1.0  0.71804  0.04758  0.46757  1.0000
  C   C1833     1.0  0.54534  0.19884  0.00599  1.0000
  H   H1842     1.0  0.51219  0.08865  0.09496  1.0000
  C   C1834     1.0  0.56852  0.00296  0.14314  1.0000
  H   H1843     1.0  0.50641  0.02739  0.09567  1.0000
  H   H1844     1.0  0.50705  0.01363  0.15051  1.0000
  C   C1835     1.0  0.62016  0.05207  0.37097  1.0000
  S   S615      1.0  0.54465  0.14831  0.99371  1.0000
  H   H1845     1.0  0.54605  0.17792  0.01508  1.0000
  C   C1836     1.0  0.51387  0.31369  0.99399  1.0000
  Fe  Fe312     1.0  0.51671  0.26050  0.02088  1.0000
  S   S616      1.0  0.55960  0.10845  0.05279  1.0000
  H   H1846     1.0  0.48744  0.99136  0.09723  1.0000
  H   H1847     1.0  0.53478  0.09332  0.04714  1.0000
  H   H1848     1.0  0.52668  0.20913  0.98855  1.0000
  Fe  Fe313     1.0  0.53875  0.03866  0.14762  1.0000
  C   C1837     1.0  0.61015  0.05398  0.39749  1.0000
  Fe  Fe314     1.0  0.54691  0.12745  0.04309  1.0000
  C   C1838     1.0  0.60171  0.05530  0.38911  1.0000
  C   C1839     1.0  0.51681  0.08966  0.08437  1.0000
  C   C1840     1.0  0.57921  0.01736  0.15377  1.0000
  H   H1849     1.0  0.51838  0.11237  0.05523  1.0000
  H   H1850     1.0  0.52565  0.99404  0.15485  1.0000
  H   H1851     1.0  0.60046  0.99400  0.35536  1.0000
  H   H1852     1.0  0.58306  0.02414  0.28577  1.0000
  H   H1853     1.0  0.58547  0.02774  0.13333  1.0000
  C   C1841     1.0  0.55087  0.99171  0.21994  1.0000
  C   C1842     1.0  0.49410  0.24549  0.03924  1.0000
  H   H1854     1.0  0.68913  0.06535  0.42035  1.0000
  H   H1855     1.0  0.56217  0.99308  0.16364  1.0000
  H   H1856     1.0  0.51296  0.22315  0.01225  1.0000
  H   H1857     1.0  0.56152  0.00308  0.18199  1.0000
  H   H1858     1.0  0.50693  0.12368  0.00616  1.0000
  C   C1843     1.0  0.54652  0.12205  0.99367  1.0000
  C   C1844     1.0  0.57936  0.00542  0.28548  1.0000
  C   C1845     1.0  0.49423  0.12957  0.03751  1.0000
  S   S617      1.0  0.73407  0.01165  0.42770  1.0000
  N   N154      1.0  0.50693  0.21778  0.99756  1.0000
  H   H1859     1.0  0.52550  0.00257  0.29913  1.0000
  H   H1860     1.0  0.57282  0.99897  0.39697  1.0000
  H   H1861     1.0  0.54275  0.98877  0.20492  1.0000
  H   H1862     1.0  0.49194  0.15903  0.02698  1.0000
  C   C1846     1.0  0.55006  0.98953  0.10912  1.0000
  C   C1847     1.0  0.49380  0.05926  0.26780  1.0000
  S   S618      1.0  0.71262  0.99082  0.45869  1.0000
  H   H1863     1.0  0.68028  0.99300  0.46490  1.0000
  H   H1864     1.0  0.51684  0.98802  0.22641  1.0000
  H   H1865     1.0  0.50185  0.06448  0.26369  1.0000
  H   H1866     1.0  0.67259  0.99316  0.39296  1.0000
  H   H1867     1.0  0.59804  0.00036  0.43423  1.0000
  C   C1848     1.0  0.48904  0.99139  0.13146  1.0000
  H   H1868     1.0  0.49036  0.01196  0.13978  1.0000
  H   H1869     1.0  0.48797  0.00686  0.26205  1.0000
  C   C1849     1.0  0.65725  0.98877  0.47868  1.0000
  S   S619      1.0  0.49027  0.02984  0.31897  1.0000
  C   C1850     1.0  0.51678  0.21417  0.98707  1.0000
  C   C1851     1.0  0.52911  0.31844  0.00392  1.0000
  C   C1852     1.0  0.54727  0.11184  0.98738  1.0000
  C   C1853     1.0  0.51245  0.98852  0.32555  1.0000
  C   C1854     1.0  0.72987  0.04699  0.47626  1.0000
  H   H1870     1.0  0.49479  0.18462  0.02871  1.0000
  H   H1871     1.0  0.59529  0.99366  0.45862  1.0000
  H   H1872     1.0  0.57183  0.31712  0.00624  1.0000
  C   C1855     1.0  0.48902  0.17935  0.03808  1.0000
  C   C1856     1.0  0.70737  0.98958  0.42308  1.0000
  H   H1873     1.0  0.69027  0.98774  0.39107  1.0000
  C   C1857     1.0  0.59491  0.99143  0.43466  1.0000
  C   C1858     1.0  0.65656  0.02442  0.48247  1.0000
  H   H1874     1.0  0.59342  0.99750  0.41396  1.0000
  C   C1859     1.0  0.49368  0.98614  0.27171  1.0000
  H   H1875     1.0  0.50414  0.12084  0.98327  1.0000
  Fe  Fe315     1.0  0.57372  0.02605  0.61224  1.0000
  S   S620      1.0  0.57718  0.00473  0.62395  1.0000
  S   S621      1.0  0.59222  0.03425  0.60526  1.0000
  Fe  Fe316     1.0  0.55778  0.01154  0.63758  1.0000
  H   H1876     1.0  0.63247  0.03180  0.56940  1.0000
  H   H1877     1.0  0.58835  0.02165  0.78291  1.0000
  N   N155      1.0  0.54653  0.13235  0.87998  1.0000
  H   H1878     1.0  0.50163  0.03530  0.72845  1.0000
  S   S622      1.0  0.56292  0.02293  0.59854  1.0000
  S   S623      1.0  0.65904  0.01670  0.55068  1.0000
  C   C1860     1.0  0.55870  0.12198  0.88095  1.0000
  Fe  Fe317     1.0  0.52554  0.04129  0.73678  1.0000
  S   S624      1.0  0.54609  0.04505  0.73123  1.0000
  Fe  Fe318     1.0  0.53511  0.01150  0.74487  1.0000
  S   S625      1.0  0.55640  0.01271  0.73947  1.0000
  C   C1861     1.0  0.49095  0.02342  0.84830  1.0000
  Fe  Fe319     1.0  0.54892  0.02960  0.75010  1.0000
  S   S626      1.0  0.55961  0.02741  0.76619  1.0000
  Fe  Fe320     1.0  0.55135  0.02774  0.72117  1.0000
  S   S627      1.0  0.56412  0.02897  0.70020  1.0000
  S   S628      1.0  0.52782  0.02746  0.75659  1.0000
  S   S629      1.0  0.53061  0.02501  0.72566  1.0000
  S   S630      1.0  0.52406  0.03813  0.61029  1.0000
  H   H1879     1.0  0.54588  0.99870  0.72706  1.0000
  H   H1880     1.0  0.61795  0.01750  0.53592  1.0000
  C   C1862     1.0  0.49017  0.25892  0.90362  1.0000
  H   H1881     1.0  0.49627  0.06899  0.80042  1.0000
  H   H1882     1.0  0.56023  0.11916  0.89137  1.0000
  H   H1883     1.0  0.62252  0.01179  0.55749  1.0000
  H   H1884     1.0  0.52283  0.01389  0.64702  1.0000
  C   C1863     1.0  0.57088  0.15444  0.93524  1.0000
  H   H1885     1.0  0.51358  0.26112  0.97470  1.0000
  C   C1864     1.0  0.56601  0.15488  0.95865  1.0000
  C   C1865     1.0  0.53383  0.28361  0.94936  1.0000
  H   H1886     1.0  0.53285  0.05348  0.70737  1.0000
  C   C1866     1.0  0.53361  0.15409  0.88298  1.0000
  H   H1887     1.0  0.50164  0.14607  0.93177  1.0000
  H   H1888     1.0  0.69460  0.02611  0.49313  1.0000
  H   H1889     1.0  0.50849  0.04741  0.83197  1.0000
  H   H1890     1.0  0.63781  0.99401  0.54952  1.0000
  C   C1867     1.0  0.53092  0.04054  0.67655  1.0000
  H   H1891     1.0  0.53964  0.26466  0.94377  1.0000
  C   C1868     1.0  0.58654  0.02058  0.81555  1.0000
  Fe  Fe321     1.0  0.48767  0.00242  0.68511  1.0000
  Fe  Fe322     1.0  0.51996  0.04326  0.85300  1.0000
  S   S631      1.0  0.52085  0.06441  0.84351  1.0000
  S   S632      1.0  0.50052  0.03715  0.86023  1.0000
  Fe  Fe323     1.0  0.54964  0.03367  0.84665  1.0000
  S   S633      1.0  0.55321  0.05441  0.83653  1.0000
  S   S634      1.0  0.56439  0.01379  0.84738  1.0000
  Fe  Fe324     1.0  0.53739  0.06091  0.85393  1.0000
  S   S635      1.0  0.53354  0.07933  0.86228  1.0000
  Fe  Fe325     1.0  0.53633  0.05641  0.82713  1.0000
  S   S636      1.0  0.53413  0.06628  0.80602  1.0000
  S   S637      1.0  0.53516  0.04000  0.86490  1.0000
  S   S638      1.0  0.53417  0.03539  0.83580  1.0000
  Fe  Fe326     1.0  0.54205  0.11008  0.94592  1.0000
  S   S639      1.0  0.55636  0.11536  0.92648  1.0000
  S   S640      1.0  0.54703  0.10217  0.96621  1.0000
  Fe  Fe327     1.0  0.51889  0.11745  0.93276  1.0000
  S   S641      1.0  0.53086  0.12367  0.91215  1.0000
  H   H1892     1.0  0.51337  0.07741  0.88712  1.0000
  Fe  Fe328     1.0  0.54593  0.10509  0.91809  1.0000
  S   S642      1.0  0.55774  0.09067  0.90478  1.0000
  Fe  Fe329     1.0  0.54012  0.13337  0.92227  1.0000
  S   S643      1.0  0.54454  0.15361  0.91214  1.0000
  S   S644      1.0  0.53316  0.09807  0.93806  1.0000
  S   S645      1.0  0.52654  0.12888  0.94230  1.0000
  H   H1893     1.0  0.53055  0.30157  0.95634  1.0000
  Fe  Fe330     1.0  0.52284  0.23590  0.90689  1.0000
  S   S646      1.0  0.54149  0.22505  0.91413  1.0000
  S   S647      1.0  0.51847  0.23655  0.88733  1.0000
  Fe  Fe331     1.0  0.50938  0.24602  0.93223  1.0000
  S   S648      1.0  0.52667  0.23586  0.94185  1.0000
  H   H1894     1.0  0.71723  0.98768  0.54843  1.0000
  Fe  Fe332     1.0  0.53883  0.24348  0.92176  1.0000
  S   S649      1.0  0.55589  0.25220  0.92079  1.0000
  Fe  Fe333     1.0  0.52755  0.21848  0.93348  1.0000
  S   S650      1.0  0.52921  0.19759  0.94637  1.0000
  S   S651      1.0  0.52146  0.25494  0.91270  1.0000
  S   S652      1.0  0.50905  0.22804  0.92567  1.0000
  N   N156      1.0  0.60348  0.01342  0.55409  1.0000
  H   H1895     1.0  0.56715  0.17375  0.92189  1.0000
  C   C1869     1.0  0.72666  0.01296  0.49557  1.0000
  H   H1896     1.0  0.57391  0.14895  0.92732  1.0000
  C   C1870     1.0  0.50166  0.22381  0.97217  1.0000
  C   C1871     1.0  0.54809  0.05637  0.67467  1.0000
  C   C1872     1.0  0.58907  0.01601  0.80385  1.0000
  C   C1873     1.0  0.55425  0.26959  0.91476  1.0000
  C   C1874     1.0  0.56577  0.27460  0.90949  1.0000
  C   C1875     1.0  0.56495  0.28836  0.90464  1.0000
  S   S653      1.0  0.50532  0.28842  0.97758  1.0000
  C   C1876     1.0  0.54102  0.29240  0.91116  1.0000
  C   C1877     1.0  0.54183  0.27851  0.91558  1.0000
  H   H1897     1.0  0.57538  0.26778  0.90884  1.0000
  H   H1898     1.0  0.53144  0.29927  0.91170  1.0000
  C   C1878     1.0  0.72982  0.02327  0.55533  1.0000
  H   H1899     1.0  0.53287  0.27474  0.91974  1.0000
  C   C1879     1.0  0.49528  0.02168  0.77510  1.0000
  N   N157      1.0  0.56183  0.16849  0.95561  1.0000
  C   C1880     1.0  0.52374  0.20921  0.89077  1.0000
  C   C1881     1.0  0.51511  0.22147  0.88712  1.0000
  H   H1900     1.0  0.48942  0.23966  0.90148  1.0000
  H   H1901     1.0  0.55551  0.05423  0.65413  1.0000
  H   H1902     1.0  0.55317  0.14581  0.88676  1.0000
  H   H1903     1.0  0.53280  0.20899  0.89342  1.0000
  C   C1882     1.0  0.50019  0.20974  0.88419  1.0000
  C   C1883     1.0  0.71280  0.04230  0.54739  1.0000
  C   C1884     1.0  0.54002  0.16561  0.92195  1.0000
  C   C1885     1.0  0.54090  0.17879  0.91559  1.0000
  C   C1886     1.0  0.53713  0.18870  0.92301  1.0000
  C   C1887     1.0  0.53288  0.18542  0.93692  1.0000
  C   C1888     1.0  0.53210  0.17220  0.94338  1.0000
  C   C1889     1.0  0.53562  0.16231  0.93589  1.0000
  H   H1904     1.0  0.54456  0.18136  0.90486  1.0000
  H   H1905     1.0  0.53778  0.19884  0.91793  1.0000
  H   H1906     1.0  0.52886  0.16958  0.95416  1.0000
  H   H1907     1.0  0.53513  0.15214  0.94094  1.0000
  H   H1908     1.0  0.51676  0.13821  0.87209  1.0000
  H   H1909     1.0  0.50762  0.03982  0.81242  1.0000
  H   H1910     1.0  0.49204  0.31108  0.90809  1.0000
  C   C1890     1.0  0.52070  0.19723  0.89080  1.0000
  S   S654      1.0  0.53046  0.99132  0.75362  1.0000
  H   H1911     1.0  0.51273  0.16211  0.91324  1.0000
  H   H1912     1.0  0.50022  0.01421  0.78244  1.0000
  C   C1891     1.0  0.70631  0.00731  0.48847  1.0000
  C   C1892     1.0  0.50405  0.08891  0.91851  1.0000
  H   H1913     1.0  0.59252  0.00539  0.80405  1.0000
  C   C1893     1.0  0.54013  0.08159  0.87470  1.0000
  C   C1894     1.0  0.53332  0.09208  0.88127  1.0000
  C   C1895     1.0  0.53831  0.09455  0.89098  1.0000
  C   C1896     1.0  0.55042  0.08683  0.89384  1.0000
  C   C1897     1.0  0.55719  0.07627  0.88736  1.0000
  C   C1898     1.0  0.55198  0.07353  0.87793  1.0000
  H   H1914     1.0  0.52409  0.09832  0.87887  1.0000
  H   H1915     1.0  0.53294  0.10259  0.89603  1.0000
  H   H1916     1.0  0.56658  0.07027  0.88954  1.0000
  H   H1917     1.0  0.55733  0.06546  0.87290  1.0000
  C   C1899     1.0  0.53098  0.04512  0.68760  1.0000
  C   C1900     1.0  0.48791  0.00394  0.63461  1.0000
  C   C1901     1.0  0.50196  0.28039  0.96711  1.0000
  C   C1902     1.0  0.50713  0.26671  0.96791  1.0000
  C   C1903     1.0  0.50388  0.26021  0.95996  1.0000
  H   H1918     1.0  0.57320  0.13679  0.95110  1.0000
  H   H1919     1.0  0.57653  0.06033  0.81147  1.0000
  H   H1920     1.0  0.49646  0.05426  0.63356  1.0000
  S   S655      1.0  0.49712  0.11890  0.93737  1.0000
  H   H1921     1.0  0.50767  0.24960  0.96082  1.0000
  H   H1922     1.0  0.56946  0.25105  0.95739  1.0000
  C   C1904     1.0  0.50084  0.04325  0.71966  1.0000
  H   H1923     1.0  0.51704  0.98741  0.72693  1.0000
  C   C1905     1.0  0.54298  0.13847  0.97340  1.0000
  C   C1906     1.0  0.54408  0.12828  0.96703  1.0000
  C   C1907     1.0  0.54613  0.11495  0.97402  1.0000
  C   C1908     1.0  0.59614  0.00364  0.58157  1.0000
  C   C1909     1.0  0.57384  0.05730  0.80359  1.0000
  H   H1924     1.0  0.54114  0.14877  0.96799  1.0000
  H   H1925     1.0  0.54358  0.13074  0.95665  1.0000
  C   C1910     1.0  0.49371  0.28759  0.95821  1.0000
  C   C1911     1.0  0.50319  0.05561  0.71917  1.0000
  C   C1912     1.0  0.49006  0.28079  0.90697  1.0000
  C   C1913     1.0  0.49492  0.02636  0.60220  1.0000
  H   H1926     1.0  0.56286  0.05933  0.80540  1.0000
  C   C1914     1.0  0.56707  0.16836  0.93219  1.0000
  N   N158      1.0  0.52592  0.00290  0.81959  1.0000
  N   N159      1.0  0.72880  0.00155  0.49111  1.0000
  C   C1915     1.0  0.64408  0.02309  0.49045  1.0000
  S   S656      1.0  0.50821  0.05793  0.73250  1.0000
  C   C1916     1.0  0.53651  0.13021  0.87585  1.0000
  C   C1917     1.0  0.60907  0.00521  0.57570  1.0000
  C   C1918     1.0  0.55165  0.03804  0.77731  1.0000
  C   C1919     1.0  0.55408  0.03419  0.79023  1.0000
  C   C1920     1.0  0.54843  0.04274  0.79915  1.0000
  C   C1921     1.0  0.54038  0.05521  0.79517  1.0000
  C   C1922     1.0  0.53767  0.05897  0.78235  1.0000
  C   C1923     1.0  0.54320  0.05032  0.77344  1.0000
  H   H1927     1.0  0.56042  0.02460  0.79329  1.0000
  H   H1928     1.0  0.55061  0.03987  0.80897  1.0000
  H   H1929     1.0  0.53143  0.06864  0.77923  1.0000
  H   H1930     1.0  0.54126  0.05333  0.76347  1.0000
  H   H1931     1.0  0.54528  0.99424  0.58447  1.0000
  C   C1924     1.0  0.51059  0.06827  0.88766  1.0000
  H   H1932     1.0  0.62523  0.01919  0.49140  1.0000
  H   H1933     1.0  0.72211  0.01730  0.55806  1.0000
  C   C1925     1.0  0.70413  0.01909  0.49276  1.0000
  S   S657      1.0  0.62320  0.03996  0.54442  1.0000
  H   H1934     1.0  0.48983  0.15266  0.95342  1.0000
  C   C1926     1.0  0.66386  0.99094  0.49728  1.0000
  H   H1935     1.0  0.70456  0.98690  0.52253  1.0000
  C   C1927     1.0  0.70572  0.00733  0.54173  1.0000
  N   N160      1.0  0.53939  0.05304  0.68652  1.0000
  H   H1936     1.0  0.50603  0.08053  0.81126  1.0000
  C   C1928     1.0  0.50193  0.06867  0.87989  1.0000
  C   C1929     1.0  0.50226  0.06584  0.70768  1.0000
  C   C1930     1.0  0.59077  0.01192  0.55976  1.0000
  H   H1937     1.0  0.53139  0.04700  0.90562  1.0000
  H   H1938     1.0  0.53252  0.16333  0.88599  1.0000
  C   C1931     1.0  0.53884  0.05842  0.69794  1.0000
  H   H1939     1.0  0.53070  0.02211  0.81228  1.0000
  C   C1932     1.0  0.49643  0.02505  0.82428  1.0000
  H   H1940     1.0  0.51534  0.10155  0.92065  1.0000
  C   C1933     1.0  0.53763  0.00205  0.58041  1.0000
  C   C1934     1.0  0.60703  0.01925  0.53971  1.0000
  C   C1935     1.0  0.60079  0.03543  0.58836  1.0000
  C   C1936     1.0  0.59393  0.03961  0.57802  1.0000
  C   C1937     1.0  0.60094  0.04140  0.56459  1.0000
  C   C1938     1.0  0.61487  0.03854  0.56141  1.0000
  C   C1939     1.0  0.62175  0.03402  0.57175  1.0000
  C   C1940     1.0  0.61471  0.03271  0.58518  1.0000
  H   H1941     1.0  0.58321  0.04195  0.58036  1.0000
  H   H1942     1.0  0.59556  0.04496  0.55664  1.0000
  C   C1941     1.0  0.53970  0.04393  0.66441  1.0000
  H   H1943     1.0  0.62006  0.02959  0.59314  1.0000
  C   C1942     1.0  0.55494  0.01033  0.67090  1.0000
  C   C1943     1.0  0.54803  0.00844  0.68431  1.0000
  C   C1944     1.0  0.55089  0.01396  0.69341  1.0000
  C   C1945     1.0  0.56077  0.02131  0.68919  1.0000
  C   C1946     1.0  0.56786  0.02298  0.67581  1.0000
  C   C1947     1.0  0.56491  0.01757  0.66665  1.0000
  Fe  Fe334     1.0  0.66275  0.00206  0.53777  1.0000
  H   H1944     1.0  0.54542  0.01255  0.70368  1.0000
  H   H1945     1.0  0.57556  0.02859  0.67248  1.0000
  H   H1946     1.0  0.57036  0.01900  0.65633  1.0000
  H   H1947     1.0  0.52934  0.00971  0.61059  1.0000
  N   N161      1.0  0.50034  0.18103  0.93646  1.0000
  S   S658      1.0  0.67916  0.01008  0.52237  1.0000
  H   H1948     1.0  0.54000  0.04012  0.65587  1.0000
  H   H1949     1.0  0.50940  0.03018  0.56814  1.0000
  S   S659      1.0  0.65954  0.03991  0.52233  1.0000
  C   C1948     1.0  0.49996  0.01264  0.60301  1.0000
  H   H1950     1.0  0.71864  0.03339  0.52104  1.0000
  C   C1949     1.0  0.56190  0.00328  0.83849  1.0000
  C   C1950     1.0  0.55944  0.00849  0.82563  1.0000
  C   C1951     1.0  0.55834  0.00005  0.81819  1.0000
  H   H1951     1.0  0.51616  0.99605  0.60726  1.0000
  H   H1952     1.0  0.55878  0.01898  0.82124  1.0000
  H   H1953     1.0  0.55677  0.00414  0.80813  1.0000
  H   H1954     1.0  0.69635  0.00497  0.54755  1.0000
  N   N162      1.0  0.55446  0.26794  0.95147  1.0000
  C   C1952     1.0  0.55819  0.27654  0.95637  1.0000
  C   C1953     1.0  0.56357  0.25521  0.94952  1.0000
  H   H1955     1.0  0.56767  0.27386  0.95921  1.0000
  H   H1956     1.0  0.54603  0.01781  0.58140  1.0000
  C   C1954     1.0  0.56305  0.98950  0.84393  1.0000
  C   C1955     1.0  0.50755  0.99275  0.64325  1.0000
  C   C1956     1.0  0.49045  0.28107  0.95028  1.0000
  C   C1957     1.0  0.52331  0.15197  0.87888  1.0000
  C   C1958     1.0  0.63476  0.02060  0.48510  1.0000
  H   H1957     1.0  0.52425  0.03422  0.67751  1.0000
  H   H1958     1.0  0.51230  0.08371  0.91203  1.0000
  Fe  Fe335     1.0  0.64460  0.02943  0.53792  1.0000
  N   N163      1.0  0.50858  0.00456  0.64508  1.0000
  H   H1959     1.0  0.61620  0.00313  0.58188  1.0000
  C   C1959     1.0  0.49440  0.17222  0.94679  1.0000
  C   C1960     1.0  0.50235  0.03410  0.60451  1.0000
  S   S660      1.0  0.49101  0.25915  0.94166  1.0000
  C   C1961     1.0  0.49950  0.06351  0.69652  1.0000
  H   H1960     1.0  0.52399  0.01278  0.83520  1.0000
  C   C1962     1.0  0.52538  0.99193  0.80297  1.0000
  H   H1961     1.0  0.55829  0.11267  0.87849  1.0000
  C   C1963     1.0  0.51480  0.02817  0.60767  1.0000
  C   C1964     1.0  0.50130  0.15586  0.93312  1.0000
  C   C1965     1.0  0.50672  0.17753  0.92450  1.0000
  C   C1966     1.0  0.50744  0.16486  0.92270  1.0000
  S   S661      1.0  0.69166  0.03301  0.53490  1.0000
  C   C1967     1.0  0.49474  0.15953  0.94527  1.0000
  C   C1968     1.0  0.56217  0.99271  0.77524  1.0000
  H   H1962     1.0  0.73141  0.02484  0.56457  1.0000
  C   C1969     1.0  0.49548  0.26736  0.95121  1.0000
  Fe  Fe336     1.0  0.56524  0.00217  0.61115  1.0000
  C   C1970     1.0  0.49182  0.22787  0.98282  1.0000
  H   H1963     1.0  0.55940  0.17053  0.97562  1.0000
  H   H1964     1.0  0.57754  0.06374  0.79381  1.0000
  H   H1965     1.0  0.57088  0.99738  0.77080  1.0000
  C   C1971     1.0  0.49750  0.05721  0.88120  1.0000
  H   H1966     1.0  0.56545  0.14949  0.96901  1.0000
  H   H1967     1.0  0.55244  0.29537  0.96253  1.0000
  Fe  Fe337     1.0  0.67426  0.02588  0.53403  1.0000
  H   H1968     1.0  0.52438  0.04216  0.69707  1.0000
  C   C1972     1.0  0.61259  0.01009  0.56187  1.0000
  C   C1973     1.0  0.70888  0.05438  0.53860  1.0000
  H   H1969     1.0  0.52714  0.99598  0.65095  1.0000
  H   H1970     1.0  0.53303  0.99565  0.83755  1.0000
  H   H1971     1.0  0.57685  0.00581  0.57804  1.0000
  C   C1974     1.0  0.50360  0.03940  0.83349  1.0000
  C   C1975     1.0  0.51741  0.00891  0.57304  1.0000
  S   S662      1.0  0.66890  0.02592  0.48937  1.0000
  H   H1972     1.0  0.53750  0.12089  0.87308  1.0000
  C   C1976     1.0  0.58694  0.00692  0.57354  1.0000
  H   H1973     1.0  0.51137  0.18450  0.91628  1.0000
  H   H1974     1.0  0.53426  0.06928  0.69610  1.0000
  H   H1975     1.0  0.54030  0.00291  0.68762  1.0000
  C   C1977     1.0  0.51147  0.11220  0.97977  1.0000
  C   C1978     1.0  0.58678  0.02511  0.79201  1.0000
  H   H1976     1.0  0.52798  0.03596  0.57330  1.0000
  C   C1979     1.0  0.72973  0.00064  0.53492  1.0000
  C   C1980     1.0  0.71830  0.02337  0.52690  1.0000
  H   H1977     1.0  0.50410  0.07542  0.70726  1.0000
  N   N164      1.0  0.52736  0.99896  0.57757  1.0000
  H   H1978     1.0  0.55497  0.06238  0.67393  1.0000
  H   H1979     1.0  0.51436  0.00468  0.66246  1.0000
  H   H1980     1.0  0.60309  0.03025  0.53781  1.0000
  C   C1981     1.0  0.73544  0.04216  0.53715  1.0000
  Fe  Fe338     1.0  0.54449  0.02772  0.61429  1.0000
  H   H1981     1.0  0.49691  0.23116  0.88046  1.0000
  C   C1982     1.0  0.50872  0.19748  0.88795  1.0000
  H   H1982     1.0  0.64161  0.02385  0.50076  1.0000
  C   C1983     1.0  0.51969  0.01443  0.60859  1.0000
  C   C1984     1.0  0.50303  0.03517  0.82241  1.0000
  C   C1985     1.0  0.54251  0.27138  0.94786  1.0000
  C   C1986     1.0  0.58157  0.03421  0.81530  1.0000
  H   H1983     1.0  0.57393  0.29206  0.90018  1.0000
  C   C1987     1.0  0.54526  0.14414  0.88340  1.0000
  C   C1988     1.0  0.71753  0.99756  0.54221  1.0000
  H   H1984     1.0  0.69848  0.00512  0.48547  1.0000
  H   H1985     1.0  0.57971  0.04564  0.78296  1.0000
  C   C1989     1.0  0.52915  0.01360  0.80974  1.0000
  S   S663      1.0  0.50349  0.18256  0.89085  1.0000
  H   H1986     1.0  0.48914  0.28390  0.91638  1.0000
  H   H1987     1.0  0.55889  0.18604  0.94015  1.0000
  H   H1988     1.0  0.58797  0.01355  0.82490  1.0000
  N   N165      1.0  0.57948  0.04310  0.80362  1.0000
  H   H1989     1.0  0.52734  0.18776  0.89356  1.0000
  C   C1990     1.0  0.58191  0.03870  0.79209  1.0000
  H   H1990     1.0  0.52207  0.21388  0.96606  1.0000
  S   S664      1.0  0.49576  0.01977  0.81045  1.0000
  C   C1991     1.0  0.73603  0.05515  0.49221  1.0000
  H   H1991     1.0  0.61769  0.99154  0.54413  1.0000
  H   H1992     1.0  0.71762  0.06306  0.48562  1.0000
  C   C1992     1.0  0.55906  0.98639  0.82373  1.0000
  C   C1993     1.0  0.50793  0.08624  0.96448  1.0000
  C   C1994     1.0  0.49786  0.03330  0.84645  1.0000
  H   H1993     1.0  0.69841  0.05876  0.53900  1.0000
  C   C1995     1.0  0.52830  0.00295  0.79290  1.0000
  C   C1996     1.0  0.71850  0.06037  0.52897  1.0000
  H   H1994     1.0  0.49858  0.04475  0.60356  1.0000
  C   C1997     1.0  0.54964  0.28875  0.95824  1.0000
  H   H1995     1.0  0.55717  0.18604  0.96341  1.0000
  S   S665      1.0  0.54617  0.00676  0.62589  1.0000
  C   C1998     1.0  0.54840  0.05184  0.66344  1.0000
  H   H1996     1.0  0.71271  0.03110  0.49968  1.0000
  H   H1997     1.0  0.52440  0.28633  0.94643  1.0000
  H   H1998     1.0  0.70521  0.03753  0.55456  1.0000
  H   H1999     1.0  0.57031  0.25672  0.93946  1.0000
  C   C1999     1.0  0.49724  0.05108  0.69701  1.0000
  H   H2000     1.0  0.59319  0.00011  0.59234  1.0000
  N   N166      1.0  0.51515  0.05666  0.89610  1.0000
  C   C2000     1.0  0.73008  0.01356  0.52722  1.0000
  H   H2001     1.0  0.54898  0.05676  0.69960  1.0000
  N   N167      1.0  0.72593  0.03618  0.54635  1.0000
  H   H2002     1.0  0.73460  0.01536  0.49821  1.0000
  H   H2003     1.0  0.60307  0.01479  0.53382  1.0000
  C   C2001     1.0  0.51873  0.00479  0.65169  1.0000
  C   C2002     1.0  0.55262  0.29731  0.90549  1.0000
  S   S666      1.0  0.55500  0.03315  0.62693  1.0000
  H   H2004     1.0  0.52390  0.09112  0.96924  1.0000
  C   C2003     1.0  0.57046  0.14764  0.94855  1.0000
  S   S667      1.0  0.64730  0.01399  0.52618  1.0000
  H   H2005     1.0  0.51423  0.15962  0.87856  1.0000
  H   H2006     1.0  0.51428  0.07801  0.96007  1.0000
  C   C2004     1.0  0.55550  0.17570  0.96643  1.0000
  S   S668      1.0  0.55080  0.00353  0.65975  1.0000
  H   H2007     1.0  0.56739  0.12565  0.87401  1.0000
  Fe  Fe339     1.0  0.66342  0.02335  0.51180  1.0000
  C   C2005     1.0  0.50576  0.09905  0.92340  1.0000
  H   H2008     1.0  0.58350  0.01478  0.55362  1.0000
  C   C2006     1.0  0.51758  0.02235  0.57123  1.0000
  C   C2007     1.0  0.56246  0.17527  0.94257  1.0000
  C   C2008     1.0  0.52474  0.13997  0.87526  1.0000
  H   H2009     1.0  0.49093  0.21002  0.88191  1.0000
  C   C2009     1.0  0.70612  0.02030  0.53424  1.0000
  C   C2010     1.0  0.49762  0.04106  0.70871  1.0000
  C   C2011     1.0  0.50353  0.22172  0.88347  1.0000
  C   C2012     1.0  0.51333  0.09375  0.96958  1.0000
  H   H2010     1.0  0.53130  0.98600  0.70448  1.0000
  N   N168      1.0  0.50544  0.10440  0.97476  1.0000
  C   C2013     1.0  0.49503  0.10608  0.93150  1.0000
  C   C2014     1.0  0.52387  0.05656  0.90452  1.0000
  H   H2011     1.0  0.53251  0.02246  0.78854  1.0000
  C   C2015     1.0  0.51096  0.04532  0.89736  1.0000
  C   C2016     1.0  0.49957  0.01610  0.64163  1.0000
  H   H2012     1.0  0.57925  0.03754  0.82459  1.0000
  C   C2017     1.0  0.65166  0.98899  0.50563  1.0000
  C   C2018     1.0  0.53736  0.29224  0.95476  1.0000
  C   C2019     1.0  0.49435  0.08958  0.96492  1.0000
  H   H2013     1.0  0.55806  0.24762  0.95008  1.0000
  C   C2020     1.0  0.49759  0.07616  0.81688  1.0000
  S   S669      1.0  0.48899  0.07413  0.91464  1.0000
  H   H2014     1.0  0.49922  0.07129  0.68750  1.0000
  C   C2021     1.0  0.71875  0.99853  0.48780  1.0000
  H   H2015     1.0  0.55918  0.99254  0.78615  1.0000
  C   C2022     1.0  0.51226  0.00669  0.60641  1.0000
  C   C2023     1.0  0.53815  0.01539  0.57866  1.0000
  C   C2024     1.0  0.49056  0.03485  0.77664  1.0000
  C   C2025     1.0  0.52421  0.99208  0.81634  1.0000
  C   C2026     1.0  0.49934  0.19446  0.93812  1.0000
  H   H2016     1.0  0.52936  0.06472  0.90006  1.0000
  H   H2017     1.0  0.52901  0.00305  0.78252  1.0000
  C   C2027     1.0  0.53028  0.01383  0.79627  1.0000
  C   C2028     1.0  0.51425  0.21696  0.97428  1.0000
  C   C2029     1.0  0.49156  0.08596  0.92156  1.0000
  H   H2018     1.0  0.54464  0.17625  0.96898  1.0000
  H   H2019     1.0  0.48962  0.29812  0.95759  1.0000
  C   C2030     1.0  0.54541  0.98841  0.72891  1.0000
  C   C2031     1.0  0.71430  0.02189  0.49646  1.0000
  H   H2020     1.0  0.51781  0.05800  0.91454  1.0000
  H   H2021     1.0  0.50045  0.02546  0.64299  1.0000
  C   C2032     1.0  0.52450  0.00276  0.83372  1.0000
  H   H2022     1.0  0.50079  0.27841  0.90229  1.0000
  H   H2023     1.0  0.50893  0.00649  0.57140  1.0000
  H   H2024     1.0  0.71559  0.06959  0.52191  1.0000
  H   H2025     1.0  0.49957  0.22618  0.96225  1.0000
  H   H2026     1.0  0.55381  0.99920  0.77065  1.0000
  C   C2033     1.0  0.73188  0.05432  0.52833  1.0000
  H   H2027     1.0  0.49853  0.07791  0.87313  1.0000
  C   C2034     1.0  0.52800  0.02559  0.57413  1.0000
  C   C2035     1.0  0.49727  0.99228  0.63792  1.0000
  H   H2028     1.0  0.50649  0.19963  0.93008  1.0000
  H   H2029     1.0  0.50165  0.19393  0.94781  1.0000
  H   H2030     1.0  0.51436  0.03618  0.90423  1.0000
  H   H2031     1.0  0.51941  0.11612  0.97176  1.0000
  C   C2036     1.0  0.49210  0.06968  0.81079  1.0000
  H   H2032     1.0  0.49957  0.25903  0.89646  1.0000
  C   C2037     1.0  0.49210  0.10771  0.97529  1.0000
  H   H2033     1.0  0.73374  0.06205  0.49867  1.0000
  C   C2038     1.0  0.50209  0.04542  0.88991  1.0000
  H   H2034     1.0  0.67116  0.99268  0.50149  1.0000
  H   H2035     1.0  0.48918  0.20058  0.93782  1.0000
  H   H2036     1.0  0.51518  0.99976  0.83983  1.0000
  H   H2037     1.0  0.49875  0.03646  0.89083  1.0000
  H   H2038     1.0  0.49187  0.03765  0.78512  1.0000
  H   H2039     1.0  0.50031  0.31380  0.95936  1.0000
  H   H2040     1.0  0.49591  0.03144  0.70918  1.0000
  S   S670      1.0  0.49503  0.04771  0.68270  1.0000
  H   H2041     1.0  0.49660  0.08184  0.83495  1.0000
  C   C2039     1.0  0.49230  0.07674  0.83034  1.0000
  H   H2042     1.0  0.49710  0.00798  0.76284  1.0000
  S   S671      1.0  0.49539  0.00908  0.69897  1.0000
  C   C2040     1.0  0.49028  0.01926  0.83720  1.0000
  S   S672      1.0  0.55206  0.31443  0.89844  1.0000
  H   H2043     1.0  0.48909  0.17512  0.95617  1.0000
  H   H2044     1.0  0.64957  0.98922  0.51611  1.0000
  C   C2041     1.0  0.64493  0.98679  0.48675  1.0000
  H   H2045     1.0  0.55283  0.31867  0.98106  1.0000
  H   H2046     1.0  0.49044  0.05744  0.87559  1.0000
  H   H2047     1.0  0.49004  0.08398  0.96085  1.0000
  N   N169      1.0  0.66656  0.99070  0.48402  1.0000
  C   C2042     1.0  0.49350  0.01819  0.76415  1.0000
  C   C2043     1.0  0.64217  0.98685  0.50033  1.0000
  H   H2048     1.0  0.55605  0.98659  0.70891  1.0000
  C   C2044     1.0  0.48910  0.01598  0.63637  1.0000
  S   S673      1.0  0.49149  0.00273  0.59925  1.0000
  C   C2045     1.0  0.72694  0.05576  0.48478  1.0000
  H   H2049     1.0  0.72039  0.98947  0.48427  1.0000
  H   H2050     1.0  0.60806  0.56598  0.00606  1.0000
  S   S674      1.0  0.63859  0.41671  0.01462  1.0000
  C   C2046     1.0  0.63239  0.60631  0.02400  1.0000
  Fe  Fe340     1.0  0.63048  0.45560  0.00790  1.0000
  S   S675      1.0  0.62377  0.44276  0.02804  1.0000
  S   S676      1.0  0.62457  0.47814  0.00388  1.0000
  Fe  Fe341     1.0  0.64435  0.43005  0.02389  1.0000
  S   S677      1.0  0.65623  0.42074  0.03976  1.0000
  Fe  Fe342     1.0  0.61855  0.43065  0.01677  1.0000
  S   S678      1.0  0.59866  0.42476  0.02267  1.0000
  S   S679      1.0  0.65147  0.44373  0.00460  1.0000
  S   S680      1.0  0.62351  0.44472  0.99696  1.0000
  C   C2047     1.0  0.48797  0.62249  0.01191  1.0000
  S   S681      1.0  0.71708  0.44710  0.02626  1.0000
  S   S682      1.0  0.71871  0.41092  0.02364  1.0000
  Fe  Fe343     1.0  0.56025  0.63680  0.98507  1.0000
  Fe  Fe344     1.0  0.54453  0.36747  0.01239  1.0000
  C   C2048     1.0  0.51083  0.36026  0.99401  1.0000
  Fe  Fe345     1.0  0.66817  0.55297  0.01169  1.0000
  S   S683      1.0  0.65445  0.54031  0.02587  1.0000
  S   S684      1.0  0.68336  0.55582  0.02078  1.0000
  H   H2051     1.0  0.56272  0.32657  0.05700  1.0000
  S   S685      1.0  0.64058  0.54448  0.00115  1.0000
  C   C2049     1.0  0.58816  0.39744  0.98511  1.0000
  Fe  Fe346     1.0  0.63849  0.55568  0.01673  1.0000
  S   S686      1.0  0.61833  0.56233  0.02958  1.0000
  Fe  Fe347     1.0  0.65791  0.53041  0.00887  1.0000
  S   S687      1.0  0.66419  0.50803  0.01105  1.0000
  S   S688      1.0  0.65194  0.56919  0.00382  1.0000
  S   S689      1.0  0.67291  0.54193  0.99533  1.0000
  Fe  Fe348     1.0  0.56781  0.63157  0.01130  1.0000
  C   C2050     1.0  0.60803  0.53531  0.99385  1.0000
  S   S690      1.0  0.58582  0.62191  0.02043  1.0000
  H   H2052     1.0  0.59929  0.37158  0.98768  1.0000
  C   C2051     1.0  0.59304  0.38556  0.01746  1.0000
  S   S691      1.0  0.55792  0.32002  0.03298  1.0000
  N   N170      1.0  0.60992  0.55813  0.98919  1.0000
  Fe  Fe349     1.0  0.72723  0.45661  0.00591  1.0000
  C   C2052     1.0  0.61941  0.60867  0.03153  1.0000
  H   H2053     1.0  0.65090  0.59200  0.02104  1.0000
  C   C2053     1.0  0.63848  0.46680  0.04129  1.0000
  H   H2054     1.0  0.51682  0.32590  0.03224  1.0000
  H   H2055     1.0  0.60113  0.34757  0.03566  1.0000
  H   H2056     1.0  0.61762  0.40110  0.01517  1.0000
  H   H2057     1.0  0.73253  0.49030  0.06914  1.0000
  H   H2058     1.0  0.64841  0.56971  0.04965  1.0000
  C   C2054     1.0  0.69389  0.47543  0.98400  1.0000
  S   S692      1.0  0.48846  0.35371  0.99350  1.0000
  C   C2055     1.0  0.64542  0.45368  0.04500  1.0000
  C   C2056     1.0  0.64082  0.59376  0.02695  1.0000
  S   S693      1.0  0.59136  0.37003  0.01608  1.0000
  C   C2057     1.0  0.51301  0.37130  0.01008  1.0000
  C   C2058     1.0  0.60588  0.54566  0.01198  1.0000
  H   H2059     1.0  0.73153  0.54285  0.01572  1.0000
  S   S694      1.0  0.51865  0.63044  0.02121  1.0000
  C   C2059     1.0  0.50905  0.62646  0.01251  1.0000
  C   C2060     1.0  0.50591  0.62262  0.99232  1.0000
  H   H2060     1.0  0.52392  0.62632  0.99428  1.0000
  C   C2061     1.0  0.50598  0.32620  0.01140  1.0000
  Fe  Fe350     1.0  0.57331  0.36457  0.01377  1.0000
  N   N171      1.0  0.68819  0.41635  0.99452  1.0000
  C   C2062     1.0  0.71837  0.49892  0.02627  1.0000
  H   H2061     1.0  0.70830  0.54773  0.02859  1.0000
  C   C2063     1.0  0.60772  0.39967  0.01669  1.0000
  H   H2062     1.0  0.61259  0.61821  0.02912  1.0000
  H   H2063     1.0  0.66429  0.44090  0.04738  1.0000
  H   H2064     1.0  0.71038  0.39316  0.01083  1.0000
  H   H2065     1.0  0.62800  0.46889  0.04136  1.0000
  S   S695      1.0  0.58000  0.34536  0.00649  1.0000
  H   H2066     1.0  0.69433  0.55845  0.99218  1.0000
  H   H2067     1.0  0.68209  0.46058  0.04746  1.0000
  C   C2064     1.0  0.51396  0.62522  0.99921  1.0000
  H   H2068     1.0  0.72735  0.49344  0.02973  1.0000
  C   C2065     1.0  0.60850  0.57850  0.02518  1.0000
  C   C2066     1.0  0.59588  0.58191  0.03324  1.0000
  C   C2067     1.0  0.58828  0.59505  0.03095  1.0000
  C   C2068     1.0  0.59324  0.60491  0.02053  1.0000
  C   C2069     1.0  0.60563  0.60136  0.01204  1.0000
  C   C2070     1.0  0.61323  0.58816  0.01430  1.0000
  H   H2069     1.0  0.59213  0.57449  0.04164  1.0000
  H   H2070     1.0  0.57888  0.59773  0.03772  1.0000
  H   H2071     1.0  0.60966  0.60900  0.00414  1.0000
  H   H2072     1.0  0.62296  0.58565  0.00801  1.0000
  C   C2071     1.0  0.69975  0.55313  0.01128  1.0000
  C   C2072     1.0  0.71030  0.54893  0.01785  1.0000
  C   C2073     1.0  0.72345  0.54622  0.01056  1.0000
  C   C2074     1.0  0.72613  0.54834  0.99660  1.0000
  C   C2075     1.0  0.49608  0.62491  0.01889  1.0000
  C   C2076     1.0  0.70241  0.55501  0.99734  1.0000
  Fe  Fe351     1.0  0.64387  0.43161  0.99563  1.0000
  H   H2073     1.0  0.72644  0.46910  0.07061  1.0000
  H   H2074     1.0  0.60455  0.54515  0.02258  1.0000
  H   H2075     1.0  0.53194  0.32953  0.02126  1.0000
  H   H2076     1.0  0.66394  0.48244  0.03331  1.0000
  H   H2077     1.0  0.64034  0.44548  0.04819  1.0000
  Fe  Fe352     1.0  0.56138  0.33994  0.02016  1.0000
  H   H2078     1.0  0.52865  0.36568  0.99374  1.0000
  H   H2079     1.0  0.69842  0.43319  0.01372  1.0000
  H   H2080     1.0  0.61355  0.41090  0.98435  1.0000
  H   H2081     1.0  0.63051  0.41705  0.99132  1.0000
  H   H2082     1.0  0.63582  0.61412  0.01582  1.0000
  H   H2083     1.0  0.52716  0.59988  0.98849  1.0000
  H   H2084     1.0  0.68466  0.44785  0.03832  1.0000
  H   H2085     1.0  0.66745  0.41726  0.99895  1.0000
  C   C2077     1.0  0.52118  0.33085  0.02193  1.0000
  H   H2086     1.0  0.49527  0.37601  0.02504  1.0000
  S   S696      1.0  0.57145  0.64702  0.99220  1.0000
  C   C2078     1.0  0.58206  0.39572  0.02069  1.0000
  C   C2079     1.0  0.49750  0.36054  0.00028  1.0000
  Fe  Fe353     1.0  0.56730  0.35629  0.99179  1.0000
  C   C2080     1.0  0.73318  0.47321  0.06177  1.0000
  H   H2087     1.0  0.64025  0.56256  0.04155  1.0000
  S   S697      1.0  0.73329  0.45207  0.05209  1.0000
  C   C2081     1.0  0.63604  0.48671  0.00453  1.0000
  C   C2082     1.0  0.64929  0.48030  0.00449  1.0000
  C   C2083     1.0  0.65805  0.48717  0.00579  1.0000
  C   C2084     1.0  0.65358  0.50044  0.00727  1.0000
  C   C2085     1.0  0.64045  0.50701  0.00681  1.0000
  C   C2086     1.0  0.63173  0.50017  0.00535  1.0000
  H   H2088     1.0  0.65277  0.47001  0.00368  1.0000
  H   H2089     1.0  0.66819  0.48203  0.00612  1.0000
  H   H2090     1.0  0.63690  0.51721  0.00797  1.0000
  H   H2091     1.0  0.62153  0.50518  0.00523  1.0000
  C   C2087     1.0  0.59676  0.40975  0.02019  1.0000
  C   C2088     1.0  0.58394  0.40773  0.02214  1.0000
  C   C2089     1.0  0.50335  0.32057  0.00231  1.0000
  H   H2092     1.0  0.57542  0.41549  0.02485  1.0000
  H   H2093     1.0  0.56249  0.34854  0.06069  1.0000
  C   C2090     1.0  0.67355  0.41877  0.03513  1.0000
  C   C2091     1.0  0.68128  0.40785  0.04233  1.0000
  C   C2092     1.0  0.69511  0.40576  0.03894  1.0000
  C   C2093     1.0  0.70134  0.41487  0.02868  1.0000
  C   C2094     1.0  0.69363  0.42617  0.02176  1.0000
  C   C2095     1.0  0.67971  0.42800  0.02483  1.0000
  H   H2094     1.0  0.67657  0.40080  0.05040  1.0000
  H   H2095     1.0  0.70102  0.39702  0.04429  1.0000
  H   H2096     1.0  0.68996  0.38493  0.02337  1.0000
  H   H2097     1.0  0.63985  0.48746  0.03446  1.0000
  C   C2096     1.0  0.60786  0.55746  0.00259  1.0000
  N   N172      1.0  0.63637  0.58378  0.03702  1.0000
  S   S698      1.0  0.54872  0.64474  0.02020  1.0000
  S   S699      1.0  0.54940  0.34896  0.00460  1.0000
  H   H2098     1.0  0.69837  0.49660  0.00770  1.0000
  N   N173      1.0  0.71162  0.51078  0.02979  1.0000
  C   C2097     1.0  0.70033  0.51776  0.02534  1.0000
  C   C2098     1.0  0.69541  0.51277  0.01735  1.0000
  C   C2099     1.0  0.71675  0.51604  0.03815  1.0000
  H   H2099     1.0  0.69497  0.52721  0.02804  1.0000
  H   H2100     1.0  0.68636  0.51822  0.01400  1.0000
  C   C2100     1.0  0.59279  0.34287  0.04066  1.0000
  C   C2101     1.0  0.51850  0.36569  0.99884  1.0000
  S   S700      1.0  0.54061  0.65008  0.99150  1.0000
  C   C2102     1.0  0.67692  0.41187  0.00136  1.0000
  S   S701      1.0  0.56157  0.37579  0.99805  1.0000
  H   H2101     1.0  0.67378  0.43658  0.01935  1.0000
  C   C2103     1.0  0.62366  0.58602  0.04446  1.0000
  S   S702      1.0  0.55779  0.62044  0.00349  1.0000
  Fe  Fe354     1.0  0.53894  0.63479  0.01070  1.0000
  C   C2104     1.0  0.49961  0.37164  0.01636  1.0000
  H   H2102     1.0  0.71906  0.48414  0.01565  1.0000
  C   C2105     1.0  0.61501  0.59848  0.04185  1.0000
  N   N174      1.0  0.66560  0.46133  0.03987  1.0000
  H   H2103     1.0  0.72582  0.51970  0.03226  1.0000
  H   H2104     1.0  0.68477  0.46468  0.02934  1.0000
  H   H2105     1.0  0.65441  0.56935  0.03219  1.0000
  H   H2106     1.0  0.60487  0.52518  0.01467  1.0000
  H   H2107     1.0  0.60480  0.60011  0.04744  1.0000
  H   H2108     1.0  0.68854  0.48333  0.98927  1.0000
  N   N175      1.0  0.58191  0.34918  0.04868  1.0000
  C   C2106     1.0  0.59317  0.33048  0.03840  1.0000
  C   C2107     1.0  0.71374  0.49363  0.01829  1.0000
  S   S703      1.0  0.55565  0.35809  0.02895  1.0000
  C   C2108     1.0  0.65879  0.47428  0.03673  1.0000
  H   H2109     1.0  0.59720  0.39574  0.98896  1.0000
  C   C2109     1.0  0.71560  0.55293  0.98999  1.0000
  C   C2110     1.0  0.65902  0.45113  0.04439  1.0000
  C   C2111     1.0  0.60585  0.38759  0.01546  1.0000
  H   H2110     1.0  0.61440  0.37979  0.01293  1.0000
  C   C2112     1.0  0.70098  0.39812  0.00796  1.0000
  C   C2113     1.0  0.64531  0.57073  0.04025  1.0000
  H   H2111     1.0  0.57215  0.39429  0.02226  1.0000
  C   C2114     1.0  0.70216  0.50061  0.01383  1.0000
  C   C2115     1.0  0.64513  0.47721  0.03740  1.0000
  S   S704      1.0  0.52287  0.37774  0.01635  1.0000
  H   H2112     1.0  0.62004  0.57802  0.05223  1.0000
  Fe  Fe355     1.0  0.73538  0.44678  0.03252  1.0000
  C   C2116     1.0  0.67997  0.45848  0.03873  1.0000
  H   H2113     1.0  0.60164  0.32568  0.03175  1.0000
  H   H2114     1.0  0.66832  0.39726  0.01748  1.0000
  C   C2117     1.0  0.49186  0.36619  0.01151  1.0000
  H   H2115     1.0  0.70938  0.52440  0.04214  1.0000
  S   S705      1.0  0.71434  0.47405  0.99493  1.0000
  C   C2118     1.0  0.68951  0.39354  0.01504  1.0000
  H   H2116     1.0  0.71935  0.50811  0.04691  1.0000
  C   C2119     1.0  0.58122  0.36255  0.05032  1.0000
  C   C2120     1.0  0.57127  0.34338  0.05465  1.0000
  H   H2117     1.0  0.57767  0.36313  0.06103  1.0000
  C   C2121     1.0  0.70011  0.40972  0.99778  1.0000
  H   H2118     1.0  0.57437  0.37011  0.04439  1.0000
  Fe  Fe356     1.0  0.65536  0.55679  0.98876  1.0000
  N   N176      1.0  0.51874  0.32509  0.01211  1.0000
  Fe  Fe357     1.0  0.72840  0.42795  0.02024  1.0000
  C   C2122     1.0  0.67738  0.40046  0.01175  1.0000
  C   C2123     1.0  0.70688  0.46900  0.98512  1.0000
  H   H2119     1.0  0.59105  0.36530  0.04665  1.0000
  H   H2120     1.0  0.68454  0.43752  0.98921  1.0000
  C   C2124     1.0  0.49290  0.62137  0.99856  1.0000
  C   C2125     1.0  0.60609  0.53448  0.00754  1.0000
  C   C2126     1.0  0.73495  0.50342  0.98599  1.0000
  H   H2121     1.0  0.51671  0.34174  0.02027  1.0000
  C   C2127     1.0  0.57133  0.33097  0.05264  1.0000
  H   H2122     1.0  0.60839  0.52666  0.99019  1.0000
  H   H2123     1.0  0.49226  0.62572  0.02923  1.0000
  H   H2124     1.0  0.54916  0.60008  0.99149  1.0000
  H   H2125     1.0  0.57999  0.39465  0.99360  1.0000
  H   H2126     1.0  0.49775  0.33167  0.01774  1.0000
  H   H2127     1.0  0.73095  0.52215  0.99181  1.0000
  C   C2128     1.0  0.73668  0.48515  0.06097  1.0000
  C   C2129     1.0  0.72840  0.51667  0.98609  1.0000
  H   H2128     1.0  0.49321  0.32162  0.00169  1.0000
  C   C2130     1.0  0.60981  0.54733  0.98479  1.0000
  C   C2131     1.0  0.68728  0.42889  0.98435  1.0000
  C   C2132     1.0  0.58235  0.32452  0.04444  1.0000
  H   H2129     1.0  0.70897  0.41359  0.99282  1.0000
  H   H2130     1.0  0.51527  0.35576  0.98541  1.0000
  H   H2131     1.0  0.56643  0.33186  0.98490  1.0000
  Fe  Fe358     1.0  0.61396  0.41173  0.93691  1.0000
  S   S706      1.0  0.62378  0.39436  0.92734  1.0000
  S   S707      1.0  0.61165  0.40868  0.95895  1.0000
  Fe  Fe359     1.0  0.60820  0.43035  0.91123  1.0000
  S   S708      1.0  0.61744  0.41428  0.89934  1.0000
  S   S709      1.0  0.60174  0.45230  0.90225  1.0000
  Fe  Fe360     1.0  0.60660  0.40101  0.91706  1.0000
  S   S710      1.0  0.59829  0.38292  0.91895  1.0000
  Fe  Fe361     1.0  0.63357  0.40900  0.91077  1.0000
  S   S711      1.0  0.65539  0.40497  0.90104  1.0000
  S   S712      1.0  0.59610  0.41761  0.92798  1.0000
  S   S713      1.0  0.62511  0.42582  0.92124  1.0000
  Fe  Fe362     1.0  0.51354  0.34372  0.92392  1.0000
  S   S714      1.0  0.52832  0.34885  0.90470  1.0000
  H   H2132     1.0  0.49014  0.65195  0.90240  1.0000
  C   C2133     1.0  0.67326  0.41403  0.92545  1.0000
  C   C2134     1.0  0.54215  0.38972  0.94007  1.0000
  H   H2133     1.0  0.71346  0.53315  0.97870  1.0000
  Fe  Fe363     1.0  0.53817  0.35590  0.91677  1.0000
  S   S715      1.0  0.54499  0.37562  0.90967  1.0000
  Fe  Fe364     1.0  0.72713  0.51998  0.92888  1.0000
  S   S716      1.0  0.52215  0.35268  0.93533  1.0000
  H   H2134     1.0  0.52597  0.37405  0.96943  1.0000
  Fe  Fe365     1.0  0.62451  0.50399  0.92624  1.0000
  S   S717      1.0  0.64042  0.50637  0.93456  1.0000
  S   S718      1.0  0.62142  0.48295  0.93302  1.0000
  Fe  Fe366     1.0  0.61685  0.53386  0.91482  1.0000
  S   S719      1.0  0.63210  0.53873  0.92229  1.0000
  S   S720      1.0  0.60365  0.54970  0.90230  1.0000
  Fe  Fe367     1.0  0.64570  0.52071  0.91526  1.0000
  S   S721      1.0  0.66713  0.52022  0.90490  1.0000
  Fe  Fe368     1.0  0.62558  0.52392  0.94091  1.0000
  S   S722      1.0  0.62439  0.52501  0.96175  1.0000
  S   S723      1.0  0.63106  0.51685  0.90608  1.0000
  S   S724      1.0  0.60908  0.52058  0.93426  1.0000
  Fe  Fe369     1.0  0.54196  0.60711  0.91920  1.0000
  S   S725      1.0  0.54611  0.62683  0.91812  1.0000
  S   S726      1.0  0.55395  0.58837  0.93035  1.0000
  Fe  Fe370     1.0  0.51673  0.62028  0.90864  1.0000
  S   S727      1.0  0.51884  0.64112  0.90657  1.0000
  S   S728      1.0  0.49850  0.61899  0.90297  1.0000
  Fe  Fe371     1.0  0.54031  0.63349  0.89837  1.0000
  H   H2135     1.0  0.56296  0.64423  0.93706  1.0000
  Fe  Fe372     1.0  0.52436  0.63309  0.92636  1.0000
  C   C2135     1.0  0.54209  0.64558  0.93935  1.0000
  S   S729      1.0  0.53796  0.61311  0.89841  1.0000
  S   S730      1.0  0.52047  0.61290  0.92937  1.0000
  Fe  Fe373     1.0  0.72999  0.43229  0.93356  1.0000
  C   C2136     1.0  0.64405  0.42124  0.95793  1.0000
  S   S731      1.0  0.70523  0.52574  0.93783  1.0000
  C   C2137     1.0  0.54752  0.60170  0.98151  1.0000
  S   S732      1.0  0.73415  0.49967  0.92430  1.0000
  C   C2138     1.0  0.59675  0.37617  0.97801  1.0000
  C   C2139     1.0  0.62342  0.41392  0.96347  1.0000
  H   H2136     1.0  0.71334  0.44788  0.96419  1.0000
  C   C2140     1.0  0.55334  0.63801  0.95772  1.0000
  H   H2137     1.0  0.69356  0.49154  0.94993  1.0000
  H   H2138     1.0  0.67484  0.54843  0.94643  1.0000
  C   C2141     1.0  0.66718  0.55498  0.92300  1.0000
  H   H2139     1.0  0.54130  0.63199  0.97713  1.0000
  N   N177      1.0  0.67888  0.55552  0.92528  1.0000
  C   C2142     1.0  0.58726  0.39517  0.96305  1.0000
  C   C2143     1.0  0.53303  0.60418  0.96693  1.0000
  H   H2140     1.0  0.65732  0.55300  0.90878  1.0000
  H   H2141     1.0  0.63818  0.48943  0.97484  1.0000
  C   C2144     1.0  0.69954  0.48879  0.91815  1.0000
  C   C2145     1.0  0.59963  0.36836  0.96857  1.0000
  H   H2142     1.0  0.56255  0.38640  0.96058  1.0000
  C   C2146     1.0  0.59077  0.56129  0.91011  1.0000
  C   C2147     1.0  0.58719  0.55943  0.92407  1.0000
  C   C2148     1.0  0.57605  0.56803  0.93011  1.0000
  C   C2149     1.0  0.56850  0.57862  0.92226  1.0000
  C   C2150     1.0  0.57232  0.58074  0.90829  1.0000
  C   C2151     1.0  0.58341  0.57206  0.90225  1.0000
  H   H2143     1.0  0.59281  0.55119  0.93020  1.0000
  H   H2144     1.0  0.57315  0.56635  0.94091  1.0000
  H   H2145     1.0  0.56659  0.58889  0.90216  1.0000
  H   H2146     1.0  0.58617  0.57359  0.89144  1.0000
  C   C2152     1.0  0.67776  0.52076  0.91455  1.0000
  C   C2153     1.0  0.67305  0.52165  0.92799  1.0000
  C   C2154     1.0  0.68161  0.52286  0.93520  1.0000
  C   C2155     1.0  0.69492  0.52307  0.92905  1.0000
  C   C2156     1.0  0.69974  0.52168  0.91578  1.0000
  C   C2157     1.0  0.69115  0.52066  0.90852  1.0000
  H   H2147     1.0  0.66274  0.52174  0.93273  1.0000
  H   H2148     1.0  0.67784  0.52383  0.94551  1.0000
  H   H2149     1.0  0.71000  0.52180  0.91095  1.0000
  H   H2150     1.0  0.69486  0.51993  0.89814  1.0000
  H   H2151     1.0  0.52078  0.63734  0.96892  1.0000
  C   C2158     1.0  0.63343  0.54812  0.95293  1.0000
  C   C2159     1.0  0.65042  0.53981  0.97068  1.0000
  H   H2152     1.0  0.62661  0.55143  0.94629  1.0000
  S   S733      1.0  0.65474  0.42521  0.97654  1.0000
  H   H2153     1.0  0.55273  0.36512  0.88131  1.0000
  N   N178      1.0  0.72215  0.50275  0.97110  1.0000
  H   H2154     1.0  0.58935  0.37064  0.89259  1.0000
  C   C2160     1.0  0.63973  0.45850  0.96209  1.0000
  S   S734      1.0  0.49124  0.34833  0.92711  1.0000
  C   C2161     1.0  0.48822  0.60860  0.91427  1.0000
  H   H2155     1.0  0.66371  0.48367  0.93010  1.0000
  C   C2162     1.0  0.61321  0.57019  0.97954  1.0000
  H   H2156     1.0  0.65895  0.47198  0.97259  1.0000
  H   H2157     1.0  0.67748  0.55241  0.89045  1.0000
  N   N179      1.0  0.59080  0.38944  0.97511  1.0000
  H   H2158     1.0  0.56724  0.60429  0.97159  1.0000
  S   S735      1.0  0.56755  0.63427  0.96394  1.0000
  H   H2159     1.0  0.56118  0.36025  0.94826  1.0000
  C   C2163     1.0  0.60502  0.46206  0.91130  1.0000
  C   C2164     1.0  0.60641  0.45658  0.92450  1.0000
  C   C2165     1.0  0.61112  0.46332  0.93109  1.0000
  C   C2166     1.0  0.61423  0.47576  0.92465  1.0000
  C   C2167     1.0  0.61227  0.48164  0.91164  1.0000
  C   C2168     1.0  0.60763  0.47478  0.90497  1.0000
  H   H2160     1.0  0.60401  0.44699  0.92962  1.0000
  H   H2161     1.0  0.61251  0.45875  0.94118  1.0000
  H   H2162     1.0  0.61475  0.49120  0.90657  1.0000
  H   H2163     1.0  0.60660  0.47906  0.89473  1.0000
  C   C2169     1.0  0.58302  0.38151  0.91685  1.0000
  C   C2170     1.0  0.57930  0.36914  0.92203  1.0000
  C   C2171     1.0  0.56773  0.36718  0.91988  1.0000
  C   C2172     1.0  0.55967  0.37763  0.91259  1.0000
  C   C2173     1.0  0.56331  0.39006  0.90748  1.0000
  C   C2174     1.0  0.57491  0.39202  0.90962  1.0000
  H   H2164     1.0  0.58547  0.36095  0.92770  1.0000
  H   H2165     1.0  0.56507  0.35757  0.92390  1.0000
  H   H2166     1.0  0.55715  0.39822  0.90178  1.0000
  H   H2167     1.0  0.57770  0.40157  0.90547  1.0000
  C   C2175     1.0  0.66716  0.40720  0.90843  1.0000
  C   C2176     1.0  0.68063  0.40271  0.90307  1.0000
  S   S736      1.0  0.65435  0.56474  0.96718  1.0000
  H   H2168     1.0  0.68358  0.39819  0.89448  1.0000
  H   H2169     1.0  0.65312  0.41650  0.92380  1.0000
  C   C2177     1.0  0.56214  0.33529  0.97618  1.0000
  H   H2170     1.0  0.65842  0.55488  0.93104  1.0000
  C   C2178     1.0  0.63441  0.41766  0.95396  1.0000
  C   C2179     1.0  0.53350  0.37884  0.96224  1.0000
  H   H2171     1.0  0.63567  0.41750  0.94364  1.0000
  Fe  Fe374     1.0  0.54029  0.32838  0.91198  1.0000
  H   H2172     1.0  0.57566  0.32518  0.89138  1.0000
  C   C2180     1.0  0.69473  0.46165  0.96904  1.0000
  C   C2181     1.0  0.69001  0.55540  0.91518  1.0000
  H   H2173     1.0  0.59829  0.36822  0.94877  1.0000
  H   H2174     1.0  0.71911  0.48759  0.87297  1.0000
  C   C2182     1.0  0.55304  0.39089  0.94402  1.0000
  H   H2175     1.0  0.69753  0.48997  0.89822  1.0000
  Fe  Fe375     1.0  0.71366  0.45045  0.91407  1.0000
  C   C2183     1.0  0.61527  0.48946  0.96987  1.0000
  C   C2184     1.0  0.67986  0.48668  0.91308  1.0000
  H   H2176     1.0  0.70067  0.39925  0.90533  1.0000
  H   H2177     1.0  0.70805  0.52060  0.96542  1.0000
  H   H2178     1.0  0.68968  0.55451  0.93981  1.0000
  C   C2185     1.0  0.70051  0.48815  0.94102  1.0000
  H   H2179     1.0  0.67043  0.41804  0.93433  1.0000
  H   H2180     1.0  0.65999  0.45213  0.96429  1.0000
  H   H2181     1.0  0.70659  0.47808  0.94433  1.0000
  N   N180      1.0  0.69335  0.48770  0.93138  1.0000
  C   C2186     1.0  0.68671  0.40905  0.92036  1.0000
  H   H2182     1.0  0.54685  0.34762  0.94485  1.0000
  C   C2187     1.0  0.66346  0.41298  0.91959  1.0000
  S   S737      1.0  0.68699  0.45730  0.95896  1.0000
  H   H2183     1.0  0.67584  0.48466  0.94623  1.0000
  C   C2188     1.0  0.69033  0.40344  0.90912  1.0000
  H   H2184     1.0  0.51347  0.39179  0.94527  1.0000
  H   H2185     1.0  0.52432  0.38111  0.93427  1.0000
  H   H2186     1.0  0.64455  0.52100  0.97605  1.0000
  C   C2189     1.0  0.52133  0.38253  0.94475  1.0000
  H   H2187     1.0  0.51722  0.37381  0.95113  1.0000
  H   H2188     1.0  0.54137  0.39364  0.92970  1.0000
  C   C2190     1.0  0.70787  0.45545  0.96983  1.0000
  C   C2191     1.0  0.64824  0.55304  0.96341  1.0000
  C   C2192     1.0  0.55121  0.34403  0.95351  1.0000
  C   C2193     1.0  0.63479  0.53521  0.96108  1.0000
  H   H2189     1.0  0.60162  0.35876  0.88390  1.0000
  C   C2194     1.0  0.67378  0.48513  0.92665  1.0000
  C   C2195     1.0  0.68965  0.55446  0.90245  1.0000
  C   C2196     1.0  0.58400  0.34115  0.89205  1.0000
  H   H2190     1.0  0.66471  0.39447  0.97373  1.0000
  H   H2191     1.0  0.70707  0.49535  0.93647  1.0000
  C   C2197     1.0  0.53022  0.64353  0.94837  1.0000
  C   C2198     1.0  0.54143  0.63625  0.96667  1.0000
  H   H2192     1.0  0.57427  0.61178  0.94814  1.0000
  S   S738      1.0  0.69860  0.40655  0.92982  1.0000
  H   H2193     1.0  0.64225  0.44846  0.87710  1.0000
  H   H2194     1.0  0.72516  0.48533  0.96345  1.0000
  C   C2199     1.0  0.56163  0.35831  0.88406  1.0000
  H   H2195     1.0  0.70961  0.49026  0.91469  1.0000
  C   C2200     1.0  0.57141  0.36323  0.88622  1.0000
  H   H2196     1.0  0.61934  0.46716  0.96135  1.0000
  H   H2197     1.0  0.65249  0.42423  0.95060  1.0000
  N   N181      1.0  0.64865  0.44407  0.89526  1.0000
  C   C2201     1.0  0.66205  0.43913  0.89322  1.0000
  C   C2202     1.0  0.64240  0.45183  0.90445  1.0000
  C   C2203     1.0  0.66951  0.44168  0.90070  1.0000
  C   C2204     1.0  0.64950  0.45449  0.91220  1.0000
  C   C2205     1.0  0.66315  0.44933  0.91032  1.0000
  C   C2206     1.0  0.64107  0.44154  0.88709  1.0000
  H   H2198     1.0  0.66700  0.43289  0.88600  1.0000
  H   H2199     1.0  0.63185  0.45589  0.90593  1.0000
  H   H2200     1.0  0.68011  0.43746  0.89929  1.0000
  H   H2201     1.0  0.64438  0.46050  0.91961  1.0000
  H   H2202     1.0  0.66879  0.45117  0.91634  1.0000
  H   H2203     1.0  0.64449  0.43105  0.88581  1.0000
  H   H2204     1.0  0.63032  0.44298  0.89188  1.0000
  N   N182      1.0  0.53271  0.38352  0.94909  1.0000
  H   H2205     1.0  0.57075  0.59902  0.94221  1.0000
  H   H2206     1.0  0.63996  0.44973  0.95875  1.0000
  C   C2207     1.0  0.62808  0.46838  0.96363  1.0000
  C   C2208     1.0  0.66647  0.55399  0.91041  1.0000
  C   C2209     1.0  0.65095  0.45985  0.96522  1.0000
  H   H2207     1.0  0.67449  0.48676  0.90584  1.0000
  N   N183      1.0  0.58076  0.53027  0.91134  1.0000
  C   C2210     1.0  0.57650  0.53995  0.90099  1.0000
  C   C2211     1.0  0.57491  0.53116  0.92433  1.0000
  C   C2212     1.0  0.56600  0.55079  0.90352  1.0000
  C   C2213     1.0  0.56442  0.54189  0.92722  1.0000
  C   C2214     1.0  0.55996  0.55175  0.91673  1.0000
  C   C2215     1.0  0.59187  0.51911  0.90831  1.0000
  H   H2208     1.0  0.58150  0.53955  0.89071  1.0000
  H   H2209     1.0  0.57848  0.52368  0.93255  1.0000
  H   H2210     1.0  0.56292  0.55867  0.89531  1.0000
  H   H2211     1.0  0.56001  0.54278  0.93750  1.0000
  H   H2212     1.0  0.55215  0.56038  0.91882  1.0000
  H   H2213     1.0  0.59406  0.51166  0.91751  1.0000
  H   H2214     1.0  0.58958  0.51382  0.90191  1.0000
  H   H2215     1.0  0.60096  0.52296  0.90292  1.0000
  C   C2216     1.0  0.65232  0.38846  0.96478  1.0000
  H   H2216     1.0  0.56998  0.37394  0.88495  1.0000
  S   S739      1.0  0.69451  0.44511  0.92636  1.0000
  H   H2217     1.0  0.68459  0.39085  0.95524  1.0000
  H   H2218     1.0  0.49830  0.35227  0.96545  1.0000
  C   C2217     1.0  0.55931  0.35121  0.95542  1.0000
  H   H2219     1.0  0.71765  0.55477  0.97917  1.0000
  H   H2220     1.0  0.61123  0.54788  0.97420  1.0000
  C   C2218     1.0  0.54872  0.33236  0.96284  1.0000
  Fe  Fe376     1.0  0.70646  0.42410  0.92963  1.0000
  C   C2219     1.0  0.63864  0.48084  0.97104  1.0000
  H   H2221     1.0  0.67380  0.56620  0.94073  1.0000
  Fe  Fe377     1.0  0.70154  0.44643  0.94375  1.0000
  S   S740      1.0  0.55144  0.33584  0.92221  1.0000
  C   C2220     1.0  0.49168  0.60027  0.92605  1.0000
  N   N184      1.0  0.66252  0.38277  0.94339  1.0000
  C   C2221     1.0  0.65157  0.38465  0.95353  1.0000
  C   C2222     1.0  0.67436  0.38454  0.94416  1.0000
  C   C2223     1.0  0.55434  0.32790  0.97408  1.0000
  C   C2224     1.0  0.67533  0.38880  0.95505  1.0000
  S   S741      1.0  0.55136  0.64684  0.88128  1.0000
  C   C2225     1.0  0.66144  0.37870  0.93176  1.0000
  H   H2222     1.0  0.51086  0.32939  0.96389  1.0000
  H   H2223     1.0  0.68306  0.38315  0.93611  1.0000
  N   N185      1.0  0.58238  0.35466  0.89025  1.0000
  H   H2224     1.0  0.73347  0.46517  0.90822  1.0000
  C   C2226     1.0  0.55771  0.60405  0.97022  1.0000
  H   H2225     1.0  0.67049  0.37909  0.92357  1.0000
  H   H2226     1.0  0.65980  0.36837  0.93472  1.0000
  H   H2227     1.0  0.65305  0.38561  0.92749  1.0000
  C   C2227     1.0  0.66421  0.39080  0.96540  1.0000
  C   C2228     1.0  0.59634  0.37419  0.95613  1.0000
  C   C2229     1.0  0.55373  0.64275  0.94402  1.0000
  H   H2228     1.0  0.63831  0.56737  0.94862  1.0000
  C   C2230     1.0  0.62205  0.41376  0.97693  1.0000
  C   C2231     1.0  0.67935  0.55626  0.93867  1.0000
  C   C2232     1.0  0.64272  0.42095  0.97141  1.0000
  S   S742      1.0  0.57342  0.35675  0.96994  1.0000
  N   N186      1.0  0.55556  0.60645  0.95760  1.0000
  C   C2233     1.0  0.57447  0.33591  0.88982  1.0000
  C   C2234     1.0  0.54343  0.60651  0.95588  1.0000
  H   H2229     1.0  0.50258  0.32637  0.91327  1.0000
  H   H2230     1.0  0.58270  0.40572  0.96068  1.0000
  H   H2231     1.0  0.70831  0.49476  0.96685  1.0000
  C   C2235     1.0  0.56642  0.60844  0.94586  1.0000
  C   C2236     1.0  0.56460  0.34695  0.96685  1.0000
  H   H2232     1.0  0.54172  0.60843  0.94590  1.0000
  H   H2233     1.0  0.50104  0.59977  0.92820  1.0000
  H   H2234     1.0  0.64356  0.39017  0.97270  1.0000
  C   C2237     1.0  0.56324  0.34457  0.88578  1.0000
  S   S743      1.0  0.71483  0.46434  0.89380  1.0000
  C   C2238     1.0  0.69281  0.48854  0.90879  1.0000
  S   S744      1.0  0.72511  0.42928  0.91564  1.0000
  H   H2235     1.0  0.61717  0.49946  0.96874  1.0000
  N   N187      1.0  0.62771  0.47947  0.96786  1.0000
  H   H2236     1.0  0.69860  0.55391  0.89459  1.0000
  Fe  Fe378     1.0  0.53481  0.33219  0.93992  1.0000
  C   C2239     1.0  0.71861  0.52285  0.97873  1.0000
  H   H2237     1.0  0.56074  0.39541  0.93675  1.0000
  S   S745      1.0  0.71238  0.42499  0.94797  1.0000
  H   H2238     1.0  0.58554  0.40833  0.98076  1.0000
  S   S746      1.0  0.52487  0.32280  0.93031  1.0000
  C   C2240     1.0  0.52985  0.63916  0.96203  1.0000
  C   C2241     1.0  0.68068  0.48574  0.93571  1.0000
  H   H2239     1.0  0.58743  0.39220  0.94374  1.0000
  H   H2240     1.0  0.52339  0.60441  0.96546  1.0000
  C   C2242     1.0  0.64344  0.53100  0.96979  1.0000
  C   C2243     1.0  0.64003  0.55712  0.95424  1.0000
  H   H2241     1.0  0.69680  0.42930  0.97692  1.0000
  C   C2244     1.0  0.59006  0.38766  0.95336  1.0000
  H   H2242     1.0  0.69936  0.55555  0.91704  1.0000
  C   C2245     1.0  0.67781  0.55367  0.90011  1.0000
  C   C2246     1.0  0.72507  0.48631  0.88009  1.0000
  H   H2243     1.0  0.55571  0.34061  0.88416  1.0000
  C   C2247     1.0  0.49348  0.34546  0.96371  1.0000
  H   H2244     1.0  0.56275  0.61636  0.93763  1.0000
  C   C2248     1.0  0.71881  0.49558  0.96307  1.0000
  C   C2249     1.0  0.65040  0.47104  0.96980  1.0000
  S   S747      1.0  0.71954  0.45387  0.93125  1.0000
  C   C2250     1.0  0.63167  0.41730  0.98088  1.0000
  C   C2251     1.0  0.55403  0.38594  0.95737  1.0000
  H   H2245     1.0  0.49501  0.63895  0.93196  1.0000
  C   C2252     1.0  0.49467  0.32373  0.96040  1.0000
  C   C2253     1.0  0.54417  0.37997  0.96657  1.0000
  C   C2254     1.0  0.72490  0.47556  0.89121  1.0000
  H   H2246     1.0  0.72022  0.50105  0.95246  1.0000
  H   H2247     1.0  0.72412  0.45443  0.97843  1.0000
  H   H2248     1.0  0.60931  0.48648  0.98013  1.0000
  H   H2249     1.0  0.59561  0.35444  0.90189  1.0000
  C   C2255     1.0  0.68776  0.47163  0.97613  1.0000
  C   C2256     1.0  0.53515  0.60169  0.97982  1.0000
  C   C2257     1.0  0.50066  0.33251  0.96285  1.0000
  C   C2258     1.0  0.73165  0.49657  0.97842  1.0000
  H   H2250     1.0  0.61139  0.57090  0.96958  1.0000
  C   C2259     1.0  0.71559  0.51570  0.97123  1.0000
  H   H2251     1.0  0.59266  0.33433  0.89528  1.0000
  H   H2252     1.0  0.54230  0.64938  0.92877  1.0000
  H   H2253     1.0  0.64211  0.38345  0.95286  1.0000
  H   H2254     1.0  0.54503  0.37589  0.97691  1.0000
  H   H2255     1.0  0.67769  0.47665  0.97540  1.0000
  C   C2260     1.0  0.59275  0.35988  0.89221  1.0000
  H   H2256     1.0  0.60404  0.35776  0.97099  1.0000
  C   C2261     1.0  0.71391  0.45905  0.97798  1.0000
  H   H2257     1.0  0.65715  0.53647  0.97740  1.0000
  S   S748      1.0  0.53854  0.32343  0.96046  1.0000
  C   C2262     1.0  0.49207  0.32685  0.91705  1.0000
  S   S749      1.0  0.51635  0.64451  0.94257  1.0000
  H   H2258     1.0  0.60950  0.49049  0.96233  1.0000
  H   H2259     1.0  0.62389  0.56994  0.97824  1.0000
  H   H2260     1.0  0.48921  0.64277  0.95502  1.0000
  C   C2263     1.0  0.73276  0.47388  0.90024  1.0000
  H   H2261     1.0  0.49842  0.64557  0.88743  1.0000
  H   H2262     1.0  0.73288  0.50390  0.86973  1.0000
  C   C2264     1.0  0.73285  0.49551  0.87825  1.0000
  H   H2263     1.0  0.73665  0.48621  0.97854  1.0000
  H   H2264     1.0  0.67969  0.43001  0.97863  1.0000
  H   H2265     1.0  0.50966  0.62166  0.98204  1.0000
  H   H2266     1.0  0.73642  0.43405  0.96453  1.0000
  H   H2267     1.0  0.60718  0.57935  0.98309  1.0000
  Fe  Fe379     1.0  0.53623  0.87303  0.00973  1.0000
  S   S750      1.0  0.55220  0.86285  0.02149  1.0000
  C   C2265     1.0  0.49960  0.65924  0.99737  1.0000
  Fe  Fe380     1.0  0.51412  0.87079  0.03465  1.0000
  S   S751      1.0  0.52802  0.86120  0.04827  1.0000
  H   H2268     1.0  0.52415  0.87708  0.06825  1.0000
  Fe  Fe381     1.0  0.53994  0.87623  0.03578  1.0000
  S   S752      1.0  0.54923  0.88418  0.04773  1.0000
  Fe  Fe382     1.0  0.53870  0.84881  0.03318  1.0000
  S   S753      1.0  0.54032  0.82697  0.04252  1.0000
  S   S754      1.0  0.52476  0.88724  0.02335  1.0000
  S   S755      1.0  0.52419  0.85774  0.02001  1.0000
  Fe  Fe383     1.0  0.52334  0.95765  0.10775  1.0000
  S   S756      1.0  0.54150  0.94877  0.09400  1.0000
  C   C2266     1.0  0.50753  0.71291  0.99130  1.0000
  Fe  Fe384     1.0  0.51502  0.93095  0.12017  1.0000
  S   S757      1.0  0.53268  0.91987  0.10758  1.0000
  S   S758      1.0  0.49868  0.92191  0.13479  1.0000
  Fe  Fe385     1.0  0.54371  0.93231  0.11239  1.0000
  S   S759      1.0  0.56242  0.92315  0.12002  1.0000
  Fe  Fe386     1.0  0.52843  0.93731  0.09065  1.0000
  S   S760      1.0  0.52435  0.93665  0.07110  1.0000
  S   S761      1.0  0.52625  0.94205  0.12628  1.0000
  S   S762      1.0  0.51000  0.94767  0.10310  1.0000
  Fe  Fe387     1.0  0.54600  0.93510  0.19052  1.0000
  S   S763      1.0  0.54457  0.95548  0.17710  1.0000
  S   S764      1.0  0.55657  0.91697  0.18199  1.0000
  Fe  Fe388     1.0  0.53002  0.94581  0.21541  1.0000
  S   S765      1.0  0.52742  0.96714  0.20378  1.0000
  S   S766      1.0  0.51856  0.94284  0.23691  1.0000
  Fe  Fe389     1.0  0.52346  0.95922  0.18830  1.0000
  S   S767      1.0  0.50663  0.96826  0.17784  1.0000
  Fe  Fe390     1.0  0.54881  0.96110  0.19390  1.0000
  S   S768      1.0  0.56429  0.97300  0.18909  1.0000
  S   S769      1.0  0.52449  0.93831  0.20049  1.0000
  S   S770      1.0  0.55189  0.94037  0.20673  1.0000
  H   H2269     1.0  0.68153  0.96853  0.45764  1.0000
  C   C2267     1.0  0.51374  0.98081  0.33831  1.0000
  Fe  Fe391     1.0  0.59890  0.93160  0.42185  1.0000
  S   S771      1.0  0.60069  0.91672  0.40968  1.0000
  S   S772      1.0  0.59355  0.92766  0.44453  1.0000
  Fe  Fe392     1.0  0.60859  0.95158  0.39709  1.0000
  S   S773      1.0  0.61167  0.93855  0.38297  1.0000
  C   C2268     1.0  0.50612  0.89066  0.06369  1.0000
  Fe  Fe393     1.0  0.59186  0.93431  0.39475  1.0000
  S   S774      1.0  0.57505  0.94024  0.38370  1.0000
  Fe  Fe394     1.0  0.62025  0.92246  0.39894  1.0000
  S   S775      1.0  0.63980  0.90789  0.39491  1.0000
  S   S776      1.0  0.58839  0.94860  0.40807  1.0000
  S   S777      1.0  0.61877  0.93599  0.41202  1.0000
  Fe  Fe395     1.0  0.54119  0.92993  0.30223  1.0000
  S   S778      1.0  0.52417  0.94764  0.30319  1.0000
  S   S779      1.0  0.55018  0.92222  0.28333  1.0000
  Fe  Fe396     1.0  0.54452  0.92755  0.33069  1.0000
  S   S780      1.0  0.52747  0.94505  0.33388  1.0000
  S   S781      1.0  0.55763  0.91520  0.34534  1.0000
  Fe  Fe397     1.0  0.51708  0.93625  0.32394  1.0000
  S   S782      1.0  0.49571  0.93488  0.33251  1.0000
  Fe  Fe398     1.0  0.53622  0.95456  0.31277  1.0000
  S   S783      1.0  0.53990  0.97520  0.30534  1.0000
  S   S784      1.0  0.53337  0.91785  0.32241  1.0000
  S   S785      1.0  0.55394  0.93780  0.31019  1.0000
  H   H2270     1.0  0.66043  0.98014  0.38842  1.0000
  C   C2269     1.0  0.61386  0.94465  0.46657  1.0000
  H   H2271     1.0  0.53993  0.70944  0.98544  1.0000
  H   H2272     1.0  0.48970  0.98138  0.21795  1.0000
  H   H2273     1.0  0.54132  0.72688  0.99568  1.0000
  C   C2270     1.0  0.58534  0.92676  0.32570  1.0000
  H   H2274     1.0  0.58868  0.96290  0.45588  1.0000
  H   H2275     1.0  0.55330  0.67908  0.01792  1.0000
  C   C2271     1.0  0.49293  0.97304  0.27266  1.0000
  H   H2276     1.0  0.60946  0.94171  0.34773  1.0000
  H   H2277     1.0  0.50773  0.86328  0.09294  1.0000
  C   C2272     1.0  0.59647  0.92182  0.34384  1.0000
  H   H2278     1.0  0.70638  0.96646  0.45852  1.0000
  H   H2279     1.0  0.66002  0.96089  0.38007  1.0000
  C   C2273     1.0  0.48847  0.92153  0.07688  1.0000
  C   C2274     1.0  0.61627  0.94788  0.45253  1.0000
  C   C2275     1.0  0.50423  0.89321  0.11460  1.0000
  Fe  Fe399     1.0  0.54538  0.77560  0.00244  1.0000
  C   C2276     1.0  0.49008  0.93794  0.30789  1.0000
  S   S786      1.0  0.55763  0.79007  0.00093  1.0000
  Fe  Fe400     1.0  0.54190  0.74694  0.00895  1.0000
  C   C2277     1.0  0.70423  0.92155  0.47937  1.0000
  C   C2278     1.0  0.51230  0.83941  0.07564  1.0000
  H   H2280     1.0  0.55814  0.95891  0.23105  1.0000
  H   H2281     1.0  0.48885  0.89884  0.01579  1.0000
  C   C2279     1.0  0.49362  0.90668  0.29994  1.0000
  S   S787      1.0  0.53323  0.76369  0.02001  1.0000
  H   H2282     1.0  0.50699  0.69227  0.99431  1.0000
  S   S788      1.0  0.71881  0.93479  0.40269  1.0000
  C   C2280     1.0  0.49950  0.96684  0.07358  1.0000
  C   C2281     1.0  0.66704  0.96138  0.45273  1.0000
  H   H2283     1.0  0.50754  0.91922  0.15823  1.0000
  S   S789      1.0  0.68947  0.93969  0.42355  1.0000
  C   C2282     1.0  0.65493  0.92237  0.40039  1.0000
  H   H2284     1.0  0.65045  0.95595  0.41058  1.0000
  H   H2285     1.0  0.66795  0.96774  0.44271  1.0000
  C   C2283     1.0  0.50119  0.88496  0.00381  1.0000
  C   C2284     1.0  0.58876  0.97820  0.42336  1.0000
  S   S790      1.0  0.54577  0.68137  0.99280  1.0000
  C   C2285     1.0  0.51696  0.70161  0.02960  1.0000
  C   C2286     1.0  0.63373  0.96290  0.40107  1.0000
  H   H2286     1.0  0.57946  0.68236  0.98486  1.0000
  H   H2287     1.0  0.68750  0.98396  0.47913  1.0000
  H   H2288     1.0  0.50369  0.81596  0.00320  1.0000
  S   S791      1.0  0.69069  0.92134  0.46110  1.0000
  C   C2287     1.0  0.57476  0.97669  0.20804  1.0000
  H   H2289     1.0  0.49942  0.94089  0.30336  1.0000
  C   C2288     1.0  0.55017  0.97657  0.31470  1.0000
  C   C2289     1.0  0.55311  0.96626  0.32559  1.0000
  C   C2290     1.0  0.56096  0.96746  0.33342  1.0000
  C   C2291     1.0  0.72760  0.90558  0.46761  1.0000
  C   C2292     1.0  0.67383  0.95356  0.47388  1.0000
  H   H2290     1.0  0.62316  0.88503  0.43732  1.0000
  H   H2291     1.0  0.54917  0.95743  0.32815  1.0000
  H   H2292     1.0  0.56284  0.95972  0.34210  1.0000
  H   H2293     1.0  0.58102  0.92345  0.31948  1.0000
  C   C2293     1.0  0.54143  0.98218  0.10823  1.0000
  C   C2294     1.0  0.56993  0.93264  0.37377  1.0000
  C   C2295     1.0  0.56068  0.94058  0.36609  1.0000
  C   C2296     1.0  0.55665  0.93530  0.35755  1.0000
  C   C2297     1.0  0.56170  0.92194  0.35673  1.0000
  C   C2298     1.0  0.57061  0.91383  0.36477  1.0000
  C   C2299     1.0  0.57484  0.91918  0.37315  1.0000
  H   H2294     1.0  0.55670  0.95095  0.36664  1.0000
  H   H2295     1.0  0.54965  0.94159  0.35158  1.0000
  H   H2296     1.0  0.57442  0.90341  0.36435  1.0000
  H   H2297     1.0  0.58180  0.91289  0.37918  1.0000
  H   H2298     1.0  0.65008  0.93870  0.47336  1.0000
  H   H2299     1.0  0.64584  0.92902  0.40386  1.0000
  S   S792      1.0  0.69469  0.91874  0.39541  1.0000
  S   S793      1.0  0.54875  0.72565  0.01989  1.0000
  C   C2300     1.0  0.66913  0.96166  0.38197  1.0000
  C   C2301     1.0  0.54787  0.71310  0.01270  1.0000
  C   C2302     1.0  0.71628  0.90898  0.46232  1.0000
  S   S794      1.0  0.49629  0.77565  0.01379  1.0000
  H   H2300     1.0  0.49781  0.90317  0.27239  1.0000
  C   C2303     1.0  0.59929  0.93076  0.46692  1.0000
  C   C2304     1.0  0.60160  0.93411  0.45287  1.0000
  C   C2305     1.0  0.61027  0.94256  0.44573  1.0000
  H   H2301     1.0  0.52215  0.70863  0.03094  1.0000
  C   C2306     1.0  0.54666  0.69313  0.00092  1.0000
  N   N188      1.0  0.65846  0.95298  0.45708  1.0000
  H   H2302     1.0  0.61195  0.94551  0.43497  1.0000
  C   C2307     1.0  0.51276  0.71850  0.00933  1.0000
  C   C2308     1.0  0.58721  0.96856  0.43528  1.0000
  H   H2303     1.0  0.51449  0.72590  0.01342  1.0000
  H   H2304     1.0  0.51616  0.93996  0.17389  1.0000
  Fe  Fe401     1.0  0.70776  0.94800  0.41714  1.0000
  N   N189      1.0  0.59367  0.98180  0.44624  1.0000
  Fe  Fe402     1.0  0.55163  0.65911  0.00023  1.0000
  H   H2305     1.0  0.64533  0.94435  0.45203  1.0000
  H   H2306     1.0  0.51691  0.96903  0.24999  1.0000
  H   H2307     1.0  0.50941  0.97212  0.34256  1.0000
  N   N190      1.0  0.50217  0.90911  0.28777  1.0000
  C   C2309     1.0  0.52738  0.93667  0.24977  1.0000
  C   C2310     1.0  0.54089  0.93067  0.24717  1.0000
  C   C2311     1.0  0.54779  0.92629  0.25755  1.0000
  C   C2312     1.0  0.54131  0.92813  0.27050  1.0000
  C   C2313     1.0  0.52782  0.93423  0.27307  1.0000
  C   C2314     1.0  0.52082  0.93828  0.26278  1.0000
  H   H2308     1.0  0.54600  0.92934  0.23718  1.0000
  H   H2309     1.0  0.55821  0.92149  0.25553  1.0000
  H   H2310     1.0  0.52266  0.93552  0.28304  1.0000
  H   H2311     1.0  0.51037  0.94298  0.26483  1.0000
  C   C2315     1.0  0.49284  0.96282  0.18894  1.0000
  C   C2316     1.0  0.49281  0.95832  0.20259  1.0000
  H   H2312     1.0  0.52448  0.92257  0.17825  1.0000
  H   H2313     1.0  0.52680  0.97298  0.14851  1.0000
  C   C2317     1.0  0.55123  0.69955  0.01900  1.0000
  H   H2314     1.0  0.50566  0.66077  0.00316  1.0000
  H   H2315     1.0  0.50085  0.95896  0.20641  1.0000
  S   S795      1.0  0.62115  0.95216  0.47460  1.0000
  Fe  Fe403     1.0  0.69991  0.92536  0.43918  1.0000
  H   H2316     1.0  0.49098  0.90282  0.32144  1.0000
  C   C2318     1.0  0.48931  0.89035  0.01187  1.0000
  H   H2317     1.0  0.49257  0.82197  0.98511  1.0000
  H   H2318     1.0  0.52220  0.90943  0.27745  1.0000
  S   S796      1.0  0.53629  0.87961  0.98762  1.0000
  N   N191      1.0  0.54401  0.96419  0.26228  1.0000
  H   H2319     1.0  0.71661  0.90531  0.45373  1.0000
  H   H2320     1.0  0.54532  0.97234  0.10605  1.0000
  H   H2321     1.0  0.52545  0.84533  0.08371  1.0000
  C   C2319     1.0  0.69216  0.95266  0.38273  1.0000
  H   H2322     1.0  0.50298  0.95972  0.06715  1.0000
  C   C2320     1.0  0.55943  0.92102  0.13750  1.0000
  C   C2321     1.0  0.55149  0.93133  0.14382  1.0000
  C   C2322     1.0  0.55017  0.92999  0.15759  1.0000
  C   C2323     1.0  0.55683  0.91837  0.16508  1.0000
  C   C2324     1.0  0.56452  0.90796  0.15882  1.0000
  C   C2325     1.0  0.56595  0.90934  0.14504  1.0000
  H   H2323     1.0  0.54693  0.94062  0.13799  1.0000
  H   H2324     1.0  0.54414  0.93803  0.16232  1.0000
  H   H2325     1.0  0.56966  0.89892  0.16457  1.0000
  H   H2326     1.0  0.57215  0.90137  0.14020  1.0000
  C   C2326     1.0  0.49610  0.90938  0.12875  1.0000
  C   C2327     1.0  0.51188  0.69612  0.01103  1.0000
  N   N192      1.0  0.51056  0.82756  0.98384  1.0000
  N   N193      1.0  0.50760  0.97455  0.07386  1.0000
  C   C2328     1.0  0.58964  0.97058  0.44672  1.0000
  H   H2327     1.0  0.59264  0.92419  0.47256  1.0000
  C   C2329     1.0  0.50333  0.98331  0.08220  1.0000
  C   C2330     1.0  0.67479  0.96185  0.46110  1.0000
  C   C2331     1.0  0.65467  0.91167  0.39527  1.0000
  H   H2328     1.0  0.60849  0.97901  0.45690  1.0000
  C   C2332     1.0  0.54250  0.89916  0.05357  1.0000
  C   C2333     1.0  0.53237  0.90911  0.04857  1.0000
  C   C2334     1.0  0.52705  0.92069  0.05385  1.0000
  C   C2335     1.0  0.53164  0.92228  0.06430  1.0000
  C   C2336     1.0  0.54173  0.91233  0.06930  1.0000
  C   C2337     1.0  0.54723  0.90090  0.06384  1.0000
  H   H2329     1.0  0.52870  0.90789  0.04062  1.0000
  H   H2330     1.0  0.51928  0.92837  0.04989  1.0000
  H   H2331     1.0  0.54539  0.91346  0.07730  1.0000
  H   H2332     1.0  0.55510  0.89327  0.06772  1.0000
  C   C2338     1.0  0.54417  0.81726  0.03060  1.0000
  C   C2339     1.0  0.55217  0.82101  0.01801  1.0000
  C   C2340     1.0  0.55612  0.81265  0.00891  1.0000
  C   C2341     1.0  0.55174  0.80072  0.01220  1.0000
  C   C2342     1.0  0.54320  0.79727  0.02456  1.0000
  C   C2343     1.0  0.53959  0.80545  0.03385  1.0000
  H   H2333     1.0  0.55578  0.83009  0.01550  1.0000
  H   H2334     1.0  0.56276  0.81535  0.99942  1.0000
  H   H2335     1.0  0.53986  0.78804  0.02718  1.0000
  H   H2336     1.0  0.53339  0.80255  0.04361  1.0000
  S   S797      1.0  0.52588  0.75256  0.99746  1.0000
  C   C2344     1.0  0.66942  0.97252  0.38671  1.0000
  H   H2337     1.0  0.57378  0.69883  0.99810  1.0000
  H   H2338     1.0  0.57507  0.72073  0.00050  1.0000
  H   H2339     1.0  0.58127  0.96794  0.36729  1.0000
  H   H2340     1.0  0.55432  0.69682  0.02842  1.0000
  H   H2341     1.0  0.50860  0.73275  0.99136  1.0000
  H   H2342     1.0  0.51669  0.90221  0.12032  1.0000
  H   H2343     1.0  0.49660  0.79213  0.04927  1.0000
  Fe  Fe404     1.0  0.72681  0.92074  0.42008  1.0000
  H   H2344     1.0  0.68049  0.94303  0.37659  1.0000
  C   C2345     1.0  0.48886  0.91681  0.17148  1.0000
  C   C2346     1.0  0.50552  0.85728  0.08747  1.0000
  C   C2347     1.0  0.49931  0.84191  0.07402  1.0000
  H   H2345     1.0  0.68002  0.95355  0.48037  1.0000
  H   H2346     1.0  0.56408  0.95897  0.25184  1.0000
  C   C2348     1.0  0.49928  0.78406  0.04368  1.0000
  S   S798      1.0  0.51645  0.97932  0.10861  1.0000
  H   H2347     1.0  0.55769  0.85596  0.99044  1.0000
  N   N194      1.0  0.49823  0.90929  0.07443  1.0000
  H   H2348     1.0  0.58737  0.97657  0.41428  1.0000
  C   C2349     1.0  0.50836  0.90454  0.08107  1.0000
  C   C2350     1.0  0.59763  0.98304  0.45785  1.0000
  H   H2349     1.0  0.48963  0.65345  0.02334  1.0000
  S   S799      1.0  0.65176  0.97874  0.41955  1.0000
  H   H2350     1.0  0.50943  0.90998  0.08777  1.0000
  C   C2351     1.0  0.70585  0.97651  0.42531  1.0000
  H   H2351     1.0  0.56230  0.96772  0.38663  1.0000
  H   H2352     1.0  0.58816  0.95499  0.33225  1.0000
  C   C2352     1.0  0.70645  0.97300  0.44869  1.0000
  C   C2353     1.0  0.72745  0.91061  0.47842  1.0000
  C   C2354     1.0  0.55043  0.96127  0.23964  1.0000
  N   N195      1.0  0.68081  0.97338  0.38942  1.0000
  C   C2355     1.0  0.68059  0.95167  0.38000  1.0000
  C   C2356     1.0  0.52802  0.83301  0.99547  1.0000
  C   C2357     1.0  0.70458  0.91695  0.46819  1.0000
  H   H2353     1.0  0.50976  0.82487  0.03857  1.0000
  C   C2358     1.0  0.50105  0.92058  0.16781  1.0000
  C   C2359     1.0  0.64233  0.96418  0.40818  1.0000
  S   S800      1.0  0.71012  0.90992  0.42694  1.0000
  H   H2354     1.0  0.62253  0.95481  0.44684  1.0000
  C   C2360     1.0  0.51995  0.90553  0.29876  1.0000
  H   H2355     1.0  0.59688  0.98037  0.35145  1.0000
  C   C2361     1.0  0.65030  0.95289  0.44820  1.0000
  H   H2356     1.0  0.53939  0.96932  0.28129  1.0000
  S   S801      1.0  0.55550  0.75828  0.99254  1.0000
  C   C2362     1.0  0.57947  0.97479  0.37375  1.0000
  C   C2363     1.0  0.50868  0.69968  0.99845  1.0000
  C   C2364     1.0  0.49625  0.73718  0.03250  1.0000
  C   C2365     1.0  0.52120  0.97273  0.06582  1.0000
  C   C2366     1.0  0.65714  0.94511  0.46976  1.0000
  S   S802      1.0  0.71735  0.93483  0.43375  1.0000
  C   C2367     1.0  0.56613  0.97880  0.33025  1.0000
  H   H2357     1.0  0.62026  0.91227  0.44650  1.0000
  C   C2368     1.0  0.54323  0.70662  0.99476  1.0000
  H   H2358     1.0  0.49000  0.98118  0.13017  1.0000
  N   N196      1.0  0.48980  0.85214  0.07863  1.0000
  H   H2359     1.0  0.67943  0.98098  0.40618  1.0000
  H   H2360     1.0  0.50256  0.78845  0.03284  1.0000
  H   H2361     1.0  0.61298  0.90171  0.43414  1.0000
  H   H2362     1.0  0.63772  0.92134  0.44940  1.0000
  C   C2369     1.0  0.50115  0.83309  0.03893  1.0000
  H   H2363     1.0  0.70106  0.94483  0.38139  1.0000
  H   H2364     1.0  0.50966  0.97172  0.13796  1.0000
  H   H2365     1.0  0.52324  0.96866  0.27064  1.0000
  H   H2366     1.0  0.51276  0.68582  0.01655  1.0000
  H   H2367     1.0  0.73608  0.96145  0.41132  1.0000
  C   C2370     1.0  0.53714  0.96439  0.23899  1.0000
  H   H2368     1.0  0.57917  0.94771  0.31714  1.0000
  C   C2371     1.0  0.58420  0.94035  0.32448  1.0000
  C   C2372     1.0  0.50170  0.84477  0.04208  1.0000
  C   C2373     1.0  0.66490  0.94519  0.47827  1.0000
  N   N197      1.0  0.63345  0.90050  0.43299  1.0000
  C   C2374     1.0  0.63040  0.90917  0.44128  1.0000
  C   C2375     1.0  0.64632  0.89621  0.42675  1.0000
  C   C2376     1.0  0.59874  0.98370  0.35960  1.0000
  C   C2377     1.0  0.65650  0.90092  0.42843  1.0000
  C   C2378     1.0  0.65343  0.91011  0.43650  1.0000
  H   H2369     1.0  0.60780  0.97703  0.36276  1.0000
  H   H2370     1.0  0.60095  0.91449  0.35159  1.0000
  H   H2371     1.0  0.64873  0.88942  0.42008  1.0000
  H   H2372     1.0  0.50759  0.70163  0.03736  1.0000
  H   H2373     1.0  0.66664  0.89781  0.42310  1.0000
  H   H2374     1.0  0.66122  0.91408  0.43759  1.0000
  H   H2375     1.0  0.59959  0.93221  0.36187  1.0000
  H   H2376     1.0  0.51139  0.86929  0.99317  1.0000
  H   H2377     1.0  0.50519  0.88537  0.05679  1.0000
  N   N198      1.0  0.58318  0.93330  0.14779  1.0000
  C   C2379     1.0  0.57630  0.94404  0.15334  1.0000
  C   C2380     1.0  0.58404  0.93389  0.13458  1.0000
  C   C2381     1.0  0.56977  0.95565  0.14569  1.0000
  C   C2382     1.0  0.57755  0.94530  0.12668  1.0000
  C   C2383     1.0  0.57035  0.95622  0.13230  1.0000
  C   C2384     1.0  0.59010  0.92132  0.15595  1.0000
  H   H2378     1.0  0.57560  0.94355  0.16383  1.0000
  H   H2379     1.0  0.58928  0.92531  0.13019  1.0000
  H   H2380     1.0  0.56416  0.96405  0.15019  1.0000
  H   H2381     1.0  0.57775  0.94543  0.11639  1.0000
  H   H2382     1.0  0.56509  0.96502  0.12631  1.0000
  H   H2383     1.0  0.58421  0.91935  0.16644  1.0000
  H   H2384     1.0  0.59146  0.91228  0.15206  1.0000
  H   H2385     1.0  0.59994  0.92262  0.15603  1.0000
  C   C2385     1.0  0.69207  0.96360  0.38754  1.0000
  C   C2386     1.0  0.56341  0.97908  0.20303  1.0000
  H   H2386     1.0  0.53028  0.90518  0.29813  1.0000
  C   C2387     1.0  0.60545  0.93596  0.47377  1.0000
  H   H2387     1.0  0.55025  0.95316  0.28013  1.0000
  H   H2388     1.0  0.63533  0.95375  0.39784  1.0000
  H   H2389     1.0  0.53474  0.83527  0.00003  1.0000
  C   C2388     1.0  0.49731  0.91245  0.27543  1.0000
  H   H2390     1.0  0.58449  0.95940  0.43562  1.0000
  H   H2391     1.0  0.62440  0.89519  0.42046  1.0000
  H   H2392     1.0  0.51242  0.88745  0.10857  1.0000
  N   N199      1.0  0.51398  0.70548  0.01625  1.0000
  C   C2389     1.0  0.64052  0.97626  0.41185  1.0000
  S   S803      1.0  0.49257  0.87122  0.04319  1.0000
  H   H2393     1.0  0.73180  0.96762  0.43249  1.0000
  C   C2390     1.0  0.51540  0.84715  0.08243  1.0000
  C   C2391     1.0  0.49793  0.90410  0.31183  1.0000
  H   H2394     1.0  0.52164  0.97069  0.05601  1.0000
  H   H2395     1.0  0.70307  0.95856  0.44020  1.0000
  C   C2392     1.0  0.51914  0.82501  0.00318  1.0000
  H   H2396     1.0  0.65651  0.95217  0.43804  1.0000
  C   C2393     1.0  0.49136  0.76044  0.02087  1.0000
  H   H2397     1.0  0.51897  0.82092  0.01378  1.0000
  S   S804      1.0  0.57523  0.98050  0.34065  1.0000
  H   H2398     1.0  0.52765  0.96406  0.07122  1.0000
  H   H2399     1.0  0.49172  0.79303  0.98748  1.0000
  H   H2400     1.0  0.51996  0.83165  0.07145  1.0000
  C   C2394     1.0  0.51662  0.88590  0.07024  1.0000
  C   C2395     1.0  0.52084  0.98429  0.34545  1.0000
  C   C2396     1.0  0.59940  0.93974  0.35226  1.0000
  C   C2397     1.0  0.59167  0.91740  0.33531  1.0000
  N   N200      1.0  0.50472  0.92588  0.17615  1.0000
  H   H2401     1.0  0.53447  0.96421  0.22999  1.0000
  C   C2398     1.0  0.49667  0.92725  0.18838  1.0000
  H   H2402     1.0  0.64253  0.96229  0.44733  1.0000
  H   H2403     1.0  0.49782  0.96483  0.27949  1.0000
  C   C2399     1.0  0.51115  0.90370  0.31120  1.0000
  C   C2400     1.0  0.54767  0.96372  0.27466  1.0000
  H   H2404     1.0  0.59248  0.97734  0.46738  1.0000
  C   C2401     1.0  0.50959  0.72240  0.99675  1.0000
  H   H2405     1.0  0.52213  0.93007  0.16146  1.0000
  C   C2402     1.0  0.62338  0.97367  0.39774  1.0000
  H   H2406     1.0  0.63742  0.98566  0.48242  1.0000
  C   C2403     1.0  0.49692  0.90243  0.06596  1.0000
  C   C2404     1.0  0.49122  0.89260  0.11547  1.0000
  C   C2405     1.0  0.58918  0.94440  0.33314  1.0000
  C   C2406     1.0  0.51768  0.89278  0.07910  1.0000
  H   H2407     1.0  0.51064  0.84530  0.04442  1.0000
  C   C2407     1.0  0.62298  0.89533  0.43118  1.0000
  H   H2408     1.0  0.51452  0.90204  0.32034  1.0000
  H   H2409     1.0  0.50975  0.88937  0.00131  1.0000
  C   C2408     1.0  0.48973  0.83232  0.03570  1.0000
  C   C2409     1.0  0.52730  0.96717  0.25017  1.0000
  H   H2410     1.0  0.68792  0.89891  0.38738  1.0000
  C   C2410     1.0  0.50665  0.90171  0.12112  1.0000
  C   C2411     1.0  0.67905  0.91586  0.39649  1.0000
  H   H2411     1.0  0.70106  0.96416  0.38985  1.0000
  Fe  Fe405     1.0  0.70123  0.92512  0.41060  1.0000
  H   H2412     1.0  0.52357  0.69150  0.03116  1.0000
  H   H2413     1.0  0.49960  0.93136  0.19504  1.0000
  C   C2412     1.0  0.70485  0.96842  0.43824  1.0000
  S   S805      1.0  0.70631  0.97014  0.41167  1.0000
  C   C2413     1.0  0.55066  0.68952  0.01309  1.0000
  C   C2414     1.0  0.55372  0.96127  0.25143  1.0000
  H   H2414     1.0  0.52527  0.98174  0.06379  1.0000
  C   C2415     1.0  0.49088  0.85572  0.04202  1.0000
  H   H2415     1.0  0.66725  0.93263  0.40505  1.0000
  H   H2416     1.0  0.59223  0.90684  0.33657  1.0000
  H   H2417     1.0  0.50895  0.75080  0.02869  1.0000
  C   C2416     1.0  0.67873  0.90538  0.39123  1.0000
  C   C2417     1.0  0.49112  0.86790  0.00273  1.0000
  H   H2418     1.0  0.50277  0.72883  0.03756  1.0000
  C   C2418     1.0  0.56619  0.98340  0.39311  1.0000
  C   C2419     1.0  0.66710  0.92436  0.40119  1.0000
  S   S806      1.0  0.61187  0.97223  0.38985  1.0000
  N   N201      1.0  0.48776  0.77838  0.04575  1.0000
  H   H2419     1.0  0.52593  0.88926  0.08407  1.0000
  C   C2420     1.0  0.64029  0.91423  0.44304  1.0000
  C   C2421     1.0  0.66665  0.90317  0.39083  1.0000
  C   C2422     1.0  0.50209  0.87366  0.99923  1.0000
  C   C2423     1.0  0.53093  0.96687  0.26186  1.0000
  C   C2424     1.0  0.51049  0.82228  0.99714  1.0000
  C   C2425     1.0  0.51750  0.92980  0.17223  1.0000
  C   C2426     1.0  0.56868  0.97462  0.38471  1.0000
  H   H2420     1.0  0.52194  0.97843  0.35535  1.0000
  N   N202      1.0  0.59482  0.93519  0.34293  1.0000
  C   C2427     1.0  0.68076  0.98439  0.39512  1.0000
  C   C2428     1.0  0.49974  0.74961  0.02746  1.0000
  C   C2429     1.0  0.51529  0.90806  0.28708  1.0000
  Fe  Fe406     1.0  0.51828  0.77008  0.00715  1.0000
  H   H2421     1.0  0.55623  0.96844  0.27245  1.0000
  H   H2422     1.0  0.66662  0.89491  0.38685  1.0000
  S   S807      1.0  0.52948  0.78353  0.99065  1.0000
  H   H2423     1.0  0.59244  0.94899  0.35489  1.0000
  C   C2430     1.0  0.54393  0.71654  0.00057  1.0000
  S   S808      1.0  0.48962  0.81854  0.02987  1.0000
  H   H2424     1.0  0.58405  0.97093  0.20339  1.0000
  H   H2425     1.0  0.58275  0.97926  0.22336  1.0000
  C   C2431     1.0  0.57853  0.71813  0.99075  1.0000
  C   C2432     1.0  0.57777  0.70576  0.98933  1.0000
  H   H2426     1.0  0.73356  0.97863  0.40241  1.0000
  H   H2427     1.0  0.49696  0.83573  0.06890  1.0000
  H   H2428     1.0  0.49346  0.92908  0.07748  1.0000
  C   C2433     1.0  0.51883  0.98160  0.14663  1.0000
  H   H2429     1.0  0.50785  0.77642  0.04689  1.0000
  S   S809      1.0  0.48799  0.88421  0.10516  1.0000
  H   H2430     1.0  0.48879  0.90609  0.06082  1.0000
  C   C2434     1.0  0.50897  0.98089  0.14083  1.0000
  C   C2435     1.0  0.57404  0.98143  0.21930  1.0000
  H   H2431     1.0  0.50325  0.91877  0.26711  1.0000
  H   H2432     1.0  0.73652  0.89924  0.46315  1.0000
  H   H2433     1.0  0.69679  0.89040  0.47610  1.0000
  N   N203      1.0  0.58747  0.98356  0.37114  1.0000
  H   H2434     1.0  0.50244  0.98092  0.23280  1.0000
  C   C2436     1.0  0.49272  0.85972  0.08536  1.0000
  H   H2435     1.0  0.49634  0.75914  0.05629  1.0000
  H   H2436     1.0  0.55775  0.98345  0.40154  1.0000
  C   C2437     1.0  0.49065  0.98452  0.09054  1.0000
  C   C2438     1.0  0.50480  0.65922  0.98377  1.0000
  C   C2439     1.0  0.70873  0.98580  0.44624  1.0000
  S   S810      1.0  0.73157  0.94486  0.48158  1.0000
  C   C2440     1.0  0.48779  0.76541  0.05246  1.0000
  H   H2437     1.0  0.56062  0.98538  0.10749  1.0000
  H   H2438     1.0  0.50722  0.98561  0.31988  1.0000
  C   C2441     1.0  0.62176  0.98568  0.40125  1.0000
  H   H2439     1.0  0.49179  0.85892  0.99951  1.0000
  H   H2440     1.0  0.71886  0.88040  0.48149  1.0000
  Fe  Fe407     1.0  0.53476  0.83295  0.93085  1.0000
  S   S811      1.0  0.54175  0.85202  0.92539  1.0000
  S   S812      1.0  0.51443  0.83030  0.94216  1.0000
  Fe  Fe408     1.0  0.56151  0.81658  0.91905  1.0000
  S   S813      1.0  0.57106  0.83422  0.91265  1.0000
  S   S814      1.0  0.57280  0.79575  0.91660  1.0000
  Fe  Fe409     1.0  0.55978  0.83881  0.93276  1.0000
  S   S815      1.0  0.56915  0.84106  0.94824  1.0000
  Fe  Fe410     1.0  0.55227  0.84593  0.90579  1.0000
  S   S816      1.0  0.54993  0.85797  0.88505  1.0000
  S   S817      1.0  0.55183  0.82024  0.93957  1.0000
  S   S818      1.0  0.54370  0.82775  0.91080  1.0000
  Fe  Fe411     1.0  0.55827  0.93143  0.80933  1.0000
  S   S819      1.0  0.57041  0.93706  0.82009  1.0000
  S   S820      1.0  0.56881  0.92409  0.79035  1.0000
  Fe  Fe412     1.0  0.53279  0.93919  0.82919  1.0000
  S   S821      1.0  0.54262  0.94572  0.84142  1.0000
  H   H2441     1.0  0.68940  0.91626  0.51508  1.0000
  Fe  Fe413     1.0  0.55397  0.95532  0.82162  1.0000
  S   S822      1.0  0.55671  0.97663  0.81403  1.0000
  Fe  Fe414     1.0  0.55806  0.92681  0.83895  1.0000
  S   S823      1.0  0.56611  0.91367  0.85699  1.0000
  S   S824      1.0  0.54264  0.95034  0.80951  1.0000
  S   S825      1.0  0.54737  0.91967  0.82799  1.0000
  Fe  Fe415     1.0  0.51151  0.92542  0.61588  1.0000
  S   S826      1.0  0.51615  0.92469  0.63537  1.0000
  H   H2442     1.0  0.51981  0.83895  0.96547  1.0000
  Fe  Fe416     1.0  0.53695  0.93395  0.59890  1.0000
  S   S827      1.0  0.54395  0.93359  0.61694  1.0000
  S   S828      1.0  0.54642  0.94414  0.57812  1.0000
  Fe  Fe417     1.0  0.53665  0.91477  0.62637  1.0000
  S   S829      1.0  0.54817  0.89759  0.63920  1.0000
  Fe  Fe418     1.0  0.52296  0.94354  0.62450  1.0000
  S   S830      1.0  0.52029  0.96077  0.63353  1.0000
  S   S831      1.0  0.53164  0.91384  0.60749  1.0000
  S   S832      1.0  0.51631  0.94543  0.60590  1.0000
  Fe  Fe419     1.0  0.61108  0.93006  0.52531  1.0000
  S   S833      1.0  0.62506  0.93583  0.53362  1.0000
  S   S834      1.0  0.59772  0.91697  0.54010  1.0000
  Fe  Fe420     1.0  0.62027  0.94567  0.49698  1.0000
  H   H2443     1.0  0.54699  0.71690  0.86956  1.0000
  Fe  Fe421     1.0  0.64014  0.93258  0.51485  1.0000
  S   S835      1.0  0.66172  0.92260  0.51461  1.0000
  Fe  Fe422     1.0  0.61832  0.95618  0.52151  1.0000
  S   S836      1.0  0.49778  0.90375  0.80551  1.0000
  S   S837      1.0  0.62700  0.92441  0.50755  1.0000
  S   S838      1.0  0.60336  0.95078  0.51413  1.0000
  Fe  Fe423     1.0  0.72346  0.94811  0.50246  1.0000
  C   C2442     1.0  0.51068  0.83906  0.91671  1.0000
  S   S839      1.0  0.70200  0.95875  0.50769  1.0000
  H   H2444     1.0  0.51995  0.98241  0.59060  1.0000
  C   C2443     1.0  0.51874  0.69656  0.95491  1.0000
  Fe  Fe424     1.0  0.53987  0.91957  0.73342  1.0000
  S   S840      1.0  0.52827  0.94042  0.72781  1.0000
  S   S841      1.0  0.53729  0.91147  0.75565  1.0000
  Fe  Fe425     1.0  0.54977  0.91721  0.70411  1.0000
  S   S842      1.0  0.53907  0.93797  0.69633  1.0000
  S   S843      1.0  0.56305  0.90431  0.69002  1.0000
  Fe  Fe426     1.0  0.54629  0.94318  0.71160  1.0000
  H   H2445     1.0  0.55763  0.71920  0.97127  1.0000
  Fe  Fe427     1.0  0.52245  0.93273  0.71347  1.0000
  H   H2446     1.0  0.73666  0.93520  0.54348  1.0000
  S   S844      1.0  0.55844  0.92286  0.71812  1.0000
  S   S845      1.0  0.53252  0.91147  0.72023  1.0000
  Fe  Fe428     1.0  0.55024  0.73817  0.90476  1.0000
  S   S846      1.0  0.54005  0.73210  0.92616  1.0000
  S   S847      1.0  0.54785  0.76041  0.89574  1.0000
  Fe  Fe429     1.0  0.55868  0.70908  0.90162  1.0000
  S   S848      1.0  0.54939  0.70081  0.92290  1.0000
  S   S849      1.0  0.56951  0.69601  0.88689  1.0000
  Fe  Fe430     1.0  0.53261  0.71833  0.91929  1.0000
  C   C2444     1.0  0.58049  0.79079  0.94725  1.0000
  Fe  Fe431     1.0  0.55796  0.71535  0.92760  1.0000
  S   S850      1.0  0.56590  0.71124  0.94601  1.0000
  S   S851      1.0  0.54112  0.72565  0.89762  1.0000
  S   S852      1.0  0.56886  0.72232  0.90659  1.0000
  C   C2445     1.0  0.49227  0.91392  0.68874  1.0000
  H   H2447     1.0  0.56123  0.97946  0.68021  1.0000
  H   H2448     1.0  0.52305  0.92626  0.85863  1.0000
  H   H2449     1.0  0.55857  0.69713  0.85972  1.0000
  H   H2450     1.0  0.52116  0.88795  0.88537  1.0000
  H   H2451     1.0  0.70515  0.93016  0.51235  1.0000
  C   C2446     1.0  0.52846  0.97463  0.68664  1.0000
  C   C2447     1.0  0.57228  0.67404  0.87750  1.0000
  C   C2448     1.0  0.56501  0.68117  0.88739  1.0000
  C   C2449     1.0  0.55395  0.67690  0.89648  1.0000
  C   C2450     1.0  0.55008  0.66572  0.89535  1.0000
  C   C2451     1.0  0.62689  0.98430  0.54244  1.0000
  H   H2452     1.0  0.58083  0.67724  0.87047  1.0000
  H   H2453     1.0  0.54821  0.68239  0.90411  1.0000
  C   C2452     1.0  0.72298  0.96783  0.53215  1.0000
  H   H2454     1.0  0.52074  0.88162  0.79207  1.0000
  C   C2453     1.0  0.53390  0.92054  0.87436  1.0000
  C   C2454     1.0  0.52435  0.88469  0.66991  1.0000
  H   H2455     1.0  0.60581  0.92767  0.56148  1.0000
  S   S853      1.0  0.51120  0.71823  0.92678  1.0000
  C   C2455     1.0  0.67262  0.93282  0.51323  1.0000
  C   C2456     1.0  0.66833  0.94671  0.51153  1.0000
  C   C2457     1.0  0.67734  0.95460  0.51005  1.0000
  C   C2458     1.0  0.69071  0.94870  0.51007  1.0000
  C   C2459     1.0  0.69495  0.93484  0.51197  1.0000
  C   C2460     1.0  0.68595  0.92694  0.51356  1.0000
  H   H2456     1.0  0.65809  0.95140  0.51146  1.0000
  H   H2457     1.0  0.67395  0.96526  0.50901  1.0000
  H   H2458     1.0  0.57077  0.84137  0.97465  1.0000
  C   C2461     1.0  0.51948  0.83511  0.97612  1.0000
  H   H2459     1.0  0.58753  0.92210  0.58077  1.0000
  C   C2462     1.0  0.52528  0.77594  0.92945  1.0000
  C   C2463     1.0  0.52095  0.90698  0.87127  1.0000
  H   H2460     1.0  0.57952  0.96149  0.58785  1.0000
  H   H2461     1.0  0.64001  0.95596  0.53050  1.0000
  C   C2464     1.0  0.56069  0.93628  0.56785  1.0000
  C   C2465     1.0  0.56502  0.92237  0.57014  1.0000
  C   C2466     1.0  0.57626  0.91653  0.56143  1.0000
  C   C2467     1.0  0.58335  0.92455  0.55054  1.0000
  C   C2468     1.0  0.57900  0.93845  0.54833  1.0000
  C   C2469     1.0  0.56766  0.94427  0.55687  1.0000
  H   H2462     1.0  0.55969  0.91610  0.57854  1.0000
  H   H2463     1.0  0.57957  0.90576  0.56319  1.0000
  H   H2464     1.0  0.58437  0.94473  0.54001  1.0000
  H   H2465     1.0  0.56434  0.95504  0.55499  1.0000
  C   C2470     1.0  0.55245  0.90099  0.65252  1.0000
  C   C2471     1.0  0.54447  0.91094  0.65939  1.0000
  C   C2472     1.0  0.54761  0.91229  0.67090  1.0000
  C   C2473     1.0  0.55890  0.90390  0.67530  1.0000
  C   C2474     1.0  0.56701  0.89434  0.66812  1.0000
  C   C2475     1.0  0.56371  0.89276  0.65694  1.0000
  H   H2466     1.0  0.53568  0.91729  0.65611  1.0000
  H   H2467     1.0  0.54122  0.91966  0.67644  1.0000
  H   H2468     1.0  0.57574  0.88782  0.67144  1.0000
  H   H2469     1.0  0.56990  0.88506  0.65172  1.0000
  N   N204      1.0  0.52416  0.78939  0.92749  1.0000
  H   H2470     1.0  0.52267  0.67196  0.88838  1.0000
  C   C2476     1.0  0.63942  0.96419  0.53479  1.0000
  H   H2471     1.0  0.52591  0.92798  0.81354  1.0000
  H   H2472     1.0  0.53416  0.96291  0.60608  1.0000
  C   C2477     1.0  0.50830  0.94961  0.79029  1.0000
  C   C2478     1.0  0.52313  0.68415  0.95143  1.0000
  C   C2479     1.0  0.55944  0.92316  0.77964  1.0000
  C   C2480     1.0  0.54574  0.92433  0.78380  1.0000
  C   C2481     1.0  0.53879  0.92161  0.77587  1.0000
  C   C2482     1.0  0.54544  0.91805  0.76363  1.0000
  C   C2483     1.0  0.55899  0.91774  0.75904  1.0000
  C   C2484     1.0  0.56600  0.92017  0.76710  1.0000
  H   H2473     1.0  0.54067  0.92666  0.79341  1.0000
  H   H2474     1.0  0.52834  0.92181  0.77936  1.0000
  H   H2475     1.0  0.56422  0.91485  0.74967  1.0000
  H   H2476     1.0  0.57662  0.91921  0.76383  1.0000
  C   C2485     1.0  0.52565  0.91871  0.86728  1.0000
  H   H2477     1.0  0.49380  0.89713  0.63998  1.0000
  H   H2478     1.0  0.54138  0.66263  0.90214  1.0000
  S   S854      1.0  0.54215  0.76760  0.95998  1.0000
  C   C2486     1.0  0.55961  0.85152  0.95933  1.0000
  C   C2487     1.0  0.54920  0.86204  0.95578  1.0000
  H   H2479     1.0  0.54690  0.86389  0.94609  1.0000
  C   C2488     1.0  0.55537  0.87294  0.87710  1.0000
  C   C2489     1.0  0.55165  0.88028  0.86506  1.0000
  C   C2490     1.0  0.55514  0.89260  0.85868  1.0000
  C   C2491     1.0  0.56259  0.89763  0.86414  1.0000
  C   C2492     1.0  0.56669  0.89008  0.87598  1.0000
  C   C2493     1.0  0.56298  0.87783  0.88253  1.0000
  H   H2480     1.0  0.54581  0.87652  0.86078  1.0000
  H   H2481     1.0  0.55196  0.89823  0.84960  1.0000
  H   H2482     1.0  0.57259  0.89383  0.88020  1.0000
  H   H2483     1.0  0.56601  0.87218  0.89175  1.0000
  C   C2494     1.0  0.56535  0.78586  0.91145  1.0000
  C   C2495     1.0  0.57122  0.77225  0.91216  1.0000
  C   C2496     1.0  0.56572  0.76424  0.90771  1.0000
  C   C2497     1.0  0.55445  0.76986  0.90231  1.0000
  C   C2498     1.0  0.54876  0.78353  0.90133  1.0000
  C   C2499     1.0  0.55406  0.79146  0.90606  1.0000
  H   H2484     1.0  0.58001  0.76785  0.91623  1.0000
  H   H2485     1.0  0.57034  0.75376  0.90823  1.0000
  H   H2486     1.0  0.54026  0.78799  0.89684  1.0000
  H   H2487     1.0  0.54960  0.80196  0.90522  1.0000
  H   H2488     1.0  0.50657  0.80065  0.90317  1.0000
  H   H2489     1.0  0.58798  0.78750  0.93892  1.0000
  N   N205      1.0  0.54407  0.68156  0.95682  1.0000
  C   C2500     1.0  0.48967  0.94278  0.78803  1.0000
  H   H2490     1.0  0.49427  0.94444  0.59696  1.0000
  H   H2491     1.0  0.58024  0.94752  0.78576  1.0000
  H   H2492     1.0  0.52795  0.67009  0.87135  1.0000
  H   H2493     1.0  0.56057  0.66538  0.95256  1.0000
  H   H2494     1.0  0.51436  0.98349  0.64641  1.0000
  C   C2501     1.0  0.52868  0.71014  0.87782  1.0000
  C   C2502     1.0  0.49080  0.82519  0.92151  1.0000
  C   C2503     1.0  0.69795  0.88943  0.48615  1.0000
  C   C2504     1.0  0.55872  0.79142  0.96161  1.0000
  H   H2495     1.0  0.66001  0.95830  0.53608  1.0000
  H   H2496     1.0  0.52121  0.76029  0.92303  1.0000
  H   H2497     1.0  0.52405  0.69235  0.92016  1.0000
  C   C2505     1.0  0.55083  0.97119  0.60405  1.0000
  S   S855      1.0  0.49283  0.91935  0.61666  1.0000
  C   C2506     1.0  0.71576  0.91858  0.48431  1.0000
  C   C2507     1.0  0.59875  0.97025  0.56785  1.0000
  C   C2508     1.0  0.50381  0.97643  0.72524  1.0000
  C   C2509     1.0  0.54110  0.97166  0.63126  1.0000
  C   C2510     1.0  0.73258  0.95651  0.53593  1.0000
  N   N206      1.0  0.53742  0.91092  0.88510  1.0000
  C   C2511     1.0  0.54606  0.91316  0.89235  1.0000
  H   H2498     1.0  0.53561  0.89174  0.89762  1.0000
  H   H2499     1.0  0.55437  0.91737  0.88514  1.0000
  H   H2500     1.0  0.54031  0.92020  0.89892  1.0000
  H   H2501     1.0  0.55066  0.90366  0.89855  1.0000
  H   H2502     1.0  0.61083  0.95016  0.55567  1.0000
  H   H2503     1.0  0.49203  0.82044  0.94226  1.0000
  H   H2504     1.0  0.57401  0.93928  0.59372  1.0000
  H   H2505     1.0  0.57877  0.80560  0.98085  1.0000
  C   C2512     1.0  0.51347  0.91719  0.81019  1.0000
  H   H2506     1.0  0.71347  0.93356  0.54565  1.0000
  H   H2507     1.0  0.49026  0.89363  0.65789  1.0000
  N   N207      1.0  0.51887  0.93468  0.56275  1.0000
  C   C2513     1.0  0.52118  0.92519  0.57402  1.0000
  C   C2514     1.0  0.50724  0.93705  0.55876  1.0000
  C   C2515     1.0  0.51190  0.91744  0.58133  1.0000
  C   C2516     1.0  0.49776  0.92946  0.56583  1.0000
  H   H2508     1.0  0.51363  0.91003  0.59037  1.0000
  C   C2517     1.0  0.52865  0.94282  0.55540  1.0000
  H   H2509     1.0  0.53022  0.92364  0.57741  1.0000
  H   H2510     1.0  0.50516  0.94488  0.55011  1.0000
  H   H2511     1.0  0.49332  0.96040  0.63500  1.0000
  C   C2518     1.0  0.52751  0.88780  0.78482  1.0000
  C   C2519     1.0  0.52276  0.98150  0.70795  1.0000
  H   H2512     1.0  0.53892  0.93671  0.55522  1.0000
  H   H2513     1.0  0.52780  0.94703  0.54481  1.0000
  H   H2514     1.0  0.52729  0.95111  0.56037  1.0000
  H   H2515     1.0  0.55448  0.97108  0.59354  1.0000
  H   H2516     1.0  0.50706  0.96395  0.69826  1.0000
  C   C2520     1.0  0.55179  0.74067  0.96645  1.0000
  H   H2517     1.0  0.55707  0.95426  0.64989  1.0000
  C   C2521     1.0  0.55710  0.72806  0.96336  1.0000
  H   H2518     1.0  0.49645  0.98285  0.63667  1.0000
  C   C2522     1.0  0.53977  0.69364  0.96041  1.0000
  N   N208      1.0  0.68748  0.89429  0.49554  1.0000
  H   H2519     1.0  0.54420  0.88447  0.68035  1.0000
  H   H2520     1.0  0.69274  0.97681  0.52603  1.0000
  C   C2523     1.0  0.50599  0.83834  0.90601  1.0000
  S   S856      1.0  0.66475  0.97984  0.54428  1.0000
  H   H2521     1.0  0.52947  0.80521  0.93219  1.0000
  H   H2522     1.0  0.54711  0.67893  0.86338  1.0000
  S   S857      1.0  0.50107  0.93750  0.71327  1.0000
  N   N209      1.0  0.53822  0.88811  0.79063  1.0000
  C   C2524     1.0  0.53545  0.88915  0.80368  1.0000
  C   C2525     1.0  0.55062  0.88847  0.78274  1.0000
  C   C2526     1.0  0.54508  0.89105  0.80903  1.0000
  C   C2527     1.0  0.56055  0.89015  0.78783  1.0000
  C   C2528     1.0  0.55769  0.89164  0.80100  1.0000
  C   C2529     1.0  0.53590  0.67673  0.95249  1.0000
  H   H2523     1.0  0.52554  0.88907  0.80984  1.0000
  H   H2524     1.0  0.55272  0.88808  0.77226  1.0000
  H   H2525     1.0  0.54269  0.89244  0.81921  1.0000
  H   H2526     1.0  0.57020  0.89098  0.78139  1.0000
  H   H2527     1.0  0.56513  0.89362  0.80482  1.0000
  C   C2530     1.0  0.51181  0.79361  0.91054  1.0000
  C   C2531     1.0  0.49437  0.71267  0.91547  1.0000
  H   H2528     1.0  0.52395  0.71118  0.96173  1.0000
  N   N210      1.0  0.52371  0.88462  0.68386  1.0000
  H   H2529     1.0  0.54620  0.69740  0.96399  1.0000
  C   C2532     1.0  0.53478  0.88503  0.68748  1.0000
  C   C2533     1.0  0.51076  0.88652  0.70591  1.0000
  C   C2534     1.0  0.53408  0.88640  0.70035  1.0000
  C   C2535     1.0  0.52194  0.88723  0.70958  1.0000
  C   C2536     1.0  0.55037  0.96831  0.72063  1.0000
  C   C2537     1.0  0.56139  0.98110  0.83667  1.0000
  C   C2538     1.0  0.71049  0.88384  0.48911  1.0000
  C   C2539     1.0  0.65021  0.97649  0.54294  1.0000
  C   C2540     1.0  0.53928  0.96666  0.61113  1.0000
  H   H2530     1.0  0.52117  0.88857  0.71952  1.0000
  S   S858      1.0  0.51097  0.93991  0.83555  1.0000
  C   C2541     1.0  0.51184  0.88517  0.69293  1.0000
  N   N211      1.0  0.57141  0.80022  0.87630  1.0000
  C   C2542     1.0  0.56141  0.81104  0.87341  1.0000
  C   C2543     1.0  0.58108  0.80134  0.88169  1.0000
  C   C2544     1.0  0.56087  0.82333  0.87604  1.0000
  C   C2545     1.0  0.58084  0.81348  0.88442  1.0000
  C   C2546     1.0  0.57070  0.82453  0.88151  1.0000
  C   C2547     1.0  0.57213  0.78753  0.87306  1.0000
  H   H2531     1.0  0.55372  0.81016  0.86918  1.0000
  H   H2532     1.0  0.58886  0.79272  0.88426  1.0000
  H   H2533     1.0  0.55285  0.83190  0.87397  1.0000
  H   H2534     1.0  0.58829  0.81420  0.88909  1.0000
  H   H2535     1.0  0.57038  0.83400  0.88362  1.0000
  H   H2536     1.0  0.57649  0.77888  0.88037  1.0000
  H   H2537     1.0  0.56210  0.78619  0.87358  1.0000
  H   H2538     1.0  0.57829  0.78715  0.86284  1.0000
  N   N212      1.0  0.56940  0.96234  0.67181  1.0000
  C   C2548     1.0  0.57328  0.94982  0.67932  1.0000
  C   C2549     1.0  0.56352  0.96404  0.66143  1.0000
  C   C2550     1.0  0.57154  0.93856  0.67634  1.0000
  C   C2551     1.0  0.56165  0.95297  0.65817  1.0000
  C   C2552     1.0  0.56572  0.94017  0.66568  1.0000
  H   H2539     1.0  0.52201  0.98347  0.82412  1.0000
  H   H2540     1.0  0.57759  0.94849  0.68780  1.0000
  H   H2541     1.0  0.56025  0.97400  0.65564  1.0000
  H   H2542     1.0  0.57453  0.92864  0.68237  1.0000
  C   C2553     1.0  0.58661  0.71140  0.96594  1.0000
  H   H2543     1.0  0.56430  0.93149  0.66332  1.0000
  C   C2554     1.0  0.49852  0.92728  0.70444  1.0000
  C   C2555     1.0  0.49628  0.83114  0.90836  1.0000
  C   C2556     1.0  0.50148  0.82462  0.97761  1.0000
  H   H2544     1.0  0.51014  0.84311  0.89590  1.0000
  C   C2557     1.0  0.58541  0.95408  0.58209  1.0000
  C   C2558     1.0  0.54452  0.96168  0.73330  1.0000
  C   C2559     1.0  0.53868  0.98212  0.74128  1.0000
  H   H2545     1.0  0.52048  0.91422  0.80157  1.0000
  H   H2546     1.0  0.51472  0.90538  0.86570  1.0000
  C   C2560     1.0  0.53432  0.96707  0.62468  1.0000
  H   H2547     1.0  0.56444  0.96288  0.75023  1.0000
  H   H2548     1.0  0.50887  0.94024  0.77459  1.0000
  H   H2549     1.0  0.50110  0.65675  0.96583  1.0000
  H   H2550     1.0  0.51043  0.91740  0.67475  1.0000
  C   C2561     1.0  0.54827  0.69810  0.86503  1.0000
  C   C2562     1.0  0.70676  0.95478  0.53842  1.0000
  H   H2551     1.0  0.56208  0.97054  0.84101  1.0000
  H   H2552     1.0  0.49143  0.69005  0.95521  1.0000
  H   H2553     1.0  0.53781  0.92953  0.87100  1.0000
  H   H2554     1.0  0.54925  0.78861  0.96460  1.0000
  C   C2563     1.0  0.52447  0.89728  0.88233  1.0000
  C   C2564     1.0  0.53270  0.89946  0.88922  1.0000
  C   C2565     1.0  0.70155  0.88822  0.51125  1.0000
  C   C2566     1.0  0.55725  0.97636  0.61049  1.0000
  H   H2555     1.0  0.52402  0.98333  0.80046  1.0000
  C   C2567     1.0  0.52238  0.69979  0.87958  1.0000
  C   C2568     1.0  0.52263  0.67737  0.87782  1.0000
  C   C2569     1.0  0.51308  0.77990  0.91234  1.0000
  S   S859      1.0  0.63440  0.95348  0.50327  1.0000
  H   H2556     1.0  0.51582  0.67758  0.91149  1.0000
  H   H2557     1.0  0.70287  0.88810  0.52101  1.0000
  C   C2570     1.0  0.50931  0.96915  0.70448  1.0000
  H   H2558     1.0  0.50301  0.88504  0.69003  1.0000
  C   C2571     1.0  0.71232  0.88344  0.50167  1.0000
  C   C2572     1.0  0.62756  0.97378  0.53677  1.0000
  H   H2559     1.0  0.56509  0.98535  0.85383  1.0000
  H   H2560     1.0  0.72584  0.97735  0.52811  1.0000
  S   S860      1.0  0.55524  0.96088  0.70683  1.0000
  C   C2573     1.0  0.67477  0.90134  0.49190  1.0000
  C   C2574     1.0  0.56261  0.84935  0.97188  1.0000
  C   C2575     1.0  0.56128  0.72694  0.95001  1.0000
  C   C2576     1.0  0.56653  0.96443  0.75901  1.0000
  H   H2561     1.0  0.54460  0.95121  0.73517  1.0000
  C   C2577     1.0  0.49576  0.82562  0.93219  1.0000
  H   H2562     1.0  0.56419  0.73766  0.92941  1.0000
  C   C2578     1.0  0.54175  0.68782  0.86720  1.0000
  C   C2579     1.0  0.57929  0.69028  0.97551  1.0000
  H   H2563     1.0  0.69478  0.98278  0.53937  1.0000
  H   H2564     1.0  0.57567  0.94377  0.76568  1.0000
  C   C2580     1.0  0.65073  0.96548  0.53799  1.0000
  H   H2565     1.0  0.49743  0.97709  0.73502  1.0000
  C   C2581     1.0  0.56070  0.73847  0.93976  1.0000
  H   H2566     1.0  0.49600  0.66292  0.88689  1.0000
  H   H2567     1.0  0.49779  0.83352  0.97009  1.0000
  C   C2582     1.0  0.57283  0.95372  0.76766  1.0000
  H   H2568     1.0  0.50121  0.88746  0.71291  1.0000
  N   N213      1.0  0.71026  0.96688  0.53343  1.0000
  C   C2583     1.0  0.49205  0.91777  0.82537  1.0000
  C   C2584     1.0  0.50599  0.83224  0.92970  1.0000
  N   N214      1.0  0.56547  0.97919  0.77284  1.0000
  C   C2585     1.0  0.58756  0.72386  0.96699  1.0000
  C   C2586     1.0  0.58986  0.93187  0.57827  1.0000
  H   H2569     1.0  0.51819  0.84467  0.91483  1.0000
  H   H2570     1.0  0.53753  0.97156  0.64182  1.0000
  H   H2571     1.0  0.51680  0.68044  0.94767  1.0000
  H   H2572     1.0  0.58369  0.73702  0.98040  1.0000
  H   H2573     1.0  0.60964  0.96931  0.56590  1.0000
  C   C2587     1.0  0.50729  0.92943  0.82778  1.0000
  H   H2574     1.0  0.51684  0.80883  0.91645  1.0000
  H   H2575     1.0  0.53364  0.96360  0.75328  1.0000
  C   C2588     1.0  0.54177  0.70920  0.87060  1.0000
  H   H2576     1.0  0.53140  0.88374  0.77560  1.0000
  C   C2589     1.0  0.71619  0.94318  0.54203  1.0000
  C   C2590     1.0  0.54208  0.87056  0.96457  1.0000
  C   C2591     1.0  0.49138  0.65415  0.89135  1.0000
  C   C2592     1.0  0.68910  0.89358  0.50802  1.0000
  C   C2593     1.0  0.51456  0.69578  0.91733  1.0000
  C   C2594     1.0  0.51989  0.77098  0.92181  1.0000
  C   C2595     1.0  0.53850  0.96863  0.74361  1.0000
  C   C2596     1.0  0.50655  0.70824  0.91921  1.0000
  C   C2597     1.0  0.58264  0.79930  0.95393  1.0000
  H   H2577     1.0  0.59397  0.97590  0.57591  1.0000
  C   C2598     1.0  0.56846  0.78677  0.95120  1.0000
  C   C2599     1.0  0.50287  0.94388  0.78343  1.0000
  H   H2578     1.0  0.51223  0.70061  0.88516  1.0000
  C   C2600     1.0  0.52712  0.70140  0.95935  1.0000
  H   H2579     1.0  0.55342  0.80372  0.97590  1.0000
  H   H2580     1.0  0.59103  0.73099  0.95809  1.0000
  H   H2581     1.0  0.68082  0.89754  0.51542  1.0000
  N   N215      1.0  0.58165  0.70259  0.97703  1.0000
  C   C2601     1.0  0.55513  0.75104  0.94285  1.0000
  C   C2602     1.0  0.50043  0.95409  0.80177  1.0000
  C   C2603     1.0  0.50996  0.68747  0.91235  1.0000
  H   H2582     1.0  0.50477  0.71584  0.98168  1.0000
  H   H2583     1.0  0.51470  0.66085  0.97906  1.0000
  C   C2604     1.0  0.51654  0.92501  0.81696  1.0000
  H   H2584     1.0  0.54285  0.88709  0.70301  1.0000
  H   H2585     1.0  0.52473  0.79220  0.94622  1.0000
  H   H2586     1.0  0.69522  0.92774  0.48393  1.0000
  H   H2587     1.0  0.56657  0.78030  0.94601  1.0000
  C   C2605     1.0  0.55039  0.75210  0.95618  1.0000
  H   H2588     1.0  0.55426  0.75991  0.93492  1.0000
  H   H2589     1.0  0.57392  0.97032  0.79003  1.0000
  H   H2590     1.0  0.52191  0.98327  0.57304  1.0000
  S   S861      1.0  0.61362  0.97319  0.53171  1.0000
  H   H2591     1.0  0.59200  0.80241  0.95082  1.0000
  H   H2592     1.0  0.51744  0.87898  0.66932  1.0000
  H   H2593     1.0  0.50894  0.70254  0.95394  1.0000
  C   C2606     1.0  0.72917  0.94409  0.54081  1.0000
  H   H2594     1.0  0.54065  0.78917  0.93482  1.0000
  C   C2607     1.0  0.50734  0.92493  0.69245  1.0000
  C   C2608     1.0  0.57544  0.95584  0.77891  1.0000
  H   H2595     1.0  0.71565  0.92244  0.49268  1.0000
  H   H2596     1.0  0.50669  0.81632  0.97240  1.0000
  H   H2597     1.0  0.53431  0.87894  0.96160  1.0000
  N   N216      1.0  0.52901  0.68868  0.87454  1.0000
  H   H2598     1.0  0.52854  0.98495  0.68061  1.0000
  H   H2599     1.0  0.67446  0.91225  0.48874  1.0000
  C   C2609     1.0  0.51755  0.79820  0.91817  1.0000
  C   C2610     1.0  0.57174  0.96874  0.78132  1.0000
  C   C2611     1.0  0.55270  0.97608  0.62419  1.0000
  C   C2612     1.0  0.53002  0.79428  0.93555  1.0000
  H   H2600     1.0  0.56650  0.81961  0.97447  1.0000
  H   H2601     1.0  0.53055  0.76896  0.93681  1.0000
  C   C2613     1.0  0.56829  0.66318  0.87620  1.0000
  C   C2614     1.0  0.56114  0.80001  0.96795  1.0000
  H   H2602     1.0  0.53450  0.88014  0.66486  1.0000
  C   C2615     1.0  0.57098  0.97413  0.67517  1.0000
  H   H2603     1.0  0.56940  0.69242  0.97311  1.0000
  C   C2616     1.0  0.55746  0.67374  0.95786  1.0000
  N   N217      1.0  0.57300  0.80377  0.96415  1.0000
  C   C2617     1.0  0.60019  0.93498  0.56747  1.0000
  H   H2604     1.0  0.58332  0.81763  0.96547  1.0000
  H   H2605     1.0  0.51220  0.68089  0.87668  1.0000
  H   H2606     1.0  0.50892  0.77616  0.90629  1.0000
  H   H2607     1.0  0.49281  0.91374  0.58282  1.0000
  C   C2618     1.0  0.60292  0.94770  0.56420  1.0000
  N   N218      1.0  0.59570  0.95697  0.57161  1.0000
  C   C2619     1.0  0.57559  0.81202  0.97161  1.0000
  H   H2608     1.0  0.53928  0.66720  0.94964  1.0000
  C   C2620     1.0  0.58231  0.94150  0.58555  1.0000
  C   C2621     1.0  0.50415  0.91832  0.68449  1.0000
  H   H2609     1.0  0.52352  0.71869  0.88228  1.0000
  C   C2622     1.0  0.50121  0.91360  0.81430  1.0000
  H   H2610     1.0  0.54839  0.74156  0.97674  1.0000
  C   C2623     1.0  0.70013  0.97896  0.53018  1.0000
  H   H2611     1.0  0.66634  0.89967  0.50055  1.0000
  H   H2612     1.0  0.69666  0.95406  0.53935  1.0000
  H   H2613     1.0  0.53623  0.97799  0.58016  1.0000
  C   C2624     1.0  0.49753  0.69187  0.90896  1.0000
  H   H2614     1.0  0.51618  0.92895  0.68889  1.0000
  Fe  Fe432     1.0  0.53865  0.76540  0.98209  1.0000
  H   H2615     1.0  0.72213  0.87968  0.50385  1.0000
  C   C2625     1.0  0.50019  0.91952  0.57710  1.0000
  H   H2616     1.0  0.55783  0.66943  0.96856  1.0000
  C   C2626     1.0  0.50107  0.96980  0.71711  1.0000
  H   H2617     1.0  0.52161  0.89815  0.78203  1.0000
  H   H2618     1.0  0.57497  0.98115  0.66600  1.0000
  H   H2619     1.0  0.52167  0.89517  0.66425  1.0000
  H   H2620     1.0  0.50477  0.95831  0.80721  1.0000
  S   S862      1.0  0.73307  0.92769  0.51277  1.0000
  H   H2621     1.0  0.49265  0.96513  0.72054  1.0000
  H   H2622     1.0  0.51860  0.95039  0.78686  1.0000
  H   H2623     1.0  0.58928  0.70909  0.95611  1.0000
  C   C2627     1.0  0.49504  0.92578  0.83204  1.0000
  H   H2624     1.0  0.58692  0.68628  0.96729  1.0000
  S   S863      1.0  0.49826  0.98489  0.67592  1.0000
  H   H2625     1.0  0.53529  0.84405  0.97573  1.0000
  C   C2628     1.0  0.55712  0.65904  0.88497  1.0000
  H   H2626     1.0  0.57782  0.97140  0.68210  1.0000
  S   S864      1.0  0.56959  0.98503  0.60118  1.0000
  H   H2627     1.0  0.53872  0.96928  0.68753  1.0000
  C   C2629     1.0  0.49722  0.65683  0.97638  1.0000
  C   C2630     1.0  0.52635  0.98497  0.58048  1.0000
  H   H2628     1.0  0.56476  0.68021  0.95327  1.0000
  H   H2629     1.0  0.59533  0.97601  0.55852  1.0000
  C   C2631     1.0  0.52829  0.83800  0.98183  1.0000
  C   C2632     1.0  0.54510  0.86841  0.97710  1.0000
  C   C2633     1.0  0.51476  0.98228  0.72067  1.0000
  C   C2634     1.0  0.48827  0.96798  0.66821  1.0000
  C   C2635     1.0  0.55522  0.85762  0.98085  1.0000
  C   C2636     1.0  0.55126  0.98152  0.71860  1.0000
  H   H2630     1.0  0.60349  0.93343  0.48461  1.0000
  N   N219      1.0  0.51995  0.97507  0.70000  1.0000
  S   S865      1.0  0.49212  0.82864  0.89466  1.0000
  H   H2631     1.0  0.66403  0.93873  0.48818  1.0000
  H   H2632     1.0  0.48842  0.93149  0.56280  1.0000
  C   C2637     1.0  0.49000  0.70461  0.91012  1.0000
  H   H2633     1.0  0.57375  0.65811  0.86816  1.0000
  H   H2634     1.0  0.55808  0.97947  0.62931  1.0000
  C   C2638     1.0  0.56296  0.97719  0.76173  1.0000
  C   C2639     1.0  0.58338  0.72726  0.97948  1.0000
  H   H2635     1.0  0.48831  0.72239  0.91666  1.0000
  H   H2636     1.0  0.52490  0.96939  0.68113  1.0000
  S   S866      1.0  0.49090  0.68161  0.90363  1.0000
  H   H2637     1.0  0.49716  0.96051  0.66991  1.0000
  H   H2638     1.0  0.48876  0.73823  0.93569  1.0000
  H   H2639     1.0  0.63261  0.98547  0.50668  1.0000
  H   H2640     1.0  0.48765  0.88901  0.84121  1.0000
  H   H2641     1.0  0.48788  0.92911  0.84052  1.0000
  N   N220      1.0  0.48756  0.95276  0.80633  1.0000
  C   C2640     1.0  0.63820  0.98569  0.54547  1.0000
  H   H2642     1.0  0.55815  0.98545  0.75490  1.0000
  H   H2643     1.0  0.67339  0.89803  0.48349  1.0000
  H   H2644     1.0  0.94384  0.28441  0.40891  1.0000
  C   C2641     1.0  0.81137  0.03725  0.47784  1.0000
  C   C2642     1.0  0.94524  0.25390  0.39509  1.0000
  H   H2645     1.0  0.92287  0.13982  0.45054  1.0000
  H   H2646     1.0  0.79221  0.01552  0.39948  1.0000
  N   N221      1.0  0.97045  0.13782  0.40440  1.0000
  Fe  Fe433     1.0  0.74775  0.01798  0.43601  1.0000
  S   S867      1.0  0.76981  0.01016  0.42968  1.0000
  C   C2643     1.0  0.85140  0.99206  0.39976  1.0000
  Fe  Fe434     1.0  0.85069  0.01823  0.41452  1.0000
  S   S868      1.0  0.84034  0.03984  0.41342  1.0000
  S   S869      1.0  0.85273  0.00871  0.39746  1.0000
  Fe  Fe435     1.0  0.85478  0.01462  0.44201  1.0000
  S   S870      1.0  0.84422  0.03552  0.44373  1.0000
  S   S871      1.0  0.86438  0.99985  0.45785  1.0000
  Fe  Fe436     1.0  0.82952  0.03230  0.43426  1.0000
  S   S872      1.0  0.80745  0.04007  0.44047  1.0000
  Fe  Fe437     1.0  0.85606  0.04133  0.42283  1.0000
  S   S873      1.0  0.86334  0.06045  0.41892  1.0000
  S   S874      1.0  0.83898  0.01066  0.43480  1.0000
  S   S875      1.0  0.86759  0.02040  0.42172  1.0000
  Fe  Fe438     1.0  0.92781  0.08289  0.41546  1.0000
  S   S876      1.0  0.93322  0.07781  0.43546  1.0000
  S   S877      1.0  0.92260  0.06677  0.40911  1.0000
  Fe  Fe439     1.0  0.93254  0.11109  0.40901  1.0000
  S   S878      1.0  0.93746  0.10831  0.42875  1.0000
  S   S879      1.0  0.93584  0.12990  0.39364  1.0000
  Fe  Fe440     1.0  0.94972  0.08857  0.42500  1.0000
  S   S880      1.0  0.96962  0.08382  0.43030  1.0000
  Fe  Fe441     1.0  0.92052  0.09803  0.43719  1.0000
  S   S881      1.0  0.90653  0.09967  0.45691  1.0000
  S   S882      1.0  0.94571  0.09171  0.40467  1.0000
  S   S883      1.0  0.91414  0.10271  0.41777  1.0000
  Fe  Fe442     1.0  0.94751  0.21817  0.41487  1.0000
  S   S884      1.0  0.96943  0.21090  0.41254  1.0000
  S   S885      1.0  0.93850  0.23827  0.42039  1.0000
  Fe  Fe443     1.0  0.94410  0.19045  0.41494  1.0000
  S   S886      1.0  0.96585  0.18128  0.41252  1.0000
  S   S887      1.0  0.92940  0.17724  0.42144  1.0000
  Fe  Fe444     1.0  0.96498  0.19259  0.42758  1.0000
  C   C2644     1.0  0.80579  0.02103  0.47035  1.0000
  Fe  Fe445     1.0  0.96811  0.20051  0.39760  1.0000
  H   H2647     1.0  0.78933  0.04936  0.46481  1.0000
  S   S888      1.0  0.94317  0.20045  0.43115  1.0000
  S   S889      1.0  0.94624  0.20905  0.39871  1.0000
  H   H2648     1.0  0.78838  0.05266  0.40970  1.0000
  C   C2645     1.0  0.89036  0.02057  0.46850  1.0000
  H   H2649     1.0  0.96114  0.21159  0.43993  1.0000
  C   C2646     1.0  0.94177  0.25307  0.40892  1.0000
  C   C2647     1.0  0.97891  0.26439  0.40997  1.0000
  H   H2650     1.0  0.91402  0.12471  0.44307  1.0000
  H   H2651     1.0  0.93727  0.31730  0.46297  1.0000
  C   C2648     1.0  0.98072  0.09330  0.41896  1.0000
  N   N222      1.0  0.95203  0.27482  0.45901  1.0000
  S   S890      1.0  0.97429  0.18375  0.44532  1.0000
  H   H2652     1.0  0.97618  0.20125  0.48224  1.0000
  C   C2649     1.0  0.96191  0.12990  0.41493  1.0000
  C   C2650     1.0  0.97484  0.24527  0.39950  1.0000
  H   H2653     1.0  0.97313  0.23796  0.39524  1.0000
  C   C2651     1.0  0.87673  0.02596  0.46986  1.0000
  C   C2652     1.0  0.98490  0.15313  0.39806  1.0000
  C   C2653     1.0  0.97166  0.19644  0.45379  1.0000
  S   S891      1.0  0.92880  0.13803  0.47570  1.0000
  H   H2654     1.0  0.97173  0.09700  0.40222  1.0000
  C   C2654     1.0  0.93395  0.14327  0.40112  1.0000
  C   C2655     1.0  0.94067  0.15360  0.39440  1.0000
  C   C2656     1.0  0.93968  0.16394  0.40065  1.0000
  C   C2657     1.0  0.93153  0.16423  0.41341  1.0000
  C   C2658     1.0  0.92462  0.15405  0.41994  1.0000
  C   C2659     1.0  0.92598  0.14350  0.41392  1.0000
  H   H2655     1.0  0.94670  0.15358  0.38440  1.0000
  H   H2656     1.0  0.94490  0.17188  0.39547  1.0000
  H   H2657     1.0  0.91812  0.15437  0.42970  1.0000
  H   H2658     1.0  0.92057  0.13572  0.41907  1.0000
  C   C2660     1.0  0.95082  0.27601  0.44534  1.0000
  H   H2659     1.0  0.81280  0.04801  0.40678  1.0000
  Fe  Fe446     1.0  0.95463  0.30677  0.38896  1.0000
  H   H2660     1.0  0.96055  0.27661  0.43832  1.0000
  H   H2661     1.0  0.96779  0.12249  0.42191  1.0000
  C   C2661     1.0  0.87992  0.06177  0.41640  1.0000
  C   C2662     1.0  0.89074  0.05146  0.41318  1.0000
  C   C2663     1.0  0.90376  0.05312  0.41095  1.0000
  C   C2664     1.0  0.90609  0.06493  0.41231  1.0000
  C   C2665     1.0  0.89527  0.07511  0.41584  1.0000
  C   C2666     1.0  0.88226  0.07363  0.41763  1.0000
  H   H2662     1.0  0.88907  0.04231  0.41214  1.0000
  H   H2663     1.0  0.91208  0.04521  0.40817  1.0000
  H   H2664     1.0  0.89690  0.08422  0.41699  1.0000
  H   H2665     1.0  0.87394  0.08164  0.42016  1.0000
  C   C2667     1.0  0.87446  0.00794  0.46164  1.0000
  C   C2668     1.0  0.88807  0.00251  0.46032  1.0000
  C   C2669     1.0  0.89607  0.00897  0.46352  1.0000
  H   H2666     1.0  0.97170  0.25246  0.42940  1.0000
  H   H2667     1.0  0.86009  0.99206  0.37895  1.0000
  H   H2668     1.0  0.87715  0.99026  0.41069  1.0000
  H   H2669     1.0  0.93244  0.31760  0.37184  1.0000
  H   H2670     1.0  0.77808  0.03630  0.40591  1.0000
  H   H2671     1.0  0.87225  0.03485  0.47386  1.0000
  C   C2670     1.0  0.96547  0.21625  0.46845  1.0000
  C   C2671     1.0  0.77991  0.01747  0.43462  1.0000
  C   C2672     1.0  0.79361  0.01220  0.43240  1.0000
  C   C2673     1.0  0.80211  0.01886  0.43453  1.0000
  C   C2674     1.0  0.79694  0.03081  0.43896  1.0000
  C   C2675     1.0  0.78317  0.03577  0.44177  1.0000
  C   C2676     1.0  0.77466  0.02912  0.43960  1.0000
  H   H2672     1.0  0.79770  0.00313  0.42865  1.0000
  H   H2673     1.0  0.81265  0.01492  0.43237  1.0000
  H   H2674     1.0  0.77908  0.04496  0.44529  1.0000
  H   H2675     1.0  0.76409  0.03323  0.44141  1.0000
  C   C2677     1.0  0.79687  0.02287  0.40047  1.0000
  H   H2676     1.0  0.94760  0.26723  0.44470  1.0000
  C   C2678     1.0  0.94770  0.27678  0.39119  1.0000
  H   H2677     1.0  0.82083  0.00061  0.40514  1.0000
  H   H2678     1.0  0.97905  0.28415  0.38237  1.0000
  H   H2679     1.0  0.80865  0.04674  0.48083  1.0000
  C   C2679     1.0  0.95657  0.12010  0.45404  1.0000
  C   C2680     1.0  0.93632  0.17340  0.45897  1.0000
  H   H2680     1.0  0.94341  0.28513  0.44202  1.0000
  H   H2681     1.0  0.83806  0.01169  0.47268  1.0000
  H   H2682     1.0  0.89245  0.99335  0.45679  1.0000
  C   C2681     1.0  0.97950  0.09871  0.40568  1.0000
  C   C2682     1.0  0.92076  0.12855  0.47093  1.0000
  H   H2683     1.0  0.95880  0.10088  0.44985  1.0000
  H   H2684     1.0  0.82132  0.00387  0.46651  1.0000
  H   H2685     1.0  0.81376  0.00308  0.39089  1.0000
  H   H2686     1.0  0.98052  0.27176  0.41420  1.0000
  H   H2687     1.0  0.98136  0.25759  0.38036  1.0000
  C   C2683     1.0  0.91088  0.10944  0.47603  1.0000
  C   C2684     1.0  0.91955  0.13133  0.45764  1.0000
  H   H2688     1.0  0.94567  0.24540  0.39122  1.0000
  C   C2685     1.0  0.97286  0.20351  0.47305  1.0000
  C   C2686     1.0  0.97594  0.19359  0.46572  1.0000
  C   C2687     1.0  0.97424  0.12212  0.46262  1.0000
  S   S892      1.0  0.96035  0.22834  0.47810  1.0000
  C   C2688     1.0  0.97656  0.14557  0.40787  1.0000
  C   C2689     1.0  0.86883  0.01981  0.46617  1.0000
  H   H2689     1.0  0.93429  0.16329  0.46109  1.0000
  Fe  Fe447     1.0  0.97610  0.31794  0.39182  1.0000
  H   H2690     1.0  0.79352  0.99108  0.45633  1.0000
  S   S893      1.0  0.98359  0.20184  0.37841  1.0000
  S   S894      1.0  0.89988  0.02784  0.47410  1.0000
  C   C2690     1.0  0.94426  0.27594  0.40502  1.0000
  C   C2691     1.0  0.81608  0.02933  0.40092  1.0000
  C   C2692     1.0  0.82431  0.02961  0.47753  1.0000
  C   C2693     1.0  0.94114  0.26417  0.41384  1.0000
  C   C2694     1.0  0.97233  0.13743  0.39126  1.0000
  N   N223      1.0  0.98172  0.26565  0.39639  1.0000
  H   H2691     1.0  0.98011  0.09135  0.45697  1.0000
  H   H2692     1.0  0.98136  0.18365  0.46945  1.0000
  N   N224      1.0  0.90773  0.11769  0.38539  1.0000
  C   C2695     1.0  0.89674  0.11250  0.38825  1.0000
  C   C2696     1.0  0.92015  0.10985  0.38234  1.0000
  C   C2697     1.0  0.89801  0.09925  0.38770  1.0000
  C   C2698     1.0  0.92177  0.09651  0.38186  1.0000
  C   C2699     1.0  0.91062  0.09125  0.38445  1.0000
  C   C2700     1.0  0.90624  0.13145  0.38645  1.0000
  H   H2693     1.0  0.88691  0.11856  0.39108  1.0000
  H   H2694     1.0  0.92889  0.11382  0.38046  1.0000
  H   H2695     1.0  0.88931  0.09508  0.39008  1.0000
  H   H2696     1.0  0.93162  0.09019  0.37979  1.0000
  H   H2697     1.0  0.91177  0.08085  0.38433  1.0000
  H   H2698     1.0  0.89667  0.13791  0.38431  1.0000
  H   H2699     1.0  0.90678  0.13151  0.39671  1.0000
  H   H2700     1.0  0.91429  0.13602  0.37920  1.0000
  H   H2701     1.0  0.97850  0.28008  0.45437  1.0000
  C   C2701     1.0  0.98061  0.14484  0.38120  1.0000
  H   H2702     1.0  0.96739  0.13136  0.38849  1.0000
  H   H2703     1.0  0.98439  0.28583  0.47257  1.0000
  H   H2704     1.0  0.94374  0.20141  0.48066  1.0000
  H   H2705     1.0  0.96805  0.23548  0.41999  1.0000
  H   H2706     1.0  0.94283  0.04057  0.48201  1.0000
  H   H2707     1.0  0.97497  0.14597  0.41826  1.0000
  C   C2702     1.0  0.96313  0.10698  0.45330  1.0000
  N   N225      1.0  0.81034  0.02040  0.39883  1.0000
  H   H2708     1.0  0.82673  0.02719  0.39996  1.0000
  H   H2709     1.0  0.94224  0.29505  0.45947  1.0000
  S   S895      1.0  0.96601  0.30173  0.40506  1.0000
  N   N226      1.0  0.93613  0.17725  0.47121  1.0000
  H   H2710     1.0  0.79868  0.01768  0.46729  1.0000
  N   N227      1.0  0.90061  0.05548  0.44610  1.0000
  C   C2703     1.0  0.89854  0.06745  0.44952  1.0000
  C   C2704     1.0  0.89009  0.05062  0.44625  1.0000
  C   C2705     1.0  0.88569  0.07505  0.45286  1.0000
  C   C2706     1.0  0.87710  0.05792  0.44960  1.0000
  C   C2707     1.0  0.87490  0.07022  0.45290  1.0000
  C   C2708     1.0  0.91415  0.04759  0.44278  1.0000
  H   H2711     1.0  0.90685  0.07128  0.44954  1.0000
  H   H2712     1.0  0.89170  0.04110  0.44363  1.0000
  H   H2713     1.0  0.88414  0.08468  0.45528  1.0000
  H   H2714     1.0  0.86882  0.05413  0.44936  1.0000
  H   H2715     1.0  0.86487  0.07602  0.45537  1.0000
  H   H2716     1.0  0.91486  0.04115  0.43591  1.0000
  H   H2717     1.0  0.92125  0.05416  0.43750  1.0000
  H   H2718     1.0  0.91719  0.04113  0.45204  1.0000
  C   C2709     1.0  0.91057  0.11162  0.46256  1.0000
  C   C2710     1.0  0.94738  0.28568  0.46475  1.0000
  Fe  Fe448     1.0  0.95084  0.31844  0.41306  1.0000
  C   C2711     1.0  0.80829  0.04115  0.40467  1.0000
  C   C2712     1.0  0.91464  0.12274  0.45341  1.0000
  S   S896      1.0  0.95171  0.29141  0.37991  1.0000
  H   H2719     1.0  0.90658  0.00470  0.46263  1.0000
  H   H2720     1.0  0.92862  0.18059  0.45383  1.0000
  C   C2713     1.0  0.94808  0.26578  0.38624  1.0000
  H   H2721     1.0  0.85831  0.02401  0.46728  1.0000
  C   C2714     1.0  0.81865  0.00770  0.39576  1.0000
  C   C2715     1.0  0.82797  0.01755  0.47336  1.0000
  C   C2716     1.0  0.97401  0.25348  0.41864  1.0000
  H   H2722     1.0  0.93837  0.26359  0.42452  1.0000
  C   C2717     1.0  0.97521  0.10165  0.45733  1.0000
  C   C2718     1.0  0.79456  0.04378  0.40629  1.0000
  C   C2719     1.0  0.96466  0.20931  0.44901  1.0000
  C   C2720     1.0  0.97208  0.24383  0.41335  1.0000
  C   C2721     1.0  0.95849  0.26296  0.46568  1.0000
  C   C2722     1.0  0.74196  0.03764  0.47510  1.0000
  H   H2723     1.0  0.95740  0.12428  0.41072  1.0000
  C   C2723     1.0  0.96213  0.12774  0.45872  1.0000
  C   C2724     1.0  0.78900  0.04138  0.47413  1.0000
  H   H2724     1.0  0.94705  0.12424  0.45126  1.0000
  H   H2725     1.0  0.94619  0.17328  0.45201  1.0000
  N   N228      1.0  0.98066  0.10925  0.46180  1.0000
  C   C2725     1.0  0.78879  0.03464  0.40411  1.0000
  C   C2726     1.0  0.97944  0.25643  0.39113  1.0000
  S   S897      1.0  0.94276  0.31612  0.43535  1.0000
  C   C2727     1.0  0.96165  0.21923  0.45628  1.0000
  H   H2726     1.0  0.82822  0.00924  0.38878  1.0000
  H   H2727     1.0  0.95685  0.13780  0.45975  1.0000
  H   H2728     1.0  0.95591  0.22905  0.45269  1.0000
  H   H2729     1.0  0.96241  0.25440  0.46104  1.0000
  C   C2728     1.0  0.94049  0.18844  0.47013  1.0000
  H   H2730     1.0  0.95071  0.26639  0.37555  1.0000
  H   H2731     1.0  0.98217  0.14441  0.37082  1.0000
  H   H2732     1.0  0.95364  0.13658  0.42050  1.0000
  H   H2733     1.0  0.94420  0.19426  0.46035  1.0000
  C   C2729     1.0  0.81864  0.01318  0.46983  1.0000
  H   H2734     1.0  0.74439  0.03100  0.46835  1.0000
  H   H2735     1.0  0.89388  0.08008  0.47661  1.0000
  C   C2730     1.0  0.94925  0.28488  0.47746  1.0000
  C   C2731     1.0  0.96046  0.26176  0.47844  1.0000
  N   N229      1.0  0.80230  0.03291  0.47431  1.0000
  H   H2736     1.0  0.97833  0.12799  0.46660  1.0000
  H   H2737     1.0  0.78183  0.03555  0.47442  1.0000
  C   C2732     1.0  0.94023  0.19254  0.48159  1.0000
  H   H2738     1.0  0.97073  0.31561  0.33780  1.0000
  H   H2739     1.0  0.95098  0.31041  0.35502  1.0000
  C   C2733     1.0  0.93341  0.04776  0.48275  1.0000
  H   H2740     1.0  0.84247  0.98881  0.42091  1.0000
  C   C2734     1.0  0.91626  0.11771  0.48015  1.0000
  H   H2741     1.0  0.77107  0.98762  0.41566  1.0000
  H   H2742     1.0  0.87730  0.98863  0.43432  1.0000
  H   H2743     1.0  0.94560  0.29355  0.48198  1.0000
  H   H2744     1.0  0.83147  0.03316  0.48029  1.0000
  H   H2745     1.0  0.92232  0.03410  0.48195  1.0000
  H   H2746     1.0  0.98681  0.21982  0.48290  1.0000
  H   H2747     1.0  0.76024  0.02958  0.48184  1.0000
  C   C2735     1.0  0.92194  0.04413  0.48274  1.0000
  S   S898      1.0  0.79744  0.98991  0.48229  1.0000
  C   C2736     1.0  0.75092  0.03680  0.48281  1.0000
  C   C2737     1.0  0.98645  0.27347  0.45894  1.0000
  H   H2748     1.0  0.78512  0.04602  0.48299  1.0000
  C   C2738     1.0  0.98692  0.15273  0.38466  1.0000
  C   C2739     1.0  0.85607  0.98627  0.38860  1.0000
  C   C2740     1.0  0.98691  0.27704  0.38728  1.0000
  Fe  Fe449     1.0  0.87948  0.01499  0.52245  1.0000
  S   S899      1.0  0.86514  0.03307  0.52911  1.0000
  S   S900      1.0  0.88285  0.99332  0.53355  1.0000
  Fe  Fe450     1.0  0.88769  0.03043  0.49428  1.0000
  S   S901      1.0  0.87403  0.04960  0.49811  1.0000
  H   H2749     1.0  0.74587  0.03745  0.53637  1.0000
  Fe  Fe451     1.0  0.88132  0.04419  0.51717  1.0000
  S   S902      1.0  0.88498  0.06193  0.52237  1.0000
  Fe  Fe452     1.0  0.85920  0.03714  0.50950  1.0000
  S   S903      1.0  0.83872  0.04371  0.50525  1.0000
  S   S904      1.0  0.89622  0.02570  0.51236  1.0000
  S   S905      1.0  0.87227  0.01840  0.50384  1.0000
  Fe  Fe453     1.0  0.94231  0.09818  0.51152  1.0000
  Fe  Fe454     1.0  0.96974  0.31793  0.51790  1.0000
  S   S906      1.0  0.94018  0.07685  0.51471  1.0000
  Fe  Fe455     1.0  0.93782  0.12312  0.52218  1.0000
  S   S907      1.0  0.94777  0.13448  0.50279  1.0000
  S   S908      1.0  0.92772  0.13257  0.53983  1.0000
  Fe  Fe456     1.0  0.93696  0.12572  0.49355  1.0000
  S   S909      1.0  0.75872  0.04424  0.50160  1.0000
  Fe  Fe457     1.0  0.96313  0.11535  0.50237  1.0000
  H   H2750     1.0  0.90324  0.07239  0.54696  1.0000
  S   S910      1.0  0.92538  0.11599  0.51305  1.0000
  S   S911      1.0  0.95392  0.10435  0.52261  1.0000
  Fe  Fe458     1.0  0.94399  0.20301  0.52484  1.0000
  S   S912      1.0  0.96101  0.19679  0.50849  1.0000
  S   S913      1.0  0.92621  0.19380  0.53366  1.0000
  Fe  Fe459     1.0  0.95466  0.22593  0.52657  1.0000
  S   S914      1.0  0.97244  0.22170  0.51032  1.0000
  S   S915      1.0  0.95412  0.24171  0.53708  1.0000
  Fe  Fe460     1.0  0.95858  0.21882  0.49987  1.0000
  C   C2741     1.0  0.98581  0.27330  0.53622  1.0000
  Fe  Fe461     1.0  0.97342  0.20023  0.52043  1.0000
  N   N230      1.0  0.90918  0.06604  0.48525  1.0000
  S   S916      1.0  0.94044  0.22499  0.51521  1.0000
  S   S917      1.0  0.95660  0.20451  0.53771  1.0000
  H   H2751     1.0  0.83355  0.99557  0.56029  1.0000
  H   H2752     1.0  0.81621  0.98613  0.55990  1.0000
  S   S918      1.0  0.80243  0.00285  0.53709  1.0000
  H   H2753     1.0  0.92752  0.06521  0.54563  1.0000
  S   S919      1.0  0.93221  0.30250  0.51199  1.0000
  H   H2754     1.0  0.98663  0.27961  0.54223  1.0000
  C   C2742     1.0  0.92230  0.07526  0.54679  1.0000
  H   H2755     1.0  0.92691  0.24724  0.55398  1.0000
  S   S920      1.0  0.79059  0.01479  0.50387  1.0000
  C   C2743     1.0  0.81171  0.01522  0.52953  1.0000
  C   C2744     1.0  0.90227  0.09253  0.54819  1.0000
  H   H2756     1.0  0.89157  0.11644  0.55263  1.0000
  C   C2745     1.0  0.86027  0.99020  0.52886  1.0000
  H   H2757     1.0  0.85651  0.99311  0.56224  1.0000
  C   C2746     1.0  0.94818  0.25852  0.52974  1.0000
  C   C2747     1.0  0.94029  0.26200  0.52033  1.0000
  C   C2748     1.0  0.93520  0.27554  0.51511  1.0000
  C   C2749     1.0  0.93848  0.28562  0.51879  1.0000
  C   C2750     1.0  0.94666  0.28211  0.52793  1.0000
  C   C2751     1.0  0.95123  0.26860  0.53361  1.0000
  H   H2758     1.0  0.93788  0.25428  0.51730  1.0000
  H   H2759     1.0  0.92884  0.27824  0.50806  1.0000
  H   H2760     1.0  0.94914  0.28983  0.53089  1.0000
  H   H2761     1.0  0.95721  0.26597  0.54099  1.0000
  C   C2752     1.0  0.82425  0.01325  0.53208  1.0000
  C   C2753     1.0  0.91458  0.24746  0.54117  1.0000
  H   H2762     1.0  0.73942  0.01609  0.52165  1.0000
  C   C2754     1.0  0.80711  0.02660  0.52028  1.0000
  C   C2755     1.0  0.92043  0.06979  0.48492  1.0000
  H   H2763     1.0  0.92195  0.20912  0.55375  1.0000
  C   C2756     1.0  0.98362  0.24886  0.51202  1.0000
  C   C2757     1.0  0.90918  0.23973  0.53642  1.0000
  C   C2758     1.0  0.92933  0.08438  0.54685  1.0000
  H   H2764     1.0  0.91277  0.25824  0.53754  1.0000
  S   S921      1.0  0.98387  0.11848  0.49316  1.0000
  C   C2759     1.0  0.74791  0.04550  0.49145  1.0000
  C   C2760     1.0  0.84724  0.00438  0.49831  1.0000
  C   C2761     1.0  0.81532  0.03553  0.51305  1.0000
  H   H2765     1.0  0.73948  0.05883  0.52085  1.0000
  Fe  Fe462     1.0  0.94462  0.31647  0.51175  1.0000
  H   H2766     1.0  0.82624  0.00695  0.50606  1.0000
  C   C2762     1.0  0.92257  0.09747  0.54775  1.0000
  S   S922      1.0  0.96604  0.30989  0.50231  1.0000
  H   H2767     1.0  0.94148  0.06365  0.48394  1.0000
  H   H2768     1.0  0.98160  0.20298  0.54323  1.0000
  H   H2769     1.0  0.96566  0.25233  0.48361  1.0000
  H   H2770     1.0  0.92714  0.16795  0.50502  1.0000
  H   H2771     1.0  0.94221  0.22607  0.56219  1.0000
  C   C2763     1.0  0.93367  0.22123  0.56457  1.0000
  N   N231      1.0  0.98419  0.25726  0.52050  1.0000
  S   S923      1.0  0.76386  0.00634  0.50293  1.0000
  N   N232      1.0  0.90919  0.10136  0.54851  1.0000
  C   C2764     1.0  0.92259  0.24118  0.55048  1.0000
  C   C2765     1.0  0.95591  0.27285  0.48428  1.0000
  C   C2766     1.0  0.92787  0.14954  0.53757  1.0000
  C   C2767     1.0  0.91700  0.15761  0.54442  1.0000
  C   C2768     1.0  0.91669  0.17112  0.54301  1.0000
  C   C2769     1.0  0.92740  0.17666  0.53505  1.0000
  C   C2770     1.0  0.93847  0.16858  0.52832  1.0000
  C   C2771     1.0  0.93862  0.15505  0.52943  1.0000
  H   H2772     1.0  0.90871  0.15344  0.55076  1.0000
  H   H2773     1.0  0.90812  0.17727  0.54824  1.0000
  H   H2774     1.0  0.94686  0.17273  0.52225  1.0000
  H   H2775     1.0  0.94718  0.14881  0.52430  1.0000
  C   C2772     1.0  0.98216  0.27080  0.51582  1.0000
  H   H2776     1.0  0.88838  0.07061  0.49333  1.0000
  H   H2777     1.0  0.94000  0.08143  0.54581  1.0000
  S   S924      1.0  0.95310  0.10753  0.49130  1.0000
  H   H2778     1.0  0.95760  0.27216  0.49404  1.0000
  C   C2773     1.0  0.90060  0.06594  0.51912  1.0000
  C   C2774     1.0  0.90111  0.07932  0.51748  1.0000
  C   C2775     1.0  0.91325  0.08288  0.51551  1.0000
  C   C2776     1.0  0.92495  0.07301  0.51564  1.0000
  C   C2777     1.0  0.92447  0.05964  0.51718  1.0000
  C   C2778     1.0  0.91237  0.05613  0.51873  1.0000
  H   H2779     1.0  0.89204  0.08697  0.51776  1.0000
  H   H2780     1.0  0.91347  0.09321  0.51430  1.0000
  H   H2781     1.0  0.93347  0.05194  0.51731  1.0000
  H   H2782     1.0  0.91209  0.04578  0.52007  1.0000
  Fe  Fe463     1.0  0.76871  0.02291  0.50828  1.0000
  C   C2779     1.0  0.82807  0.03324  0.51524  1.0000
  C   C2780     1.0  0.83240  0.02228  0.52498  1.0000
  Fe  Fe464     1.0  0.78555  0.99727  0.50063  1.0000
  C   C2781     1.0  0.91988  0.21992  0.55032  1.0000
  H   H2783     1.0  0.84210  0.02075  0.52690  1.0000
  H   H2784     1.0  0.89637  0.08372  0.49111  1.0000
  H   H2785     1.0  0.89176  0.09569  0.54830  1.0000
  H   H2786     1.0  0.91998  0.07974  0.48585  1.0000
  C   C2782     1.0  0.85895  0.99556  0.49393  1.0000
  N   N233      1.0  0.83509  0.98732  0.50269  1.0000
  S   S925      1.0  0.76589  0.01389  0.53026  1.0000
  H   H2787     1.0  0.85644  0.00059  0.52922  1.0000
  H   H2788     1.0  0.81181  0.04422  0.50577  1.0000
  H   H2789     1.0  0.92813  0.10455  0.54765  1.0000
  H   H2790     1.0  0.82781  0.00457  0.53927  1.0000
  C   C2783     1.0  0.83530  0.00009  0.50260  1.0000
  H   H2791     1.0  0.90450  0.12176  0.53875  1.0000
  C   C2784     1.0  0.91177  0.22588  0.54107  1.0000
  Fe  Fe465     1.0  0.76249  0.99664  0.52463  1.0000
  H   H2792     1.0  0.93505  0.18827  0.50320  1.0000
  H   H2793     1.0  0.79718  0.02860  0.51877  1.0000
  C   C2785     1.0  0.90246  0.11527  0.54893  1.0000
  S   S926      1.0  0.98570  0.30895  0.52951  1.0000
  C   C2786     1.0  0.93092  0.17377  0.49524  1.0000
  H   H2794     1.0  0.93793  0.21048  0.56450  1.0000
  C   C2787     1.0  0.98304  0.27898  0.52356  1.0000
  C   C2788     1.0  0.93539  0.18515  0.49422  1.0000
  Fe  Fe466     1.0  0.78746  0.00411  0.52543  1.0000
  H   H2795     1.0  0.92776  0.22212  0.57477  1.0000
  S   S927      1.0  0.74443  0.98831  0.53561  1.0000
  C   C2789     1.0  0.90868  0.07931  0.54750  1.0000
  N   N234      1.0  0.92532  0.22756  0.55475  1.0000
  H   H2796     1.0  0.84743  0.01441  0.49858  1.0000
  H   H2797     1.0  0.90310  0.24444  0.52907  1.0000
  H   H2798     1.0  0.90776  0.21971  0.53736  1.0000
  H   H2799     1.0  0.90614  0.11890  0.55573  1.0000
  H   H2800     1.0  0.84169  0.98714  0.52791  1.0000
  C   C2790     1.0  0.98639  0.25164  0.53311  1.0000
  H   H2801     1.0  0.86834  0.99863  0.49082  1.0000
  C   C2791     1.0  0.90987  0.05349  0.48391  1.0000
  C   C2792     1.0  0.89634  0.07558  0.48657  1.0000
  H   H2802     1.0  0.97998  0.27534  0.50600  1.0000
  H   H2803     1.0  0.92769  0.16119  0.48446  1.0000
  H   H2804     1.0  0.74375  0.98720  0.50008  1.0000
  H   H2805     1.0  0.98163  0.28964  0.51970  1.0000
  H   H2806     1.0  0.91695  0.11564  0.49045  1.0000
  H   H2807     1.0  0.81575  0.98812  0.51537  1.0000
  H   H2808     1.0  0.73906  0.01710  0.55034  1.0000
  H   H2809     1.0  0.97317  0.24990  0.51174  1.0000
  C   C2793     1.0  0.74196  0.99257  0.48997  1.0000
  H   H2810     1.0  0.90738  0.10117  0.48324  1.0000
  H   H2811     1.0  0.74979  0.99832  0.48465  1.0000
  C   C2794     1.0  0.93268  0.06070  0.48378  1.0000
  H   H2812     1.0  0.90103  0.05059  0.48386  1.0000
  C   C2795     1.0  0.93130  0.16998  0.48356  1.0000
  H   H2813     1.0  0.96649  0.37088  0.41624  1.0000
  Fe  Fe467     1.0  0.75390  0.43774  0.00813  1.0000
  H   H2814     1.0  0.95534  0.51001  0.06311  1.0000
  H   H2815     1.0  0.93258  0.49781  0.30156  1.0000
  H   H2816     1.0  0.75785  0.48753  0.03046  1.0000
  H   H2817     1.0  0.80914  0.50011  0.99862  1.0000
  H   H2818     1.0  0.95915  0.54224  0.39459  1.0000
  C   C2796     1.0  0.98027  0.49980  0.23042  1.0000
  C   C2797     1.0  0.94045  0.49366  0.29395  1.0000
  C   C2798     1.0  0.91795  0.64056  0.41292  1.0000
  H   H2819     1.0  0.75871  0.44603  0.06485  1.0000
  C   C2799     1.0  0.76586  0.43961  0.05818  1.0000
  C   C2800     1.0  0.96805  0.44607  0.11589  1.0000
  Fe  Fe468     1.0  0.87617  0.52595  0.05273  1.0000
  S   S928      1.0  0.88849  0.50813  0.04437  1.0000
  S   S929      1.0  0.88144  0.53517  0.06676  1.0000
  Fe  Fe469     1.0  0.85153  0.52557  0.04376  1.0000
  S   S930      1.0  0.86190  0.50781  0.03483  1.0000
  S   S931      1.0  0.82956  0.53389  0.04554  1.0000
  Fe  Fe470     1.0  0.87030  0.49977  0.05318  1.0000
  S   S932      1.0  0.87000  0.47864  0.06381  1.0000
  Fe  Fe471     1.0  0.87892  0.51794  0.02667  1.0000
  C   C2801     1.0  0.97567  0.61295  0.43483  1.0000
  S   S933      1.0  0.85861  0.51664  0.06286  1.0000
  S   S934      1.0  0.86796  0.53666  0.03422  1.0000
  Fe  Fe472     1.0  0.84153  0.45266  0.00185  1.0000
  S   S935      1.0  0.85121  0.43107  0.00801  1.0000
  C   C2802     1.0  0.95236  0.45995  0.13023  1.0000
  Fe  Fe473     1.0  0.83305  0.45622  0.03062  1.0000
  S   S936      1.0  0.84183  0.43491  0.03902  1.0000
  S   S937      1.0  0.82353  0.47097  0.04362  1.0000
  Fe  Fe474     1.0  0.85921  0.43793  0.02174  1.0000
  S   S938      1.0  0.88108  0.43448  0.02134  1.0000
  Fe  Fe475     1.0  0.83278  0.43062  0.02448  1.0000
  S   S939      1.0  0.81927  0.41623  0.03098  1.0000
  S   S940      1.0  0.85077  0.45962  0.01426  1.0000
  S   S941      1.0  0.82272  0.45186  0.01740  1.0000
  Fe  Fe476     1.0  0.94324  0.42504  0.08239  1.0000
  S   S942      1.0  0.92697  0.41471  0.09542  1.0000
  S   S943      1.0  0.96484  0.41483  0.07813  1.0000
  Fe  Fe477     1.0  0.92546  0.45259  0.08208  1.0000
  S   S944      1.0  0.90799  0.44454  0.09475  1.0000
  S   S945      1.0  0.92252  0.47482  0.07801  1.0000
  Fe  Fe478     1.0  0.92222  0.43071  0.10697  1.0000
  S   S946      1.0  0.91676  0.42996  0.12907  1.0000
  Fe  Fe479     1.0  0.91425  0.42962  0.08175  1.0000
  S   S947      1.0  0.89631  0.42596  0.07720  1.0000
  S   S948      1.0  0.93936  0.43977  0.09504  1.0000
  S   S949      1.0  0.93096  0.43887  0.06785  1.0000
  Fe  Fe480     1.0  0.94144  0.52401  0.09843  1.0000
  S   S950      1.0  0.94994  0.50218  0.10465  1.0000
  S   S951      1.0  0.93837  0.52902  0.07725  1.0000
  Fe  Fe481     1.0  0.94227  0.52859  0.12515  1.0000
  S   S952      1.0  0.95044  0.50693  0.13320  1.0000
  S   S953      1.0  0.94047  0.54210  0.13869  1.0000
  Fe  Fe482     1.0  0.96392  0.50780  0.11291  1.0000
  H   H2820     1.0  0.94917  0.32384  0.47599  1.0000
  Fe  Fe483     1.0  0.93556  0.50370  0.12406  1.0000
  S   S954      1.0  0.92375  0.48795  0.13180  1.0000
  S   S955      1.0  0.95677  0.52971  0.10517  1.0000
  S   S956      1.0  0.92614  0.52526  0.11761  1.0000
  Fe  Fe484     1.0  0.96726  0.45742  0.17244  1.0000
  S   S957      1.0  0.98009  0.43691  0.17369  1.0000
  S   S958      1.0  0.97529  0.47570  0.16208  1.0000
  Fe  Fe485     1.0  0.94293  0.44712  0.18968  1.0000
  S   S959      1.0  0.95377  0.42562  0.19221  1.0000
  S   S960      1.0  0.92208  0.45405  0.20050  1.0000
  Fe  Fe486     1.0  0.96988  0.43309  0.19550  1.0000
  C   C2803     1.0  0.98372  0.61964  0.47167  1.0000
  Fe  Fe487     1.0  0.96265  0.43179  0.17020  1.0000
  S   S961      1.0  0.96637  0.42050  0.15411  1.0000
  S   S962      1.0  0.95846  0.45420  0.19431  1.0000
  S   S963      1.0  0.95046  0.45275  0.16746  1.0000
  Fe  Fe488     1.0  0.92510  0.51670  0.21438  1.0000
  S   S964      1.0  0.94300  0.49985  0.21290  1.0000
  S   S965      1.0  0.91298  0.52072  0.19899  1.0000
  Fe  Fe489     1.0  0.92916  0.52116  0.23984  1.0000
  S   S966      1.0  0.94721  0.50462  0.24032  1.0000
  S   S967      1.0  0.92228  0.53206  0.25669  1.0000
  Fe  Fe490     1.0  0.95264  0.51301  0.21823  1.0000
  S   S968      1.0  0.97298  0.51638  0.20778  1.0000
  Fe  Fe491     1.0  0.93570  0.49328  0.23503  1.0000
  S   S969      1.0  0.93675  0.47165  0.24472  1.0000
  S   S970      1.0  0.93535  0.53055  0.21802  1.0000
  S   S971      1.0  0.91698  0.50904  0.23628  1.0000
  H   H2821     1.0  0.97940  0.48912  0.29128  1.0000
  N   N235      1.0  0.92357  0.48298  0.17194  1.0000
  C   C2804     1.0  0.92854  0.60704  0.47684  1.0000
  H   H2822     1.0  0.75106  0.46704  0.03154  1.0000
  S   S972      1.0  0.94594  0.58140  0.42232  1.0000
  Fe  Fe492     1.0  0.95667  0.52286  0.31339  1.0000
  S   S973      1.0  0.96025  0.50256  0.32713  1.0000
  S   S974      1.0  0.96433  0.52414  0.29112  1.0000
  Fe  Fe493     1.0  0.94366  0.53720  0.33661  1.0000
  S   S975      1.0  0.94530  0.51802  0.35202  1.0000
  S   S976      1.0  0.93600  0.55757  0.34183  1.0000
  Fe  Fe494     1.0  0.96575  0.51291  0.33973  1.0000
  H   H2823     1.0  0.98332  0.47697  0.35349  1.0000
  Fe  Fe495     1.0  0.93950  0.50956  0.33803  1.0000
  S   S977      1.0  0.92473  0.49650  0.34667  1.0000
  S   S978      1.0  0.96455  0.53247  0.32481  1.0000
  S   S979      1.0  0.93546  0.52940  0.32375  1.0000
  Fe  Fe496     1.0  0.96865  0.43763  0.29315  1.0000
  S   S980      1.0  0.96188  0.43210  0.31547  1.0000
  H   H2824     1.0  0.84120  0.43550  0.98562  1.0000
  Fe  Fe497     1.0  0.95161  0.42281  0.28757  1.0000
  S   S981      1.0  0.94269  0.41619  0.30949  1.0000
  S   S982      1.0  0.94546  0.41764  0.27138  1.0000
  Fe  Fe498     1.0  0.94182  0.43713  0.31078  1.0000
  S   S983      1.0  0.92378  0.44895  0.32242  1.0000
  Fe  Fe499     1.0  0.96346  0.41166  0.31248  1.0000
  S   S984      1.0  0.97399  0.39320  0.32542  1.0000
  S   S985      1.0  0.94851  0.44416  0.28863  1.0000
  S   S986      1.0  0.97247  0.41677  0.29036  1.0000
  C   C2805     1.0  0.74532  0.49055  0.04954  1.0000
  Fe  Fe500     1.0  0.95089  0.33680  0.38518  1.0000
  H   H2825     1.0  0.76716  0.40918  0.99254  1.0000
  S   S987      1.0  0.94111  0.35705  0.37432  1.0000
  H   H2826     1.0  0.94304  0.35295  0.45259  1.0000
  C   C2806     1.0  0.95719  0.45358  0.34816  1.0000
  C   C2807     1.0  0.96351  0.33697  0.33529  1.0000
  C   C2808     1.0  0.94649  0.32043  0.45803  1.0000
  C   C2809     1.0  0.83097  0.55972  0.00023  1.0000
  S   S988      1.0  0.96175  0.33438  0.40107  1.0000
  H   H2827     1.0  0.98438  0.42845  0.23653  1.0000
  C   C2810     1.0  0.87269  0.45071  0.09327  1.0000
  C   C2811     1.0  0.80855  0.53217  0.03684  1.0000
  H   H2828     1.0  0.88184  0.46704  0.02574  1.0000
  H   H2829     1.0  0.96938  0.52964  0.12968  1.0000
  H   H2830     1.0  0.90667  0.47713  0.27917  1.0000
  C   C2812     1.0  0.96473  0.38322  0.33898  1.0000
  C   C2813     1.0  0.97138  0.37127  0.34621  1.0000
  C   C2814     1.0  0.96429  0.36318  0.35710  1.0000
  C   C2815     1.0  0.95048  0.36702  0.36089  1.0000
  C   C2816     1.0  0.94383  0.37892  0.35363  1.0000
  C   C2817     1.0  0.95091  0.38697  0.34271  1.0000
  H   H2831     1.0  0.82590  0.56280  0.04532  1.0000
  H   H2832     1.0  0.96953  0.35402  0.36259  1.0000
  H   H2833     1.0  0.93315  0.38197  0.35649  1.0000
  H   H2834     1.0  0.94566  0.39615  0.33728  1.0000
  H   H2835     1.0  0.96070  0.47106  0.13846  1.0000
  H   H2836     1.0  0.97849  0.33352  0.44020  1.0000
  H   H2837     1.0  0.98614  0.40936  0.09183  1.0000
  C   C2818     1.0  0.97321  0.60097  0.46692  1.0000
  C   C2819     1.0  0.85164  0.49810  0.00433  1.0000
  C   C2820     1.0  0.81984  0.56105  0.01069  1.0000
  C   C2821     1.0  0.98412  0.41990  0.08716  1.0000
  H   H2838     1.0  0.94690  0.44776  0.12055  1.0000
  C   C2822     1.0  0.92516  0.48346  0.33929  1.0000
  C   C2823     1.0  0.93565  0.47929  0.32900  1.0000
  C   C2824     1.0  0.93550  0.46859  0.32373  1.0000
  C   C2825     1.0  0.92483  0.46216  0.32869  1.0000
  C   C2826     1.0  0.91440  0.46648  0.33884  1.0000
  C   C2827     1.0  0.91462  0.47696  0.34417  1.0000
  H   H2839     1.0  0.94387  0.48422  0.32518  1.0000
  H   H2840     1.0  0.94348  0.46541  0.31577  1.0000
  H   H2841     1.0  0.90611  0.46162  0.34270  1.0000
  H   H2842     1.0  0.90649  0.48009  0.35211  1.0000
  H   H2843     1.0  0.97553  0.44825  0.26025  1.0000
  C   C2828     1.0  0.97437  0.53137  0.35377  1.0000
  H   H2844     1.0  0.96704  0.61898  0.44012  1.0000
  H   H2845     1.0  0.87068  0.45903  0.09838  1.0000
  H   H2846     1.0  0.86813  0.42806  0.09176  1.0000
  H   H2847     1.0  0.95405  0.61317  0.47370  1.0000
  H   H2848     1.0  0.96510  0.53170  0.35158  1.0000
  H   H2849     1.0  0.96954  0.55243  0.35340  1.0000
  H   H2850     1.0  0.76838  0.44127  0.03205  1.0000
  C   C2829     1.0  0.85014  0.45957  0.08939  1.0000
  C   C2830     1.0  0.93772  0.56412  0.38208  1.0000
  C   C2831     1.0  0.93752  0.57473  0.37085  1.0000
  C   C2832     1.0  0.93739  0.57256  0.35843  1.0000
  C   C2833     1.0  0.93794  0.55971  0.35702  1.0000
  C   C2834     1.0  0.93859  0.54904  0.36816  1.0000
  C   C2835     1.0  0.93816  0.55130  0.38067  1.0000
  H   H2851     1.0  0.91037  0.47013  0.17557  1.0000
  H   H2852     1.0  0.93680  0.58089  0.34989  1.0000
  H   H2853     1.0  0.93894  0.53913  0.36726  1.0000
  H   H2854     1.0  0.93817  0.54304  0.38931  1.0000
  C   C2836     1.0  0.98143  0.52979  0.16943  1.0000
  H   H2855     1.0  0.90889  0.63656  0.41801  1.0000
  C   C2837     1.0  0.92368  0.61203  0.46501  1.0000
  C   C2838     1.0  0.92856  0.60522  0.45450  1.0000
  C   C2839     1.0  0.93836  0.59345  0.45587  1.0000
  C   C2840     1.0  0.94296  0.58829  0.46779  1.0000
  C   C2841     1.0  0.86589  0.52743  0.99827  1.0000
  H   H2856     1.0  0.91605  0.62111  0.46405  1.0000
  H   H2857     1.0  0.94218  0.58812  0.44788  1.0000
  C   C2842     1.0  0.85720  0.53057  0.98966  1.0000
  S   S989      1.0  0.92798  0.60498  0.40320  1.0000
  H   H2858     1.0  0.95033  0.57901  0.46886  1.0000
  C   C2843     1.0  0.98562  0.35999  0.47523  1.0000
  C   C2844     1.0  0.73813  0.46677  0.05104  1.0000
  C   C2845     1.0  0.96269  0.32366  0.34086  1.0000
  H   H2859     1.0  0.94929  0.63958  0.39998  1.0000
  C   C2846     1.0  0.93474  0.48672  0.16359  1.0000
  H   H2860     1.0  0.95971  0.55475  0.40991  1.0000
  C   C2847     1.0  0.95108  0.36314  0.41398  1.0000
  H   H2861     1.0  0.95365  0.36571  0.40311  1.0000
  C   C2848     1.0  0.93390  0.52915  0.26652  1.0000
  C   C2849     1.0  0.92967  0.53202  0.27929  1.0000
  C   C2850     1.0  0.93891  0.53036  0.28699  1.0000
  C   C2851     1.0  0.95245  0.52605  0.28186  1.0000
  C   C2852     1.0  0.95667  0.52327  0.26906  1.0000
  C   C2853     1.0  0.94744  0.52468  0.26149  1.0000
  H   H2862     1.0  0.91922  0.53563  0.28319  1.0000
  H   H2863     1.0  0.93553  0.53277  0.29672  1.0000
  H   H2864     1.0  0.96712  0.52031  0.26478  1.0000
  H   H2865     1.0  0.95090  0.52303  0.25146  1.0000
  C   C2854     1.0  0.97086  0.42308  0.22852  1.0000
  C   C2855     1.0  0.95874  0.41936  0.23145  1.0000
  C   C2856     1.0  0.95107  0.41768  0.24463  1.0000
  C   C2857     1.0  0.95540  0.41980  0.25496  1.0000
  C   C2858     1.0  0.96747  0.42365  0.25201  1.0000
  C   C2859     1.0  0.97518  0.42526  0.23883  1.0000
  H   H2866     1.0  0.95534  0.41758  0.22360  1.0000
  H   H2867     1.0  0.94175  0.41472  0.24681  1.0000
  H   H2868     1.0  0.97085  0.42537  0.25990  1.0000
  H   H2869     1.0  0.94559  0.47831  0.26839  1.0000
  C   C2860     1.0  0.92400  0.45741  0.21493  1.0000
  C   C2861     1.0  0.93433  0.44937  0.22103  1.0000
  C   C2862     1.0  0.93777  0.45337  0.23079  1.0000
  C   C2863     1.0  0.93101  0.46554  0.23430  1.0000
  C   C2864     1.0  0.92025  0.47329  0.22870  1.0000
  C   C2865     1.0  0.91653  0.46906  0.21923  1.0000
  H   H2870     1.0  0.93999  0.44027  0.21784  1.0000
  H   H2871     1.0  0.94604  0.44730  0.23513  1.0000
  H   H2872     1.0  0.91494  0.48270  0.23142  1.0000
  H   H2873     1.0  0.90840  0.47523  0.21472  1.0000
  C   C2866     1.0  0.93264  0.53627  0.15542  1.0000
  C   C2867     1.0  0.93538  0.53997  0.16582  1.0000
  C   C2868     1.0  0.92971  0.53491  0.17925  1.0000
  C   C2869     1.0  0.92072  0.52669  0.18229  1.0000
  C   C2870     1.0  0.91775  0.52325  0.17186  1.0000
  C   C2871     1.0  0.92396  0.52774  0.15848  1.0000
  H   H2874     1.0  0.94196  0.54670  0.16350  1.0000
  H   H2875     1.0  0.93191  0.53774  0.18724  1.0000
  H   H2876     1.0  0.91073  0.51698  0.17416  1.0000
  H   H2877     1.0  0.92174  0.52490  0.15051  1.0000
  C   C2872     1.0  0.93058  0.42720  0.13600  1.0000
  C   C2873     1.0  0.92898  0.43138  0.14782  1.0000
  C   C2874     1.0  0.93993  0.42939  0.15341  1.0000
  C   C2875     1.0  0.95251  0.42302  0.14731  1.0000
  C   C2876     1.0  0.95410  0.41874  0.13556  1.0000
  C   C2877     1.0  0.94319  0.42094  0.12983  1.0000
  H   H2878     1.0  0.91924  0.43618  0.15265  1.0000
  H   H2879     1.0  0.93856  0.43256  0.16258  1.0000
  H   H2880     1.0  0.96380  0.41377  0.13082  1.0000
  H   H2881     1.0  0.94448  0.41757  0.12078  1.0000
  C   C2878     1.0  0.92168  0.47881  0.09322  1.0000
  C   C2879     1.0  0.92163  0.49181  0.09352  1.0000
  C   C2880     1.0  0.92177  0.49473  0.10551  1.0000
  C   C2881     1.0  0.92196  0.48467  0.11724  1.0000
  C   C2882     1.0  0.92132  0.47185  0.11710  1.0000
  C   C2883     1.0  0.92112  0.46897  0.10513  1.0000
  H   H2882     1.0  0.92168  0.49961  0.08449  1.0000
  H   H2883     1.0  0.92182  0.50481  0.10560  1.0000
  H   H2884     1.0  0.92115  0.46408  0.12617  1.0000
  H   H2885     1.0  0.92027  0.45914  0.10532  1.0000
  C   C2884     1.0  0.88554  0.43200  0.03676  1.0000
  C   C2885     1.0  0.87672  0.42855  0.04887  1.0000
  C   C2886     1.0  0.88042  0.42636  0.06106  1.0000
  C   C2887     1.0  0.89278  0.42803  0.06138  1.0000
  C   C2888     1.0  0.90171  0.43143  0.04926  1.0000
  C   C2889     1.0  0.89812  0.43330  0.03698  1.0000
  H   H2886     1.0  0.86715  0.42723  0.04885  1.0000
  H   H2887     1.0  0.87369  0.42312  0.07026  1.0000
  H   H2888     1.0  0.91137  0.43251  0.04935  1.0000
  H   H2889     1.0  0.90508  0.43580  0.02763  1.0000
  C   C2890     1.0  0.92255  0.52963  0.07495  1.0000
  C   C2891     1.0  0.92148  0.52584  0.06375  1.0000
  C   C2892     1.0  0.90894  0.52706  0.06128  1.0000
  C   C2893     1.0  0.89743  0.53257  0.06975  1.0000
  C   C2894     1.0  0.89855  0.53633  0.08093  1.0000
  C   C2895     1.0  0.91102  0.53461  0.08369  1.0000
  H   H2890     1.0  0.93036  0.52207  0.05688  1.0000
  H   H2891     1.0  0.90822  0.52421  0.05259  1.0000
  H   H2892     1.0  0.88971  0.54072  0.08746  1.0000
  H   H2893     1.0  0.91173  0.53773  0.09223  1.0000
  C   C2896     1.0  0.85670  0.47603  0.05923  1.0000
  C   C2897     1.0  0.85772  0.46413  0.05563  1.0000
  C   C2898     1.0  0.84751  0.46261  0.05084  1.0000
  C   C2899     1.0  0.83603  0.47274  0.05013  1.0000
  C   C2900     1.0  0.83478  0.48443  0.05426  1.0000
  C   C2901     1.0  0.84518  0.48614  0.05865  1.0000
  H   H2894     1.0  0.86643  0.45615  0.05630  1.0000
  H   H2895     1.0  0.84859  0.45354  0.04773  1.0000
  H   H2896     1.0  0.82595  0.49234  0.05368  1.0000
  H   H2897     1.0  0.84427  0.49535  0.06153  1.0000
  S   S990      1.0  0.75140  0.51069  0.01076  1.0000
  H   H2898     1.0  0.79183  0.53204  0.02946  1.0000
  C   C2902     1.0  0.96971  0.32959  0.44528  1.0000
  C   C2903     1.0  0.92998  0.32774  0.36537  1.0000
  H   H2899     1.0  0.97239  0.35689  0.44323  1.0000
  C   C2904     1.0  0.97537  0.54781  0.25973  1.0000
  C   C2905     1.0  0.85984  0.43653  0.09039  1.0000
  H   H2900     1.0  0.82985  0.44463  0.08206  1.0000
  Fe  Fe501     1.0  0.75634  0.53043  0.99990  1.0000
  H   H2901     1.0  0.92653  0.33497  0.37205  1.0000
  H   H2902     1.0  0.87951  0.45296  0.08335  1.0000
  C   C2906     1.0  0.97963  0.44201  0.34970  1.0000
  H   H2903     1.0  0.96670  0.37463  0.43787  1.0000
  C   C2907     1.0  0.98542  0.45821  0.29404  1.0000
  H   H2904     1.0  0.98450  0.48357  0.27580  1.0000
  C   C2908     1.0  0.97041  0.52666  0.16765  1.0000
  C   C2909     1.0  0.96470  0.61195  0.47177  1.0000
  H   H2905     1.0  0.97356  0.49402  0.23033  1.0000
  H   H2906     1.0  0.95112  0.47321  0.35235  1.0000
  C   C2910     1.0  0.75077  0.48375  0.03910  1.0000
  Fe  Fe502     1.0  0.75938  0.51315  0.02698  1.0000
  C   C2911     1.0  0.96887  0.54413  0.38838  1.0000
  C   C2912     1.0  0.97116  0.43884  0.07426  1.0000
  C   C2913     1.0  0.97385  0.42521  0.08018  1.0000
  N   N236      1.0  0.97530  0.46308  0.22781  1.0000
  C   C2914     1.0  0.81014  0.52871  0.01484  1.0000
  S   S991      1.0  0.77689  0.52129  0.99006  1.0000
  H   H2907     1.0  0.96333  0.44296  0.06876  1.0000
  H   H2908     1.0  0.85368  0.56221  0.01542  1.0000
  H   H2909     1.0  0.94770  0.45391  0.34625  1.0000
  C   C2915     1.0  0.82955  0.49454  0.01449  1.0000
  C   C2916     1.0  0.94696  0.64826  0.39221  1.0000
  S   S992      1.0  0.97257  0.33488  0.46795  1.0000
  C   C2917     1.0  0.97684  0.54313  0.35492  1.0000
  H   H2910     1.0  0.83020  0.55797  0.99094  1.0000
  C   C2918     1.0  0.97001  0.62138  0.47401  1.0000
  H   H2911     1.0  0.84852  0.42509  0.08605  1.0000
  S   S993      1.0  0.93838  0.32218  0.39803  1.0000
  H   H2912     1.0  0.97917  0.50316  0.13496  1.0000
  H   H2913     1.0  0.80141  0.43707  0.99061  1.0000
  H   H2914     1.0  0.85197  0.55898  0.99390  1.0000
  H   H2915     1.0  0.91861  0.64338  0.40192  1.0000
  C   C2919     1.0  0.82233  0.53082  0.03410  1.0000
  S   S994      1.0  0.74588  0.42644  0.02861  1.0000
  H   H2916     1.0  0.95574  0.49872  0.29957  1.0000
  H   H2917     1.0  0.80256  0.53425  0.04635  1.0000
  C   C2920     1.0  0.78727  0.42812  0.00658  1.0000
  C   C2921     1.0  0.78494  0.42072  0.01978  1.0000
  C   C2922     1.0  0.79485  0.41696  0.02721  1.0000
  C   C2923     1.0  0.80700  0.42082  0.02155  1.0000
  C   C2924     1.0  0.80929  0.42824  0.00835  1.0000
  C   C2925     1.0  0.79953  0.43164  0.00085  1.0000
  H   H2918     1.0  0.77563  0.41767  0.02421  1.0000
  H   H2919     1.0  0.79310  0.41110  0.03736  1.0000
  H   H2920     1.0  0.81871  0.43106  0.00383  1.0000
  H   H2921     1.0  0.83476  0.57581  0.03582  1.0000
  H   H2922     1.0  0.82135  0.49419  0.02316  1.0000
  C   C2926     1.0  0.82388  0.52734  0.01212  1.0000
  H   H2923     1.0  0.94941  0.55906  0.26279  1.0000
  H   H2924     1.0  0.97397  0.53529  0.38391  1.0000
  Fe  Fe503     1.0  0.94666  0.61245  0.39300  1.0000
  C   C2927     1.0  0.97867  0.45389  0.25020  1.0000
  N   N237      1.0  0.96669  0.54896  0.25085  1.0000
  C   C2928     1.0  0.97700  0.49073  0.28140  1.0000
  C   C2929     1.0  0.98657  0.46358  0.12793  1.0000
  H   H2925     1.0  0.94355  0.49175  0.06841  1.0000
  C   C2930     1.0  0.98399  0.51942  0.35508  1.0000
  C   C2931     1.0  0.91615  0.43872  0.28429  1.0000
  H   H2926     1.0  0.97186  0.61721  0.35889  1.0000
  H   H2927     1.0  0.97923  0.49875  0.16780  1.0000
  C   C2932     1.0  0.80247  0.53093  0.02730  1.0000
  S   S995      1.0  0.95932  0.59217  0.39056  1.0000
  H   H2928     1.0  0.97800  0.50094  0.27579  1.0000
  H   H2929     1.0  0.96352  0.63004  0.47758  1.0000
  H   H2930     1.0  0.97706  0.45747  0.06990  1.0000
  C   C2933     1.0  0.94204  0.34394  0.34914  1.0000
  S   S996      1.0  0.74845  0.50624  0.04792  1.0000
  H   H2931     1.0  0.98300  0.47235  0.13270  1.0000
  C   C2934     1.0  0.97436  0.60223  0.43054  1.0000
  C   C2935     1.0  0.97778  0.55413  0.41507  1.0000
  C   C2936     1.0  0.83830  0.44572  0.08501  1.0000
  C   C2937     1.0  0.83435  0.56528  0.03697  1.0000
  N   N238      1.0  0.94152  0.33087  0.35490  1.0000
  H   H2932     1.0  0.98206  0.36829  0.34340  1.0000
  H   H2933     1.0  0.91265  0.44656  0.25261  1.0000
  H   H2934     1.0  0.98073  0.50920  0.08066  1.0000
  H   H2935     1.0  0.87874  0.45159  0.99164  1.0000
  H   H2936     1.0  0.96340  0.52253  0.17628  1.0000
  S   S997      1.0  0.98327  0.58339  0.41529  1.0000
  C   C2938     1.0  0.90922  0.46632  0.28075  1.0000
  C   C2939     1.0  0.91821  0.44037  0.26041  1.0000
  C   C2940     1.0  0.78794  0.46324  0.02540  1.0000
  C   C2941     1.0  0.93777  0.35303  0.43458  1.0000
  C   C2942     1.0  0.96743  0.47645  0.08625  1.0000
  S   S998      1.0  0.80289  0.52845  0.00208  1.0000
  H   H2937     1.0  0.79819  0.46253  0.98493  1.0000
  S   S999      1.0  0.78027  0.50274  0.01963  1.0000
  S   S1000     1.0  0.95215  0.61156  0.41183  1.0000
  C   C2943     1.0  0.98123  0.45301  0.35325  1.0000
  C   C2944     1.0  0.98535  0.49004  0.17287  1.0000
  C   C2945     1.0  0.74698  0.47203  0.03974  1.0000
  C   C2946     1.0  0.97120  0.45632  0.24062  1.0000
  C   C2947     1.0  0.91172  0.46020  0.27001  1.0000
  H   H2938     1.0  0.90833  0.46294  0.30192  1.0000
  H   H2939     1.0  0.96862  0.47936  0.26682  1.0000
  H   H2940     1.0  0.93463  0.56030  0.24820  1.0000
  H   H2941     1.0  0.91455  0.43825  0.30509  1.0000
  H   H2942     1.0  0.91114  0.46643  0.26012  1.0000
  C   C2948     1.0  0.91015  0.45838  0.29347  1.0000
  N   N239      1.0  0.90218  0.46999  0.04335  1.0000
  C   C2949     1.0  0.90794  0.47978  0.03433  1.0000
  C   C2950     1.0  0.89294  0.46545  0.04032  1.0000
  C   C2951     1.0  0.90454  0.48522  0.02187  1.0000
  C   C2952     1.0  0.88926  0.47067  0.02797  1.0000
  S   S1001     1.0  0.77517  0.43310  0.99691  1.0000
  C   C2953     1.0  0.90524  0.46499  0.05667  1.0000
  H   H2943     1.0  0.91500  0.48365  0.03686  1.0000
  H   H2944     1.0  0.88816  0.45794  0.04760  1.0000
  H   H2945     1.0  0.90895  0.49315  0.01481  1.0000
  C   C2954     1.0  0.96774  0.46470  0.21777  1.0000
  C   C2955     1.0  0.83841  0.49417  0.99150  1.0000
  H   H2946     1.0  0.90415  0.45448  0.06086  1.0000
  H   H2947     1.0  0.91556  0.46528  0.05632  1.0000
  H   H2948     1.0  0.89840  0.47127  0.06357  1.0000
  S   S1002     1.0  0.94770  0.63093  0.37652  1.0000
  H   H2949     1.0  0.79352  0.46932  0.01702  1.0000
  C   C2956     1.0  0.78758  0.46349  0.03851  1.0000
  C   C2957     1.0  0.77384  0.44739  0.03396  1.0000
  H   H2950     1.0  0.98331  0.51033  0.06288  1.0000
  C   C2958     1.0  0.95831  0.36601  0.42146  1.0000
  C   C2959     1.0  0.95357  0.49413  0.29279  1.0000
  S   S1003     1.0  0.93694  0.56636  0.39817  1.0000
  N   N240      1.0  0.83315  0.56320  0.02436  1.0000
  C   C2960     1.0  0.94076  0.35657  0.42061  1.0000
  H   H2951     1.0  0.75991  0.43463  0.05490  1.0000
  C   C2961     1.0  0.91362  0.44450  0.29527  1.0000
  C   C2962     1.0  0.95214  0.49027  0.07252  1.0000
  C   C2963     1.0  0.97888  0.44706  0.07499  1.0000
  H   H2952     1.0  0.81100  0.48501  0.01151  1.0000
  H   H2953     1.0  0.86262  0.53068  0.00763  1.0000
  Fe  Fe504     1.0  0.78295  0.52309  0.00783  1.0000
  H   H2954     1.0  0.86066  0.50029  0.00496  1.0000
  C   C2964     1.0  0.91963  0.64944  0.43103  1.0000
  C   C2965     1.0  0.96075  0.48346  0.27442  1.0000
  S   S1004     1.0  0.98562  0.49779  0.10849  1.0000
  S   S1005     1.0  0.76259  0.53391  0.01683  1.0000
  N   N241      1.0  0.91780  0.65182  0.41830  1.0000
  H   H2955     1.0  0.95364  0.35759  0.33518  1.0000
  C   C2966     1.0  0.95357  0.55515  0.25377  1.0000
  H   H2956     1.0  0.87783  0.44151  0.09943  1.0000
  N   N242      1.0  0.91502  0.44657  0.27189  1.0000
  H   H2957     1.0  0.97278  0.55868  0.42360  1.0000
  Fe  Fe505     1.0  0.77256  0.50193  0.00256  1.0000
  H   H2958     1.0  0.98434  0.53555  0.12268  1.0000
  H   H2959     1.0  0.96012  0.52606  0.15334  1.0000
  H   H2960     1.0  0.94226  0.46346  0.13534  1.0000
  H   H2961     1.0  0.96711  0.55313  0.38021  1.0000
  H   H2962     1.0  0.98561  0.34320  0.38434  1.0000
  C   C2967     1.0  0.94516  0.55596  0.24553  1.0000
  C   C2968     1.0  0.98166  0.61237  0.37525  1.0000
  H   H2963     1.0  0.97281  0.46911  0.20750  1.0000
  C   C2969     1.0  0.94775  0.48275  0.27533  1.0000
  C   C2970     1.0  0.96369  0.54438  0.23117  1.0000
  H   H2964     1.0  0.98128  0.40267  0.17204  1.0000
  C   C2971     1.0  0.97581  0.51009  0.07246  1.0000
  H   H2965     1.0  0.97222  0.33938  0.32787  1.0000
  C   C2972     1.0  0.81596  0.49044  0.00170  1.0000
  H   H2966     1.0  0.98223  0.53888  0.23730  1.0000
  H   H2967     1.0  0.96962  0.54989  0.26965  1.0000
  C   C2973     1.0  0.91943  0.48540  0.18456  1.0000
  C   C2974     1.0  0.92699  0.49088  0.18943  1.0000
  C   C2975     1.0  0.94242  0.49245  0.16807  1.0000
  C   C2976     1.0  0.93858  0.49440  0.18111  1.0000
  H   H2968     1.0  0.91036  0.48282  0.19104  1.0000
  H   H2969     1.0  0.92374  0.49261  0.19951  1.0000
  H   H2970     1.0  0.95130  0.49537  0.16150  1.0000
  H   H2971     1.0  0.94439  0.49891  0.18466  1.0000
  N   N243      1.0  0.90774  0.54993  0.36564  1.0000
  C   C2977     1.0  0.90923  0.54109  0.37750  1.0000
  C   C2978     1.0  0.90809  0.54542  0.35469  1.0000
  C   C2979     1.0  0.91135  0.52733  0.37855  1.0000
  C   C2980     1.0  0.91007  0.53173  0.35543  1.0000
  C   C2981     1.0  0.91172  0.52265  0.36744  1.0000
  C   C2982     1.0  0.90505  0.56433  0.36488  1.0000
  H   H2972     1.0  0.90904  0.54466  0.38615  1.0000
  H   H2973     1.0  0.90714  0.55241  0.34522  1.0000
  H   H2974     1.0  0.91280  0.52033  0.38788  1.0000
  H   H2975     1.0  0.91051  0.52813  0.34672  1.0000
  H   H2976     1.0  0.91346  0.51200  0.36804  1.0000
  H   H2977     1.0  0.90912  0.56972  0.35462  1.0000
  H   H2978     1.0  0.89421  0.56840  0.36758  1.0000
  H   H2979     1.0  0.90996  0.56647  0.37171  1.0000
  H   H2980     1.0  0.84341  0.55850  0.04008  1.0000
  H   H2981     1.0  0.98214  0.40175  0.19525  1.0000
  C   C2983     1.0  0.96284  0.46411  0.13201  1.0000
  S   S1006     1.0  0.98104  0.42448  0.21223  1.0000
  C   C2984     1.0  0.84130  0.49684  0.01560  1.0000
  S   S1007     1.0  0.98200  0.50546  0.35095  1.0000
  N   N244      1.0  0.77344  0.44776  0.04680  1.0000
  C   C2985     1.0  0.84878  0.43479  0.08718  1.0000
  H   H2982     1.0  0.85081  0.46944  0.08965  1.0000
  H   H2983     1.0  0.81039  0.56018  0.00966  1.0000
  H   H2984     1.0  0.89213  0.48512  0.00921  1.0000
  H   H2985     1.0  0.93007  0.34750  0.43980  1.0000
  C   C2986     1.0  0.97924  0.61004  0.36400  1.0000
  H   H2986     1.0  0.78122  0.45495  0.01291  1.0000
  H   H2987     1.0  0.96612  0.43390  0.34430  1.0000
  H   H2988     1.0  0.95116  0.47017  0.08351  1.0000
  C   C2987     1.0  0.96855  0.52877  0.15467  1.0000
  C   C2988     1.0  0.97744  0.46685  0.31427  1.0000
  C   C2989     1.0  0.98512  0.47734  0.17189  1.0000
  H   H2989     1.0  0.93406  0.35196  0.35239  1.0000
  H   H2990     1.0  0.87792  0.43092  0.98909  1.0000
  C   C2990     1.0  0.96339  0.36511  0.44277  1.0000
  H   H2991     1.0  0.97607  0.35980  0.47330  1.0000
  C   C2991     1.0  0.96753  0.44234  0.34710  1.0000
  H   H2992     1.0  0.74261  0.49848  0.99165  1.0000
  C   C2992     1.0  0.93808  0.59505  0.47831  1.0000
  H   H2993     1.0  0.77123  0.46163  0.99138  1.0000
  C   C2993     1.0  0.87886  0.52025  0.99469  1.0000
  N   N245      1.0  0.95526  0.36259  0.43517  1.0000
  S   S1008     1.0  0.74459  0.45810  0.01257  1.0000
  H   H2994     1.0  0.92897  0.43916  0.25592  1.0000
  N   N246      1.0  0.86045  0.44883  0.09133  1.0000
  C   C2994     1.0  0.97522  0.46121  0.30493  1.0000
  C   C2995     1.0  0.97045  0.55191  0.40728  1.0000
  H   H2995     1.0  0.97018  0.43885  0.10973  1.0000
  Fe  Fe506     1.0  0.94112  0.58448  0.40219  1.0000
  S   S1009     1.0  0.88971  0.51622  0.00558  1.0000
  C   C2996     1.0  0.97833  0.45038  0.11794  1.0000
  H   H2996     1.0  0.91916  0.42793  0.28570  1.0000
  C   C2997     1.0  0.95918  0.46446  0.35164  1.0000
  C   C2998     1.0  0.97305  0.47541  0.35791  1.0000
  H   H2997     1.0  0.82979  0.52557  0.00249  1.0000
  H   H2998     1.0  0.96770  0.53991  0.22248  1.0000
  H   H2999     1.0  0.98301  0.52806  0.17946  1.0000
  C   C2999     1.0  0.93754  0.48797  0.28512  1.0000
  N   N247      1.0  0.97561  0.45941  0.12579  1.0000
  H   H3000     1.0  0.98402  0.59619  0.35109  1.0000
  H   H3001     1.0  0.92738  0.48767  0.28583  1.0000
  H   H3002     1.0  0.95792  0.36563  0.45319  1.0000
  C   C3000     1.0  0.95027  0.55048  0.23420  1.0000
  N   N248      1.0  0.96350  0.48918  0.28304  1.0000
  H   H3003     1.0  0.96728  0.32571  0.42741  1.0000
  H   H3004     1.0  0.93529  0.35398  0.41492  1.0000
  H   H3005     1.0  0.84723  0.53616  0.99243  1.0000
  C   C3001     1.0  0.94517  0.35612  0.44174  1.0000
  S   S1010     1.0  0.77923  0.48282  0.99569  1.0000
  C   C3002     1.0  0.95498  0.45103  0.12198  1.0000
  C   C3003     1.0  0.84411  0.56199  0.01412  1.0000
  N   N249      1.0  0.82835  0.49289  0.00264  1.0000
  H   H3006     1.0  0.94375  0.55071  0.22797  1.0000
  N   N250      1.0  0.88823  0.49540  0.09447  1.0000
  C   C3004     1.0  0.88694  0.50593  0.09999  1.0000
  C   C3005     1.0  0.88973  0.48265  0.10210  1.0000
  C   C3006     1.0  0.88722  0.50384  0.11347  1.0000
  C   C3007     1.0  0.88981  0.48020  0.11569  1.0000
  C   C3008     1.0  0.88869  0.49088  0.12135  1.0000
  C   C3009     1.0  0.88897  0.49778  0.08008  1.0000
  H   H3007     1.0  0.88589  0.51601  0.09389  1.0000
  H   H3008     1.0  0.89142  0.47424  0.09757  1.0000
  H   H3009     1.0  0.88666  0.51219  0.11767  1.0000
  H   H3010     1.0  0.89147  0.47003  0.12160  1.0000
  H   H3011     1.0  0.88941  0.48906  0.13169  1.0000
  H   H3012     1.0  0.89919  0.49865  0.07444  1.0000
  H   H3013     1.0  0.88633  0.48960  0.07755  1.0000
  H   H3014     1.0  0.88197  0.50720  0.07672  1.0000
  S   S1011     1.0  0.92214  0.61141  0.43986  1.0000
  C   C3010     1.0  0.97183  0.54377  0.23962  1.0000
  C   C3011     1.0  0.78021  0.45564  0.04916  1.0000
  C   C3012     1.0  0.83001  0.52818  0.02179  1.0000
  H   H3015     1.0  0.93778  0.48519  0.15344  1.0000
  C   C3013     1.0  0.85017  0.49685  0.99216  1.0000
  C   C3014     1.0  0.83889  0.45817  0.08626  1.0000
  C   C3015     1.0  0.91568  0.47691  0.16714  1.0000
  H   H3016     1.0  0.92211  0.47072  0.15994  1.0000
  C   C3016     1.0  0.78105  0.45515  0.02308  1.0000
  C   C3017     1.0  0.98251  0.51076  0.21992  1.0000
  H   H3017     1.0  0.79299  0.46970  0.04041  1.0000
  C   C3018     1.0  0.95883  0.50057  0.06959  1.0000
  H   H3018     1.0  0.90842  0.48485  0.16204  1.0000
  H   H3019     1.0  0.77269  0.43176  0.06390  1.0000
  Fe  Fe507     1.0  0.93458  0.60254  0.42220  1.0000
  Fe  Fe508     1.0  0.96306  0.59067  0.41062  1.0000
  C   C3019     1.0  0.89506  0.48069  0.01872  1.0000
  H   H3020     1.0  0.81248  0.56346  0.03097  1.0000
  N   N251      1.0  0.97673  0.54628  0.39646  1.0000
  C   C3020     1.0  0.94571  0.64669  0.37999  1.0000
  H   H3021     1.0  0.96648  0.45479  0.21761  1.0000
  H   H3022     1.0  0.84060  0.52724  0.01956  1.0000
  H   H3023     1.0  0.93712  0.58466  0.37181  1.0000
  H   H3024     1.0  0.96881  0.54702  0.12782  1.0000
  H   H3025     1.0  0.96221  0.45257  0.24341  1.0000
  C   C3021     1.0  0.96471  0.32902  0.45903  1.0000
  C   C3022     1.0  0.82109  0.56287  0.02274  1.0000
  H   H3026     1.0  0.77990  0.45593  0.05934  1.0000
  H   H3027     1.0  0.96561  0.45933  0.30603  1.0000
  C   C3023     1.0  0.84320  0.56022  0.00192  1.0000
  H   H3028     1.0  0.96958  0.46918  0.32271  1.0000
  H   H3029     1.0  0.96477  0.59977  0.43292  1.0000
  H   H3030     1.0  0.91587  0.43031  0.26348  1.0000
  C   C3024     1.0  0.95316  0.32428  0.46540  1.0000
  H   H3031     1.0  0.83097  0.46683  0.08418  1.0000
  N   N252      1.0  0.97731  0.53405  0.14379  1.0000
  N   N253      1.0  0.96933  0.49895  0.07518  1.0000
  H   H3032     1.0  0.84218  0.49801  0.02509  1.0000
  H   H3033     1.0  0.95782  0.47128  0.22026  1.0000
  C   C3025     1.0  0.95639  0.47819  0.08103  1.0000
  N   N254      1.0  0.97115  0.46411  0.35397  1.0000
  C   C3026     1.0  0.97395  0.48692  0.08306  1.0000
  H   H3034     1.0  0.98249  0.48548  0.08723  1.0000
  H   H3035     1.0  0.92671  0.63237  0.41470  1.0000
  S   S1012     1.0  0.74254  0.54485  0.98734  1.0000
  H   H3036     1.0  0.98288  0.36078  0.39651  1.0000
  H   H3037     1.0  0.97128  0.47358  0.36897  1.0000
  H   H3038     1.0  0.97099  0.46703  0.09265  1.0000
  C   C3027     1.0  0.95308  0.34719  0.33935  1.0000
  H   H3039     1.0  0.96634  0.48490  0.35418  1.0000
  H   H3040     1.0  0.98209  0.55486  0.25506  1.0000
  H   H3041     1.0  0.92179  0.32815  0.36075  1.0000
  H   H3042     1.0  0.96896  0.59371  0.46516  1.0000
  H   H3043     1.0  0.81786  0.48415  0.99433  1.0000
  H   H3044     1.0  0.98142  0.53744  0.26179  1.0000
  S   S1013     1.0  0.98298  0.45073  0.28262  1.0000
  C   C3028     1.0  0.96328  0.32530  0.43797  1.0000
  C   C3029     1.0  0.97488  0.53673  0.13031  1.0000
  H   H3045     1.0  0.97614  0.62132  0.37891  1.0000
  H   H3046     1.0  0.98491  0.48790  0.24920  1.0000
  H   H3047     1.0  0.92125  0.63930  0.43704  1.0000
  H   H3048     1.0  0.96837  0.51977  0.07188  1.0000
  S   S1014     1.0  0.96620  0.32165  0.37491  1.0000
  C   C3030     1.0  0.98535  0.59486  0.42305  1.0000
  C   C3031     1.0  0.98636  0.46820  0.22439  1.0000
  N   N255      1.0  0.98666  0.59963  0.46408  1.0000
  C   C3032     1.0  0.98601  0.59828  0.35965  1.0000
  C   C3033     1.0  0.95149  0.32078  0.35065  1.0000
  C   C3034     1.0  0.95156  0.32083  0.44431  1.0000
  H   H3049     1.0  0.98682  0.64469  0.40739  1.0000
  C   C3035     1.0  0.76918  0.47023  0.98341  1.0000
  C   C3036     1.0  0.77174  0.48233  0.98333  1.0000
  C   C3037     1.0  0.98676  0.49627  0.24102  1.0000
  H   H3050     1.0  0.85799  0.49816  0.98323  1.0000
  H   H3051     1.0  0.86716  0.46469  0.98336  1.0000
  S   S1015     1.0  0.73735  0.43743  0.99934  1.0000
  Fe  Fe509     1.0  0.86963  0.49997  0.93451  1.0000
  S   S1016     1.0  0.87417  0.51957  0.93322  1.0000
  S   S1017     1.0  0.88434  0.48103  0.93125  1.0000
  Fe  Fe510     1.0  0.84021  0.51158  0.93521  1.0000
  S   S1018     1.0  0.84208  0.53237  0.93356  1.0000
  S   S1019     1.0  0.82233  0.50329  0.93793  1.0000
  Fe  Fe511     1.0  0.86112  0.52778  0.91829  1.0000
  S   S1020     1.0  0.86703  0.53899  0.89694  1.0000
  Fe  Fe512     1.0  0.85496  0.52243  0.94864  1.0000
  S   S1021     1.0  0.84974  0.53051  0.96732  1.0000
  S   S1022     1.0  0.85783  0.50799  0.91865  1.0000
  S   S1023     1.0  0.85177  0.50193  0.95126  1.0000
  C   C3038     1.0  0.90815  0.43043  0.73385  1.0000
  H   H3052     1.0  0.91752  0.46451  0.82460  1.0000
  Fe  Fe513     1.0  0.84249  0.43529  0.89342  1.0000
  S   S1024     1.0  0.83103  0.45625  0.88742  1.0000
  S   S1025     1.0  0.85211  0.42516  0.87595  1.0000
  Fe  Fe514     1.0  0.84171  0.46113  0.89996  1.0000
  S   S1026     1.0  0.85317  0.47720  0.89160  1.0000
  Fe  Fe515     1.0  0.81599  0.45149  0.90649  1.0000
  S   S1027     1.0  0.79402  0.45990  0.90740  1.0000
  S   S1028     1.0  0.85402  0.44055  0.90496  1.0000
  S   S1029     1.0  0.82644  0.42997  0.91158  1.0000
  Fe  Fe516     1.0  0.94772  0.50172  0.83960  1.0000
  S   S1030     1.0  0.95651  0.50739  0.85330  1.0000
  S   S1031     1.0  0.94371  0.48134  0.84411  1.0000
  Fe  Fe517     1.0  0.94215  0.52945  0.82274  1.0000
  S   S1032     1.0  0.94997  0.53784  0.83537  1.0000
  S   S1033     1.0  0.93412  0.54370  0.80535  1.0000
  Fe  Fe518     1.0  0.96666  0.51972  0.83455  1.0000
  H   H3053     1.0  0.81987  0.52136  0.95855  1.0000
  Fe  Fe519     1.0  0.93908  0.52492  0.85307  1.0000
  S   S1034     1.0  0.92916  0.52967  0.87342  1.0000
  S   S1035     1.0  0.95953  0.51226  0.82068  1.0000
  S   S1036     1.0  0.92961  0.51833  0.84055  1.0000
  Fe  Fe520     1.0  0.92738  0.45026  0.80334  1.0000
  S   S1037     1.0  0.92652  0.47222  0.79633  1.0000
  Fe  Fe521     1.0  0.92335  0.42514  0.79953  1.0000
  S   S1038     1.0  0.91497  0.41735  0.78694  1.0000
  Fe  Fe522     1.0  0.92077  0.42807  0.82763  1.0000
  S   S1039     1.0  0.91291  0.42508  0.85005  1.0000
  S   S1040     1.0  0.91015  0.44035  0.81131  1.0000
  H   H3054     1.0  0.96495  0.47532  0.69464  1.0000
  N   N256      1.0  0.94045  0.55820  0.53108  1.0000
  S   S1041     1.0  0.75108  0.42457  0.93649  1.0000
  S   S1042     1.0  0.94850  0.32266  0.52862  1.0000
  H   H3055     1.0  0.89826  0.39560  0.58781  1.0000
  Fe  Fe523     1.0  0.96801  0.51055  0.60751  1.0000
  H   H3056     1.0  0.80720  0.48358  0.90283  1.0000
  C   C3039     1.0  0.84085  0.43740  0.95333  1.0000
  H   H3057     1.0  0.97086  0.34575  0.56694  1.0000
  H   H3058     1.0  0.89957  0.40866  0.76932  1.0000
  H   H3059     1.0  0.96371  0.37454  0.48810  1.0000
  C   C3040     1.0  0.84066  0.45906  0.95665  1.0000
  Fe  Fe524     1.0  0.75545  0.52440  0.92157  1.0000
  S   S1043     1.0  0.76444  0.50440  0.91625  1.0000
  S   S1044     1.0  0.76933  0.53737  0.92013  1.0000
  Fe  Fe525     1.0  0.74750  0.50928  0.90618  1.0000
  S   S1045     1.0  0.74947  0.50578  0.88586  1.0000
  N   N257      1.0  0.90719  0.40888  0.74848  1.0000
  C   C3041     1.0  0.80723  0.46195  0.97678  1.0000
  C   C3042     1.0  0.79467  0.53043  0.95879  1.0000
  Fe  Fe526     1.0  0.94844  0.34288  0.51470  1.0000
  S   S1046     1.0  0.96994  0.33821  0.50466  1.0000
  S   S1047     1.0  0.94192  0.36312  0.52037  1.0000
  H   H3060     1.0  0.95756  0.55278  0.80518  1.0000
  C   C3043     1.0  0.84129  0.43986  0.97519  1.0000
  S   S1048     1.0  0.93691  0.43943  0.82065  1.0000
  S   S1049     1.0  0.94211  0.33732  0.49883  1.0000
  Fe  Fe527     1.0  0.94697  0.38577  0.58415  1.0000
  S   S1050     1.0  0.96206  0.39825  0.57336  1.0000
  S   S1051     1.0  0.94378  0.36839  0.57794  1.0000
  Fe  Fe528     1.0  0.94019  0.39687  0.60944  1.0000
  S   S1052     1.0  0.95485  0.40980  0.60084  1.0000
  S   S1053     1.0  0.92719  0.39883  0.62974  1.0000
  Fe  Fe529     1.0  0.94727  0.41481  0.58221  1.0000
  S   S1054     1.0  0.94289  0.43679  0.57275  1.0000
  Fe  Fe530     1.0  0.96837  0.39237  0.59294  1.0000
  H   H3061     1.0  0.92755  0.43244  0.76176  1.0000
  S   S1055     1.0  0.93143  0.40295  0.59128  1.0000
  S   S1056     1.0  0.95446  0.37872  0.60328  1.0000
  C   C3044     1.0  0.98350  0.39957  0.61379  1.0000
  C   C3045     1.0  0.97813  0.52748  0.62603  1.0000
  Fe  Fe531     1.0  0.93019  0.43912  0.69646  1.0000
  S   S1057     1.0  0.93224  0.41703  0.69923  1.0000
  S   S1058     1.0  0.91058  0.45377  0.69794  1.0000
  Fe  Fe532     1.0  0.94496  0.41514  0.71346  1.0000
  C   C3046     1.0  0.91847  0.37131  0.60588  1.0000
  H   H3062     1.0  0.91491  0.37430  0.58616  1.0000
  H   H3063     1.0  0.91873  0.39050  0.74347  1.0000
  H   H3064     1.0  0.90757  0.49591  0.66564  1.0000
  C   C3047     1.0  0.91758  0.49940  0.87576  1.0000
  Fe  Fe533     1.0  0.95637  0.48922  0.60416  1.0000
  S   S1059     1.0  0.96342  0.49161  0.62104  1.0000
  S   S1060     1.0  0.96503  0.46825  0.60088  1.0000
  Fe  Fe534     1.0  0.94254  0.51867  0.59833  1.0000
  S   S1061     1.0  0.94837  0.52335  0.61490  1.0000
  S   S1062     1.0  0.93108  0.53480  0.58430  1.0000
  C   C3048     1.0  0.87426  0.51919  0.97389  1.0000
  S   S1063     1.0  0.75526  0.47823  0.95003  1.0000
  Fe  Fe535     1.0  0.94318  0.50391  0.62713  1.0000
  S   S1064     1.0  0.93391  0.49873  0.64925  1.0000
  S   S1065     1.0  0.96278  0.50733  0.58998  1.0000
  S   S1066     1.0  0.93549  0.50010  0.61124  1.0000
  Fe  Fe536     1.0  0.94891  0.59868  0.53366  1.0000
  S   S1067     1.0  0.94564  0.62086  0.53133  1.0000
  N   N258      1.0  0.97645  0.50186  0.67366  1.0000
  H   H3065     1.0  0.88389  0.50594  0.88215  1.0000
  C   C3049     1.0  0.90177  0.41472  0.75927  1.0000
  H   H3066     1.0  0.92628  0.49786  0.86774  1.0000
  H   H3067     1.0  0.97108  0.36903  0.56624  1.0000
  Fe  Fe537     1.0  0.92792  0.62222  0.52366  1.0000
  H   H3068     1.0  0.96359  0.47178  0.67305  1.0000
  H   H3069     1.0  0.96234  0.44426  0.80933  1.0000
  S   S1068     1.0  0.93006  0.59987  0.52784  1.0000
  Fe  Fe538     1.0  0.95671  0.49520  0.73381  1.0000
  S   S1069     1.0  0.95532  0.51706  0.72513  1.0000
  H   H3070     1.0  0.79889  0.52133  0.95516  1.0000
  Fe  Fe539     1.0  0.92844  0.49660  0.73346  1.0000
  S   S1070     1.0  0.92463  0.51865  0.72508  1.0000
  S   S1071     1.0  0.91116  0.48692  0.73814  1.0000
  Fe  Fe540     1.0  0.94447  0.51415  0.71134  1.0000
  S   S1072     1.0  0.94835  0.52364  0.68926  1.0000
  Fe  Fe541     1.0  0.93574  0.51924  0.73984  1.0000
  S   S1073     1.0  0.92760  0.53584  0.75107  1.0000
  S   S1074     1.0  0.94769  0.49199  0.71877  1.0000
  S   S1075     1.0  0.93781  0.49747  0.74948  1.0000
  C   C3050     1.0  0.94626  0.43367  0.85042  1.0000
  C   C3051     1.0  0.95092  0.56435  0.52688  1.0000
  C   C3052     1.0  0.90287  0.43645  0.74482  1.0000
  C   C3053     1.0  0.89961  0.42857  0.75762  1.0000
  C   C3054     1.0  0.93785  0.54897  0.57600  1.0000
  C   C3055     1.0  0.95030  0.54954  0.57713  1.0000
  S   S1076     1.0  0.95709  0.58392  0.55087  1.0000
  C   C3056     1.0  0.94921  0.57089  0.56087  1.0000
  C   C3057     1.0  0.93666  0.57044  0.55992  1.0000
  C   C3058     1.0  0.93097  0.55955  0.56752  1.0000
  H   H3071     1.0  0.95567  0.54144  0.58362  1.0000
  S   S1077     1.0  0.74223  0.51673  0.94100  1.0000
  H   H3072     1.0  0.93134  0.57845  0.55332  1.0000
  H   H3073     1.0  0.92130  0.55920  0.56669  1.0000
  C   C3059     1.0  0.93906  0.50505  0.66006  1.0000
  C   C3060     1.0  0.93711  0.49897  0.67376  1.0000
  C   C3061     1.0  0.93995  0.50457  0.68281  1.0000
  C   C3062     1.0  0.94485  0.51624  0.67819  1.0000
  C   C3063     1.0  0.94710  0.52213  0.66445  1.0000
  C   C3064     1.0  0.94426  0.51654  0.65540  1.0000
  H   H3074     1.0  0.93319  0.49001  0.67742  1.0000
  H   H3075     1.0  0.93820  0.49992  0.69337  1.0000
  H   H3076     1.0  0.95096  0.53112  0.66080  1.0000
  H   H3077     1.0  0.94580  0.52131  0.64486  1.0000
  H   H3078     1.0  0.91079  0.43643  0.72386  1.0000
  C   C3065     1.0  0.89383  0.50392  0.88381  1.0000
  C   C3066     1.0  0.91043  0.46399  0.70827  1.0000
  C   C3067     1.0  0.92186  0.46830  0.70722  1.0000
  C   C3068     1.0  0.92207  0.47561  0.71618  1.0000
  C   C3069     1.0  0.91093  0.47845  0.72634  1.0000
  C   C3070     1.0  0.89941  0.47434  0.72722  1.0000
  C   C3071     1.0  0.89911  0.46724  0.71809  1.0000
  H   H3079     1.0  0.93060  0.46595  0.69951  1.0000
  H   H3080     1.0  0.93097  0.47874  0.71536  1.0000
  H   H3081     1.0  0.89072  0.47660  0.73500  1.0000
  H   H3082     1.0  0.89024  0.46392  0.71891  1.0000
  C   C3072     1.0  0.94927  0.44603  0.57986  1.0000
  C   C3073     1.0  0.96093  0.44027  0.58457  1.0000
  C   C3074     1.0  0.96564  0.44729  0.59089  1.0000
  C   C3075     1.0  0.95887  0.46025  0.59234  1.0000
  C   C3076     1.0  0.94740  0.46625  0.58730  1.0000
  C   C3077     1.0  0.94262  0.45913  0.58104  1.0000
  H   H3083     1.0  0.96644  0.43043  0.58321  1.0000
  H   H3084     1.0  0.97456  0.44263  0.59469  1.0000
  H   H3085     1.0  0.94217  0.47628  0.58833  1.0000
  H   H3086     1.0  0.93367  0.46370  0.57727  1.0000
  C   C3078     1.0  0.93607  0.40072  0.64042  1.0000
  C   C3079     1.0  0.94968  0.39530  0.63871  1.0000
  C   C3080     1.0  0.89993  0.39509  0.60767  1.0000
  C   C3081     1.0  0.95051  0.40450  0.65688  1.0000
  C   C3082     1.0  0.93685  0.40988  0.65867  1.0000
  C   C3083     1.0  0.92962  0.40789  0.65051  1.0000
  H   H3087     1.0  0.95468  0.38959  0.63110  1.0000
  H   H3088     1.0  0.92883  0.49805  0.88998  1.0000
  H   H3089     1.0  0.93189  0.41558  0.66631  1.0000
  H   H3090     1.0  0.91908  0.41210  0.65188  1.0000
  C   C3084     1.0  0.97830  0.55050  0.80460  1.0000
  H   H3091     1.0  0.97631  0.41356  0.84331  1.0000
  H   H3092     1.0  0.97220  0.42706  0.71599  1.0000
  H   H3093     1.0  0.81413  0.43917  0.96802  1.0000
  H   H3094     1.0  0.75626  0.42658  0.89930  1.0000
  H   H3095     1.0  0.96817  0.63195  0.55872  1.0000
  H   H3096     1.0  0.98196  0.51193  0.73212  1.0000
  N   N259      1.0  0.80427  0.45978  0.96504  1.0000
  Fe  Fe542     1.0  0.95904  0.43646  0.69480  1.0000
  H   H3097     1.0  0.97407  0.35429  0.53706  1.0000
  C   C3085     1.0  0.94325  0.36442  0.53617  1.0000
  C   C3086     1.0  0.94266  0.37701  0.53832  1.0000
  C   C3087     1.0  0.94324  0.37838  0.55093  1.0000
  C   C3088     1.0  0.94411  0.36720  0.56157  1.0000
  C   C3089     1.0  0.94477  0.35464  0.55938  1.0000
  C   C3090     1.0  0.94448  0.35323  0.54673  1.0000
  H   H3098     1.0  0.94158  0.38576  0.53026  1.0000
  H   H3099     1.0  0.94263  0.38813  0.55249  1.0000
  H   H3100     1.0  0.94539  0.34593  0.56754  1.0000
  H   H3101     1.0  0.94487  0.34351  0.54526  1.0000
  C   C3091     1.0  0.81504  0.52724  0.96643  1.0000
  S   S1078     1.0  0.73940  0.52999  0.90994  1.0000
  S   S1079     1.0  0.94425  0.58822  0.49305  1.0000
  H   H3102     1.0  0.93229  0.64952  0.52443  1.0000
  H   H3103     1.0  0.97866  0.50694  0.65245  1.0000
  H   H3104     1.0  0.87186  0.45039  0.94273  1.0000
  H   H3105     1.0  0.93348  0.63365  0.55743  1.0000
  C   C3092     1.0  0.84064  0.45102  0.94825  1.0000
  H   H3106     1.0  0.77633  0.53395  0.95247  1.0000
  C   C3093     1.0  0.80833  0.44743  0.96202  1.0000
  H   H3107     1.0  0.96630  0.45267  0.85161  1.0000
  S   S1080     1.0  0.82562  0.45871  0.91846  1.0000
  H   H3108     1.0  0.90746  0.48452  0.68147  1.0000
  H   H3109     1.0  0.90999  0.52977  0.81830  1.0000
  H   H3110     1.0  0.79507  0.45417  0.93484  1.0000
  C   C3094     1.0  0.74645  0.43357  0.96503  1.0000
  C   C3095     1.0  0.92635  0.41243  0.77283  1.0000
  C   C3096     1.0  0.92948  0.39899  0.77217  1.0000
  C   C3097     1.0  0.93591  0.39517  0.76001  1.0000
  C   C3098     1.0  0.93881  0.40481  0.74829  1.0000
  C   C3099     1.0  0.93629  0.41822  0.74903  1.0000
  C   C3100     1.0  0.93015  0.42202  0.76133  1.0000
  H   H3111     1.0  0.92647  0.39157  0.78098  1.0000
  H   H3112     1.0  0.93796  0.38478  0.75954  1.0000
  H   H3113     1.0  0.93864  0.42570  0.74008  1.0000
  N   N260      1.0  0.80167  0.53479  0.96498  1.0000
  C   C3101     1.0  0.93457  0.54067  0.78974  1.0000
  C   C3102     1.0  0.93923  0.52801  0.78653  1.0000
  C   C3103     1.0  0.93793  0.52629  0.77427  1.0000
  C   C3104     1.0  0.93188  0.53722  0.76538  1.0000
  C   C3105     1.0  0.92770  0.54980  0.76855  1.0000
  C   C3106     1.0  0.92911  0.55152  0.78055  1.0000
  H   H3114     1.0  0.94345  0.51954  0.79359  1.0000
  H   H3115     1.0  0.94116  0.51651  0.77192  1.0000
  H   H3116     1.0  0.92306  0.55828  0.76178  1.0000
  H   H3117     1.0  0.92555  0.56131  0.78289  1.0000
  C   C3107     1.0  0.93815  0.47989  0.83078  1.0000
  C   C3108     1.0  0.94311  0.48621  0.81761  1.0000
  C   C3109     1.0  0.93912  0.48439  0.80693  1.0000
  C   C3110     1.0  0.93012  0.47629  0.80949  1.0000
  C   C3111     1.0  0.92467  0.47055  0.82267  1.0000
  C   C3112     1.0  0.92875  0.47225  0.83332  1.0000
  H   H3118     1.0  0.95044  0.49203  0.81558  1.0000
  H   H3119     1.0  0.94340  0.48880  0.79671  1.0000
  H   H3120     1.0  0.92468  0.46761  0.84349  1.0000
  C   C3113     1.0  0.86925  0.42409  0.86907  1.0000
  C   C3114     1.0  0.87782  0.42412  0.87677  1.0000
  C   C3115     1.0  0.89128  0.42393  0.87090  1.0000
  C   C3116     1.0  0.89625  0.42395  0.85724  1.0000
  C   C3117     1.0  0.88775  0.42371  0.84954  1.0000
  C   C3118     1.0  0.87433  0.42359  0.85550  1.0000
  H   H3121     1.0  0.87410  0.42418  0.88728  1.0000
  H   H3122     1.0  0.89781  0.42400  0.87695  1.0000
  H   H3123     1.0  0.89151  0.42357  0.83903  1.0000
  H   H3124     1.0  0.86780  0.42336  0.84953  1.0000
  C   C3119     1.0  0.76288  0.43461  0.92875  1.0000
  C   C3120     1.0  0.77635  0.42895  0.92869  1.0000
  C   C3121     1.0  0.78599  0.43664  0.92244  1.0000
  C   C3122     1.0  0.78220  0.45013  0.91636  1.0000
  C   C3123     1.0  0.76870  0.45590  0.91680  1.0000
  C   C3124     1.0  0.75909  0.44816  0.92285  1.0000
  H   H3125     1.0  0.77936  0.41850  0.93331  1.0000
  H   H3126     1.0  0.79636  0.43207  0.92216  1.0000
  H   H3127     1.0  0.76569  0.46635  0.91223  1.0000
  H   H3128     1.0  0.74877  0.45270  0.92299  1.0000
  H   H3129     1.0  0.74767  0.45248  0.95114  1.0000
  Fe  Fe543     1.0  0.75019  0.49711  0.93492  1.0000
  H   H3130     1.0  0.87753  0.51604  0.96447  1.0000
  C   C3125     1.0  0.88424  0.53712  0.89018  1.0000
  C   C3126     1.0  0.88928  0.53725  0.87648  1.0000
  C   C3127     1.0  0.90305  0.53507  0.87112  1.0000
  C   C3128     1.0  0.91180  0.53310  0.87939  1.0000
  C   C3129     1.0  0.90670  0.53343  0.89296  1.0000
  C   C3130     1.0  0.89300  0.53527  0.89838  1.0000
  H   H3131     1.0  0.88253  0.53882  0.87007  1.0000
  H   H3132     1.0  0.90688  0.53498  0.86061  1.0000
  H   H3133     1.0  0.91340  0.53214  0.89935  1.0000
  H   H3134     1.0  0.88921  0.53550  0.90885  1.0000
  C   C3131     1.0  0.80798  0.51312  0.93251  1.0000
  C   C3132     1.0  0.80663  0.52678  0.92671  1.0000
  C   C3133     1.0  0.79466  0.53430  0.92304  1.0000
  C   C3134     1.0  0.78409  0.52815  0.92518  1.0000
  C   C3135     1.0  0.78543  0.51458  0.93125  1.0000
  C   C3136     1.0  0.79734  0.50711  0.93483  1.0000
  H   H3135     1.0  0.81476  0.53154  0.92506  1.0000
  H   H3136     1.0  0.79361  0.54484  0.91847  1.0000
  H   H3137     1.0  0.77723  0.50985  0.93333  1.0000
  H   H3138     1.0  0.79829  0.49662  0.93951  1.0000
  C   C3137     1.0  0.87707  0.47620  0.92111  1.0000
  C   C3138     1.0  0.88332  0.47637  0.90768  1.0000
  C   C3139     1.0  0.87599  0.47667  0.89855  1.0000
  C   C3140     1.0  0.86261  0.47601  0.90304  1.0000
  C   C3141     1.0  0.85665  0.47481  0.91664  1.0000
  C   C3142     1.0  0.86379  0.47522  0.92561  1.0000
  H   H3139     1.0  0.89357  0.47716  0.90417  1.0000
  H   H3140     1.0  0.88061  0.47768  0.88802  1.0000
  H   H3141     1.0  0.84628  0.47450  0.92013  1.0000
  H   H3142     1.0  0.85879  0.47559  0.93586  1.0000
  C   C3143     1.0  0.76387  0.46918  0.97331  1.0000
  C   C3144     1.0  0.97984  0.44488  0.70664  1.0000
  H   H3143     1.0  0.77838  0.56125  0.97434  1.0000
  H   H3144     1.0  0.96970  0.50380  0.77447  1.0000
  H   H3145     1.0  0.84023  0.46965  0.95273  1.0000
  C   C3145     1.0  0.95187  0.54092  0.54652  1.0000
  H   H3146     1.0  0.98517  0.40094  0.54830  1.0000
  C   C3146     1.0  0.97134  0.48903  0.66126  1.0000
  C   C3147     1.0  0.76153  0.48012  0.96275  1.0000
  H   H3147     1.0  0.96562  0.56082  0.57042  1.0000
  C   C3148     1.0  0.90630  0.38798  0.61816  1.0000
  H   H3148     1.0  0.90415  0.39210  0.62695  1.0000
  H   H3149     1.0  0.96912  0.53125  0.62232  1.0000
  H   H3150     1.0  0.95187  0.53207  0.55461  1.0000
  N   N261      1.0  0.87596  0.44861  0.97358  1.0000
  N   N262      1.0  0.81024  0.50266  0.90223  1.0000
  C   C3149     1.0  0.80551  0.51606  0.89792  1.0000
  C   C3150     1.0  0.82287  0.49797  0.90427  1.0000
  C   C3151     1.0  0.81370  0.52509  0.89505  1.0000
  C   C3152     1.0  0.83130  0.50670  0.90153  1.0000
  C   C3153     1.0  0.82668  0.52034  0.89688  1.0000
  C   C3154     1.0  0.80154  0.49331  0.90537  1.0000
  H   H3151     1.0  0.79529  0.51989  0.89692  1.0000
  H   H3152     1.0  0.82654  0.48744  0.90810  1.0000
  H   H3153     1.0  0.80985  0.53572  0.89182  1.0000
  H   H3154     1.0  0.84130  0.50285  0.90317  1.0000
  H   H3155     1.0  0.83308  0.52722  0.89497  1.0000
  H   H3156     1.0  0.79364  0.49723  0.89953  1.0000
  H   H3157     1.0  0.91462  0.41192  0.72734  1.0000
  H   H3158     1.0  0.79678  0.49156  0.91620  1.0000
  H   H3159     1.0  0.88693  0.50557  0.90434  1.0000
  C   C3155     1.0  0.79595  0.54571  0.97056  1.0000
  C   C3156     1.0  0.78183  0.53742  0.95745  1.0000
  H   H3160     1.0  0.97045  0.48779  0.65181  1.0000
  H   H3161     1.0  0.81498  0.45368  0.98072  1.0000
  S   S1081     1.0  0.96936  0.63560  0.49956  1.0000
  H   H3162     1.0  0.98307  0.41811  0.56077  1.0000
  C   C3157     1.0  0.98672  0.45355  0.70800  1.0000
  H   H3163     1.0  0.89312  0.51064  0.97962  1.0000
  N   N263      1.0  0.87203  0.45667  0.85537  1.0000
  C   C3158     1.0  0.86955  0.45674  0.86865  1.0000
  C   C3159     1.0  0.88447  0.45681  0.84749  1.0000
  C   C3160     1.0  0.87977  0.45639  0.87452  1.0000
  C   C3161     1.0  0.89489  0.45663  0.85301  1.0000
  C   C3162     1.0  0.89251  0.45635  0.86663  1.0000
  C   C3163     1.0  0.86117  0.45693  0.84947  1.0000
  H   H3164     1.0  0.85971  0.45669  0.87489  1.0000
  H   H3165     1.0  0.88651  0.45660  0.83698  1.0000
  H   H3166     1.0  0.87779  0.45593  0.88517  1.0000
  H   H3167     1.0  0.90485  0.45611  0.84688  1.0000
  H   H3168     1.0  0.90057  0.45580  0.87112  1.0000
  H   H3169     1.0  0.85604  0.46741  0.84600  1.0000
  H   H3170     1.0  0.86489  0.45181  0.84095  1.0000
  H   H3171     1.0  0.85386  0.45145  0.85693  1.0000
  H   H3172     1.0  0.91795  0.51192  0.76989  1.0000
  N   N264      1.0  0.95195  0.44119  0.62932  1.0000
  C   C3164     1.0  0.94835  0.43168  0.62561  1.0000
  C   C3165     1.0  0.94498  0.45417  0.62718  1.0000
  C   C3166     1.0  0.93735  0.43501  0.61985  1.0000
  C   C3167     1.0  0.93405  0.45790  0.62124  1.0000
  C   C3168     1.0  0.93025  0.44823  0.61754  1.0000
  C   C3169     1.0  0.96381  0.43753  0.63486  1.0000
  H   H3173     1.0  0.95406  0.42147  0.62701  1.0000
  H   H3174     1.0  0.94811  0.46183  0.62963  1.0000
  H   H3175     1.0  0.93444  0.42742  0.61706  1.0000
  H   H3176     1.0  0.92883  0.46828  0.61918  1.0000
  H   H3177     1.0  0.92197  0.45101  0.61268  1.0000
  H   H3178     1.0  0.97280  0.43698  0.62661  1.0000
  H   H3179     1.0  0.96376  0.44485  0.64048  1.0000
  H   H3180     1.0  0.96437  0.42764  0.64199  1.0000
  H   H3181     1.0  0.90147  0.44717  0.74341  1.0000
  H   H3182     1.0  0.90983  0.49112  0.91814  1.0000
  H   H3183     1.0  0.90347  0.52465  0.76738  1.0000
  H   H3184     1.0  0.89586  0.43304  0.76631  1.0000
  H   H3185     1.0  0.90129  0.50842  0.91676  1.0000
  C   C3170     1.0  0.91023  0.41656  0.73587  1.0000
  H   H3186     1.0  0.91693  0.37220  0.63765  1.0000
  H   H3187     1.0  0.93230  0.37108  0.62551  1.0000
  C   C3171     1.0  0.97751  0.43380  0.71700  1.0000
  H   H3188     1.0  0.76157  0.45983  0.97379  1.0000
  H   H3189     1.0  0.76582  0.55384  0.96245  1.0000
  H   H3190     1.0  0.97342  0.45755  0.81658  1.0000
  C   C3172     1.0  0.87431  0.45403  0.96074  1.0000
  C   C3173     1.0  0.95179  0.41152  0.84511  1.0000
  H   H3191     1.0  0.92298  0.55704  0.52610  1.0000
  N   N265      1.0  0.95567  0.42263  0.84745  1.0000
  H   H3192     1.0  0.92602  0.36223  0.60487  1.0000
  H   H3193     1.0  0.96814  0.46373  0.76465  1.0000
  C   C3174     1.0  0.87336  0.44602  0.95283  1.0000
  H   H3194     1.0  0.94102  0.41182  0.84915  1.0000
  C   C3175     1.0  0.76590  0.44285  0.95767  1.0000
  C   C3176     1.0  0.97591  0.49988  0.66170  1.0000
  H   H3195     1.0  0.97544  0.52274  0.66804  1.0000
  C   C3177     1.0  0.97281  0.43275  0.84790  1.0000
  C   C3178     1.0  0.79687  0.47011  0.95749  1.0000
  H   H3196     1.0  0.93224  0.54214  0.54468  1.0000
  C   C3179     1.0  0.96816  0.48210  0.68531  1.0000
  C   C3180     1.0  0.91223  0.37812  0.59523  1.0000
  H   H3197     1.0  0.97102  0.54307  0.54699  1.0000
  N   N266      1.0  0.76606  0.42172  0.97337  1.0000
  H   H3198     1.0  0.75216  0.46722  0.87699  1.0000
  C   C3181     1.0  0.97014  0.37552  0.50502  1.0000
  Fe  Fe544     1.0  0.96375  0.33086  0.49018  1.0000
  H   H3199     1.0  0.95568  0.45748  0.77842  1.0000
  C   C3182     1.0  0.98333  0.53399  0.78699  1.0000
  H   H3200     1.0  0.90173  0.50826  0.77732  1.0000
  C   C3183     1.0  0.97366  0.63984  0.51217  1.0000
  C   C3184     1.0  0.77238  0.43175  0.96589  1.0000
  H   H3201     1.0  0.97017  0.56413  0.52944  1.0000
  S   S1082     1.0  0.96015  0.40714  0.66639  1.0000
  C   C3185     1.0  0.97709  0.55530  0.60146  1.0000
  H   H3202     1.0  0.95400  0.41199  0.83419  1.0000
  C   C3186     1.0  0.76906  0.49348  0.97301  1.0000
  N   N267      1.0  0.95118  0.46164  0.75930  1.0000
  C   C3187     1.0  0.95880  0.45767  0.74785  1.0000
  C   C3188     1.0  0.93773  0.46298  0.76223  1.0000
  C   C3189     1.0  0.95291  0.45516  0.73892  1.0000
  C   C3190     1.0  0.93158  0.46029  0.75366  1.0000
  C   C3191     1.0  0.93924  0.45638  0.74191  1.0000
  H   H3203     1.0  0.96143  0.63033  0.54577  1.0000
  H   H3204     1.0  0.96947  0.45660  0.74545  1.0000
  C   C3192     1.0  0.98097  0.51351  0.67381  1.0000
  H   H3205     1.0  0.95891  0.45239  0.72969  1.0000
  H   H3206     1.0  0.92090  0.46148  0.75599  1.0000
  H   H3207     1.0  0.93457  0.45441  0.73509  1.0000
  H   H3208     1.0  0.92467  0.61229  0.48493  1.0000
  S   S1083     1.0  0.97615  0.48220  0.73746  1.0000
  H   H3209     1.0  0.76250  0.50078  0.95442  1.0000
  N   N268      1.0  0.77061  0.45815  0.88283  1.0000
  C   C3193     1.0  0.77841  0.44663  0.88850  1.0000
  C   C3194     1.0  0.75816  0.45823  0.88194  1.0000
  C   C3195     1.0  0.77339  0.43509  0.89446  1.0000
  C   C3196     1.0  0.75280  0.44689  0.88783  1.0000
  C   C3197     1.0  0.76042  0.43532  0.89431  1.0000
  C   C3198     1.0  0.77576  0.47036  0.87732  1.0000
  H   H3210     1.0  0.78840  0.44648  0.88895  1.0000
  C   C3199     1.0  0.97223  0.49406  0.75841  1.0000
  H   H3211     1.0  0.77938  0.42617  0.89954  1.0000
  C   C3200     1.0  0.97859  0.33394  0.53491  1.0000
  C   C3201     1.0  0.75332  0.42244  0.97289  1.0000
  H   H3212     1.0  0.76760  0.47946  0.87772  1.0000
  H   H3213     1.0  0.78247  0.47089  0.88333  1.0000
  H   H3214     1.0  0.78124  0.47064  0.86678  1.0000
  N   N269      1.0  0.90764  0.51986  0.78696  1.0000
  C   C3202     1.0  0.91205  0.51020  0.79723  1.0000
  C   C3203     1.0  0.90380  0.53299  0.78784  1.0000
  C   C3204     1.0  0.91281  0.51355  0.80873  1.0000
  C   C3205     1.0  0.90431  0.53670  0.79925  1.0000
  C   C3206     1.0  0.90894  0.52691  0.80970  1.0000
  C   C3207     1.0  0.90761  0.51600  0.77482  1.0000
  H   H3215     1.0  0.91525  0.49986  0.79639  1.0000
  H   H3216     1.0  0.90085  0.54074  0.77947  1.0000
  H   H3217     1.0  0.91671  0.50590  0.81666  1.0000
  H   H3218     1.0  0.90182  0.54716  0.79970  1.0000
  C   C3208     1.0  0.89559  0.50381  0.89635  1.0000
  S   S1084     1.0  0.93271  0.41197  0.81654  1.0000
  N   N270      1.0  0.90509  0.50485  0.68208  1.0000
  H   H3219     1.0  0.90122  0.49354  0.70211  1.0000
  C   C3209     1.0  0.90288  0.49477  0.67651  1.0000
  C   C3210     1.0  0.90660  0.51170  0.70115  1.0000
  H   H3220     1.0  0.90613  0.50958  0.71184  1.0000
  C   C3211     1.0  0.90395  0.50258  0.69559  1.0000
  C   C3212     1.0  0.91019  0.52335  0.69278  1.0000
  C   C3213     1.0  0.90964  0.50135  0.91178  1.0000
  C   C3214     1.0  0.91081  0.52585  0.67906  1.0000
  H   H3221     1.0  0.91277  0.53028  0.69686  1.0000
  H   H3222     1.0  0.91390  0.53471  0.67243  1.0000
  H   H3223     1.0  0.90913  0.51825  0.66310  1.0000
  C   C3215     1.0  0.90810  0.51648  0.67385  1.0000
  H   H3224     1.0  0.90095  0.39186  0.74819  1.0000
  N   N271      1.0  0.90803  0.50172  0.89847  1.0000
  C   C3216     1.0  0.96213  0.55892  0.53241  1.0000
  H   H3225     1.0  0.91888  0.50445  0.91111  1.0000
  C   C3217     1.0  0.90491  0.50172  0.87345  1.0000
  H   H3226     1.0  0.91049  0.38911  0.76066  1.0000
  H   H3227     1.0  0.89210  0.49560  0.67793  1.0000
  H   H3228     1.0  0.77383  0.40082  0.97860  1.0000
  N   N272      1.0  0.94824  0.64301  0.55826  1.0000
  C   C3218     1.0  0.91896  0.49944  0.88841  1.0000
  C   C3219     1.0  0.90937  0.39437  0.75030  1.0000
  H   H3229     1.0  0.89295  0.40455  0.60836  1.0000
  H   H3230     1.0  0.95728  0.40177  0.85007  1.0000
  S   S1085     1.0  0.93970  0.43618  0.79020  1.0000
  H   H3231     1.0  0.87571  0.41647  0.97567  1.0000
  Fe  Fe545     1.0  0.83704  0.43750  0.92250  1.0000
  H   H3232     1.0  0.88479  0.46274  0.97639  1.0000
  C   C3220     1.0  0.96771  0.54820  0.80105  1.0000
  S   S1086     1.0  0.94407  0.39977  0.73291  1.0000
  H   H3233     1.0  0.97311  0.49464  0.69488  1.0000
  H   H3234     1.0  0.96067  0.38140  0.50922  1.0000
  H   H3235     1.0  0.98162  0.48561  0.82583  1.0000
  C   C3221     1.0  0.95685  0.39711  0.64697  1.0000
  C   C3222     1.0  0.97662  0.49765  0.76787  1.0000
  Fe  Fe546     1.0  0.95077  0.41825  0.68306  1.0000
  S   S1087     1.0  0.94147  0.43706  0.71195  1.0000
  S   S1088     1.0  0.98673  0.65208  0.54313  1.0000
  C   C3223     1.0  0.95899  0.63125  0.55636  1.0000
  H   H3236     1.0  0.77087  0.45079  0.95168  1.0000
  H   H3237     1.0  0.97225  0.54075  0.63970  1.0000
  C   C3224     1.0  0.75279  0.44385  0.95743  1.0000
  S   S1089     1.0  0.90943  0.63750  0.52923  1.0000
  N   N273      1.0  0.91535  0.37617  0.61722  1.0000
  S   S1090     1.0  0.94754  0.44058  0.67903  1.0000
  C   C3225     1.0  0.97826  0.34771  0.57083  1.0000
  C   C3226     1.0  0.90291  0.39008  0.59614  1.0000
  Fe  Fe547     1.0  0.94797  0.42455  0.80819  1.0000
  H   H3238     1.0  0.97902  0.40779  0.78016  1.0000
  H   H3239     1.0  0.96917  0.33490  0.53265  1.0000
  H   H3240     1.0  0.96738  0.39280  0.64563  1.0000
  H   H3241     1.0  0.80129  0.54877  0.97602  1.0000
  C   C3227     1.0  0.96881  0.42212  0.84607  1.0000
  C   C3228     1.0  0.95592  0.56051  0.56964  1.0000
  H   H3242     1.0  0.97397  0.39704  0.61625  1.0000
  S   S1091     1.0  0.83978  0.42724  0.94341  1.0000
  H   H3243     1.0  0.84122  0.42135  0.97087  1.0000
  Fe  Fe548     1.0  0.94247  0.60157  0.50682  1.0000
  H   H3244     1.0  0.84043  0.45539  0.93786  1.0000
  H   H3245     1.0  0.93585  0.43419  0.85132  1.0000
  C   C3229     1.0  0.96259  0.54712  0.54228  1.0000
  C   C3230     1.0  0.86130  0.52648  0.97749  1.0000
  H   H3246     1.0  0.80898  0.43557  0.94837  1.0000
  S   S1092     1.0  0.96368  0.41431  0.69762  1.0000
  C   C3231     1.0  0.98137  0.34495  0.53742  1.0000
  H   H3247     1.0  0.95281  0.47488  0.77003  1.0000
  H   H3248     1.0  0.94255  0.45336  0.85428  1.0000
  C   C3232     1.0  0.94076  0.54671  0.54087  1.0000
  H   H3249     1.0  0.81455  0.52031  0.97642  1.0000
  C   C3233     1.0  0.78301  0.55278  0.96966  1.0000
  C   C3234     1.0  0.97279  0.49305  0.68537  1.0000
  C   C3235     1.0  0.98600  0.40717  0.62124  1.0000
  H   H3250     1.0  0.82152  0.53407  0.96553  1.0000
  H   H3251     1.0  0.78239  0.43131  0.96643  1.0000
  C   C3236     1.0  0.98507  0.63237  0.51669  1.0000
  H   H3252     1.0  0.96792  0.56870  0.61492  1.0000
  S   S1093     1.0  0.96152  0.59905  0.51287  1.0000
  H   H3253     1.0  0.97835  0.41057  0.62934  1.0000
  Fe  Fe549     1.0  0.95617  0.62129  0.50998  1.0000
  H   H3254     1.0  0.79357  0.47984  0.96000  1.0000
  C   C3237     1.0  0.97192  0.37154  0.49308  1.0000
  H   H3255     1.0  0.93095  0.56991  0.51514  1.0000
  C   C3238     1.0  0.94995  0.44455  0.85209  1.0000
  C   C3239     1.0  0.79761  0.45573  0.94334  1.0000
  C   C3240     1.0  0.76415  0.49231  0.96258  1.0000
  C   C3241     1.0  0.77596  0.54863  0.96298  1.0000
  H   H3256     1.0  0.92186  0.57186  0.53177  1.0000
  H   H3257     1.0  0.77119  0.50285  0.97283  1.0000
  C   C3242     1.0  0.92225  0.36898  0.62811  1.0000
  S   S1094     1.0  0.93829  0.62392  0.50206  1.0000
  C   C3243     1.0  0.97806  0.42657  0.81080  1.0000
  C   C3244     1.0  0.79331  0.46823  0.94660  1.0000
  C   C3245     1.0  0.88306  0.51615  0.98247  1.0000
  H   H3258     1.0  0.92316  0.35804  0.62995  1.0000
  S   S1095     1.0  0.96989  0.41644  0.80697  1.0000
  H   H3259     1.0  0.96214  0.53793  0.78946  1.0000
  C   C3246     1.0  0.84123  0.43185  0.96682  1.0000
  H   H3260     1.0  0.87349  0.46467  0.95662  1.0000
  H   H3261     1.0  0.96195  0.49747  0.75776  1.0000
  H   H3262     1.0  0.97927  0.37450  0.52099  1.0000
  H   H3263     1.0  0.74836  0.41444  0.97871  1.0000
  C   C3247     1.0  0.92845  0.56455  0.52579  1.0000
  H   H3264     1.0  0.90372  0.50204  0.86359  1.0000
  H   H3265     1.0  0.74634  0.48180  0.90562  1.0000
  H   H3266     1.0  0.78716  0.47637  0.94082  1.0000
  H   H3267     1.0  0.95053  0.57363  0.51938  1.0000
  H   H3268     1.0  0.93167  0.46625  0.77121  1.0000
  C   C3248     1.0  0.97027  0.53985  0.79223  1.0000
  C   C3249     1.0  0.95730  0.46453  0.76854  1.0000
  C   C3250     1.0  0.96331  0.44411  0.85071  1.0000
  S   S1096     1.0  0.97437  0.44798  0.69185  1.0000
  C   C3251     1.0  0.80527  0.44527  0.95100  1.0000
  C   C3252     1.0  0.84113  0.45347  0.97012  1.0000
  C   C3253     1.0  0.97834  0.44742  0.81559  1.0000
  C   C3254     1.0  0.97196  0.43982  0.81167  1.0000
  H   H3269     1.0  0.98104  0.42240  0.73638  1.0000
  C   C3255     1.0  0.77284  0.41005  0.98198  1.0000
  C   C3256     1.0  0.97712  0.56279  0.61027  1.0000
  S   S1097     1.0  0.84109  0.46367  0.98056  1.0000
  C   C3257     1.0  0.74026  0.48320  0.89860  1.0000
  H   H3270     1.0  0.96785  0.55530  0.59923  1.0000
  C   C3258     1.0  0.96742  0.48010  0.67317  1.0000
  C   C3259     1.0  0.74022  0.49409  0.88768  1.0000
  C   C3260     1.0  0.97988  0.53284  0.63587  1.0000
  C   C3261     1.0  0.87386  0.43244  0.95821  1.0000
  C   C3262     1.0  0.96576  0.65064  0.51775  1.0000
  N   N274      1.0  0.98369  0.36372  0.48799  1.0000
  C   C3263     1.0  0.97836  0.36082  0.57045  1.0000
  C   C3264     1.0  0.98122  0.48628  0.74974  1.0000
  H   H3271     1.0  0.74270  0.44719  0.88758  1.0000
  H   H3272     1.0  0.97622  0.55679  0.81167  1.0000
  H   H3273     1.0  0.87264  0.42624  0.95232  1.0000
  H   H3274     1.0  0.78291  0.41094  0.98190  1.0000
  C   C3265     1.0  0.87673  0.45732  0.98167  1.0000
  H   H3275     1.0  0.98536  0.52751  0.78009  1.0000
  H   H3276     1.0  0.98325  0.43238  0.84668  1.0000
  C   C3266     1.0  0.93558  0.64260  0.55854  1.0000
  H   H3277     1.0  0.97902  0.51510  0.68411  1.0000
  H   H3278     1.0  0.98529  0.42286  0.77314  1.0000
  C   C3267     1.0  0.87552  0.42698  0.97132  1.0000
  H   H3279     1.0  0.83736  0.49314  0.98202  1.0000
  H   H3280     1.0  0.95605  0.62198  0.56294  1.0000
  H   H3281     1.0  0.81085  0.47132  0.97420  1.0000
  H   H3282     1.0  0.92022  0.65159  0.49348  1.0000
  C   C3268     1.0  0.98053  0.37158  0.51167  1.0000
  H   H3283     1.0  0.94416  0.65100  0.49078  1.0000
  C   C3269     1.0  0.98241  0.43123  0.72860  1.0000
  C   C3270     1.0  0.87664  0.43525  0.97889  1.0000
  H   H3284     1.0  0.98593  0.41212  0.76252  1.0000
  C   C3271     1.0  0.98132  0.64712  0.53165  1.0000
  H   H3285     1.0  0.98671  0.50096  0.85191  1.0000
  C   C3272     1.0  0.98695  0.41228  0.77257  1.0000
  Fe  Fe550     1.0  0.81298  0.93030  0.41207  1.0000
  C   C3273     1.0  0.97655  0.67137  0.39075  1.0000
  S   S1098     1.0  0.79350  0.94078  0.40595  1.0000
  Fe  Fe551     1.0  0.82274  0.92283  0.43743  1.0000
  S   S1099     1.0  0.84403  0.91650  0.42767  1.0000
  S   S1100     1.0  0.81665  0.92218  0.45922  1.0000
  Fe  Fe552     1.0  0.83644  0.90656  0.41643  1.0000
  S   S1101     1.0  0.84567  0.88491  0.41516  1.0000
  S   S1102     1.0  0.81898  0.94222  0.42282  1.0000
  S   S1103     1.0  0.81525  0.91131  0.42779  1.0000
  C   C3274     1.0  0.93037  0.76688  0.44110  1.0000
  S   S1104     1.0  0.90695  0.81661  0.43392  1.0000
  S   S1105     1.0  0.90347  0.85752  0.42557  1.0000
  H   H3286     1.0  0.95210  0.82068  0.47065  1.0000
  C   C3275     1.0  0.76250  0.98312  0.41938  1.0000
  H   H3287     1.0  0.88272  0.97403  0.45508  1.0000
  C   C3276     1.0  0.87733  0.98074  0.41787  1.0000
  H   H3288     1.0  0.92373  0.77397  0.44735  1.0000
  S   S1106     1.0  0.74790  0.90909  0.41986  1.0000
  H   H3289     1.0  0.87642  0.94738  0.44387  1.0000
  H   H3290     1.0  0.90933  0.77213  0.40814  1.0000
  S   S1107     1.0  0.91485  0.79770  0.40615  1.0000
  C   C3277     1.0  0.80544  0.95397  0.46512  1.0000
  H   H3291     1.0  0.95554  0.85985  0.41649  1.0000
  C   C3278     1.0  0.94613  0.68653  0.46069  1.0000
  S   S1108     1.0  0.95293  0.70793  0.42854  1.0000
  H   H3292     1.0  0.97081  0.68613  0.37367  1.0000
  H   H3293     1.0  0.97718  0.70614  0.45468  1.0000
  C   C3279     1.0  0.94188  0.75607  0.40517  1.0000
  C   C3280     1.0  0.84029  0.92922  0.47844  1.0000
  H   H3294     1.0  0.80175  0.95263  0.45722  1.0000
  S   S1109     1.0  0.86155  0.94089  0.47172  1.0000
  H   H3295     1.0  0.88855  0.87047  0.39044  1.0000
  H   H3296     1.0  0.86066  0.96829  0.38132  1.0000
  C   C3281     1.0  0.78701  0.98315  0.47739  1.0000
  H   H3297     1.0  0.85479  0.86842  0.39469  1.0000
  H   H3298     1.0  0.74960  0.94786  0.45272  1.0000
  H   H3299     1.0  0.76550  0.94955  0.40892  1.0000
  H   H3300     1.0  0.93332  0.76397  0.46604  1.0000
  H   H3301     1.0  0.79116  0.93307  0.43820  1.0000
  Fe  Fe553     1.0  0.74905  0.95202  0.48197  1.0000
  H   H3302     1.0  0.86681  0.96954  0.45996  1.0000
  S   S1110     1.0  0.93928  0.68905  0.38620  1.0000
  S   S1111     1.0  0.96128  0.70501  0.39754  1.0000
  H   H3303     1.0  0.77607  0.90017  0.41690  1.0000
  H   H3304     1.0  0.77204  0.89710  0.44453  1.0000
  S   S1112     1.0  0.92982  0.71209  0.41230  1.0000
  C   C3282     1.0  0.74107  0.96992  0.40624  1.0000
  C   C3283     1.0  0.91557  0.67538  0.41582  1.0000
  C   C3284     1.0  0.78116  0.93144  0.44208  1.0000
  C   C3285     1.0  0.94100  0.67084  0.37213  1.0000
  C   C3286     1.0  0.94219  0.67251  0.38425  1.0000
  C   C3287     1.0  0.87684  0.95675  0.43656  1.0000
  C   C3288     1.0  0.95319  0.73384  0.45028  1.0000
  C   C3289     1.0  0.96188  0.78723  0.47221  1.0000
  H   H3305     1.0  0.93862  0.67951  0.36430  1.0000
  H   H3306     1.0  0.96601  0.85813  0.43495  1.0000
  H   H3307     1.0  0.86413  0.87181  0.37752  1.0000
  C   C3290     1.0  0.93042  0.70535  0.46860  1.0000
  H   H3308     1.0  0.86588  0.87932  0.38999  1.0000
  C   C3291     1.0  0.94037  0.79617  0.46639  1.0000
  C   C3292     1.0  0.94665  0.74474  0.46886  1.0000
  S   S1113     1.0  0.92335  0.69524  0.45136  1.0000
  C   C3293     1.0  0.94285  0.65805  0.36997  1.0000
  C   C3294     1.0  0.85147  0.96500  0.40232  1.0000
  C   C3295     1.0  0.75605  0.98182  0.43284  1.0000
  H   H3309     1.0  0.93124  0.86134  0.42112  1.0000
  C   C3296     1.0  0.81518  0.96139  0.46173  1.0000
  C   C3297     1.0  0.77855  0.97988  0.45999  1.0000
  N   N275      1.0  0.93821  0.75539  0.44891  1.0000
  H   H3310     1.0  0.90345  0.82795  0.39950  1.0000
  H   H3311     1.0  0.74567  0.92539  0.45539  1.0000
  C   C3298     1.0  0.96673  0.82672  0.43520  1.0000
  C   C3299     1.0  0.95187  0.81082  0.47007  1.0000
  N   N276      1.0  0.85147  0.89576  0.46776  1.0000
  H   H3312     1.0  0.96978  0.77879  0.47467  1.0000
  Fe  Fe554     1.0  0.91406  0.83584  0.42599  1.0000
  C   C3300     1.0  0.84611  0.97091  0.41348  1.0000
  H   H3313     1.0  0.86069  0.89456  0.44746  1.0000
  C   C3301     1.0  0.84616  0.98444  0.41222  1.0000
  H   H3314     1.0  0.86392  0.84439  0.39326  1.0000
  H   H3315     1.0  0.96516  0.85562  0.45764  1.0000
  C   C3302     1.0  0.93885  0.75552  0.46153  1.0000
  H   H3316     1.0  0.92884  0.85822  0.46274  1.0000
  H   H3317     1.0  0.90667  0.85113  0.39561  1.0000
  C   C3303     1.0  0.91562  0.66461  0.41076  1.0000
  C   C3304     1.0  0.83953  0.89407  0.46717  1.0000
  H   H3318     1.0  0.96441  0.68018  0.46752  1.0000
  H   H3319     1.0  0.96914  0.82893  0.45386  1.0000
  Fe  Fe555     1.0  0.96490  0.69224  0.41726  1.0000
  C   C3305     1.0  0.91747  0.67305  0.42878  1.0000
  C   C3306     1.0  0.75780  0.93980  0.45001  1.0000
  S   S1114     1.0  0.85528  0.94752  0.40398  1.0000
  H   H3320     1.0  0.85892  0.91037  0.45159  1.0000
  C   C3307     1.0  0.75565  0.92708  0.45154  1.0000
  H   H3321     1.0  0.87605  0.94871  0.42033  1.0000
  C   C3308     1.0  0.94105  0.80896  0.46663  1.0000
  C   C3309     1.0  0.95161  0.69710  0.47522  1.0000
  H   H3322     1.0  0.75489  0.90463  0.44564  1.0000
  H   H3323     1.0  0.96905  0.79504  0.42973  1.0000
  H   H3324     1.0  0.84268  0.96485  0.42319  1.0000
  C   C3310     1.0  0.78706  0.98520  0.46384  1.0000
  H   H3325     1.0  0.76256  0.98014  0.40026  1.0000
  H   H3326     1.0  0.77245  0.95183  0.44367  1.0000
  N   N277      1.0  0.87738  0.96780  0.44032  1.0000
  C   C3311     1.0  0.86128  0.87729  0.41927  1.0000
  C   C3312     1.0  0.86545  0.86328  0.42195  1.0000
  C   C3313     1.0  0.87827  0.85700  0.42418  1.0000
  C   C3314     1.0  0.88701  0.86473  0.42368  1.0000
  C   C3315     1.0  0.88273  0.87870  0.42130  1.0000
  C   C3316     1.0  0.86994  0.88496  0.41908  1.0000
  H   H3327     1.0  0.85878  0.85728  0.42216  1.0000
  H   H3328     1.0  0.88143  0.84622  0.42612  1.0000
  H   H3329     1.0  0.88944  0.88475  0.42088  1.0000
  H   H3330     1.0  0.86694  0.89575  0.41682  1.0000
  C   C3317     1.0  0.78098  0.93176  0.40993  1.0000
  C   C3318     1.0  0.78394  0.91781  0.41231  1.0000
  C   C3319     1.0  0.77372  0.91096  0.41527  1.0000
  C   C3320     1.0  0.76049  0.91800  0.41595  1.0000
  C   C3321     1.0  0.75751  0.93194  0.41376  1.0000
  C   C3322     1.0  0.76775  0.93879  0.41070  1.0000
  C   C3323     1.0  0.87721  0.96942  0.41388  1.0000
  H   H3331     1.0  0.73974  0.97539  0.44800  1.0000
  H   H3332     1.0  0.74734  0.93740  0.41432  1.0000
  C   C3324     1.0  0.95498  0.68729  0.46776  1.0000
  C   C3325     1.0  0.82875  0.92792  0.46262  1.0000
  C   C3326     1.0  0.93593  0.86066  0.42915  1.0000
  C   C3327     1.0  0.87721  0.96701  0.45431  1.0000
  C   C3328     1.0  0.95391  0.73387  0.46315  1.0000
  C   C3329     1.0  0.84715  0.93912  0.45498  1.0000
  C   C3330     1.0  0.83713  0.93499  0.45224  1.0000
  C   C3331     1.0  0.74043  0.97195  0.42874  1.0000
  H   H3333     1.0  0.96685  0.66908  0.39449  1.0000
  H   H3334     1.0  0.85353  0.94460  0.44692  1.0000
  H   H3335     1.0  0.83581  0.93748  0.44209  1.0000
  H   H3336     1.0  0.92107  0.65809  0.44652  1.0000
  C   C3332     1.0  0.97222  0.82769  0.42149  1.0000
  H   H3337     1.0  0.88193  0.95680  0.45920  1.0000
  H   H3338     1.0  0.93708  0.77242  0.43292  1.0000
  H   H3339     1.0  0.87707  0.97005  0.40357  1.0000
  H   H3340     1.0  0.91430  0.68545  0.40963  1.0000
  Fe  Fe556     1.0  0.94790  0.72020  0.40917  1.0000
  C   C3333     1.0  0.92841  0.86022  0.44221  1.0000
  C   C3334     1.0  0.86111  0.89934  0.45532  1.0000
  C   C3335     1.0  0.93890  0.77971  0.40455  1.0000
  C   C3336     1.0  0.93377  0.69545  0.46126  1.0000
  H   H3341     1.0  0.95304  0.84638  0.46814  1.0000
  H   H3342     1.0  0.79413  0.91232  0.41161  1.0000
  C   C3337     1.0  0.92524  0.78164  0.40597  1.0000
  C   C3338     1.0  0.92818  0.75788  0.40685  1.0000
  S   S1115     1.0  0.92648  0.79406  0.46247  1.0000
  H   H3343     1.0  0.94969  0.86419  0.46658  1.0000
  H   H3344     1.0  0.93304  0.81740  0.46457  1.0000
  H   H3345     1.0  0.94702  0.74484  0.47891  1.0000
  H   H3346     1.0  0.92407  0.76354  0.43658  1.0000
  N   N278      1.0  0.76602  0.91687  0.44826  1.0000
  N   N279      1.0  0.94801  0.85806  0.44991  1.0000
  C   C3339     1.0  0.77868  0.91884  0.44383  1.0000
  H   H3347     1.0  0.78690  0.91072  0.44132  1.0000
  C   C3340     1.0  0.77020  0.97226  0.46970  1.0000
  H   H3348     1.0  0.95776  0.76573  0.40270  1.0000
  H   H3349     1.0  0.91433  0.66653  0.40060  1.0000
  N   N280      1.0  0.74669  0.97340  0.41551  1.0000
  H   H3350     1.0  0.94889  0.67907  0.45475  1.0000
  C   C3341     1.0  0.91952  0.66000  0.43646  1.0000
  C   C3342     1.0  0.87674  0.95739  0.42329  1.0000
  H   H3351     1.0  0.96004  0.72545  0.46869  1.0000
  C   C3343     1.0  0.77063  0.94199  0.44509  1.0000
  C   C3344     1.0  0.96221  0.79998  0.47302  1.0000
  C   C3345     1.0  0.97340  0.82960  0.44330  1.0000
  C   C3346     1.0  0.95087  0.78531  0.46899  1.0000
  S   S1116     1.0  0.75958  0.96561  0.46482  1.0000
  H   H3352     1.0  0.95740  0.82373  0.43958  1.0000
  H   H3353     1.0  0.75951  0.98538  0.43956  1.0000
  C   C3347     1.0  0.76350  0.90366  0.44992  1.0000
  Fe  Fe557     1.0  0.92461  0.80894  0.44328  1.0000
  C   C3348     1.0  0.94527  0.74476  0.44324  1.0000
  H   H3354     1.0  0.91786  0.86066  0.44431  1.0000
  S   S1117     1.0  0.83362  0.92474  0.39957  1.0000
  H   H3355     1.0  0.92108  0.71257  0.46863  1.0000
  Fe  Fe558     1.0  0.94379  0.69566  0.40243  1.0000
  S   S1118     1.0  0.96394  0.82475  0.41086  1.0000
  C   C3349     1.0  0.94717  0.76701  0.40409  1.0000
  H   H3356     1.0  0.94317  0.78811  0.40338  1.0000
  C   C3350     1.0  0.84885  0.93611  0.46812  1.0000
  Fe  Fe559     1.0  0.83969  0.93514  0.41191  1.0000
  C   C3351     1.0  0.94952  0.85991  0.42654  1.0000
  C   C3352     1.0  0.75761  0.97891  0.41076  1.0000
  C   C3353     1.0  0.94522  0.66118  0.39434  1.0000
  S   S1119     1.0  0.95296  0.74052  0.40408  1.0000
  H   H3357     1.0  0.91746  0.68132  0.43285  1.0000
  C   C3354     1.0  0.95541  0.85881  0.43707  1.0000
  C   C3355     1.0  0.85630  0.97281  0.38991  1.0000
  C   C3356     1.0  0.88709  0.86046  0.39195  1.0000
  H   H3358     1.0  0.97240  0.69091  0.44364  1.0000
  Fe  Fe560     1.0  0.92152  0.81006  0.41597  1.0000
  C   C3357     1.0  0.74494  0.97622  0.43757  1.0000
  S   S1120     1.0  0.93034  0.82870  0.43738  1.0000
  H   H3359     1.0  0.94595  0.66235  0.40384  1.0000
  H   H3360     1.0  0.95041  0.77541  0.46874  1.0000
  C   C3358     1.0  0.89741  0.84953  0.39489  1.0000
  C   C3359     1.0  0.89557  0.83658  0.39720  1.0000
  Fe  Fe561     1.0  0.93613  0.69854  0.43079  1.0000
  C   C3360     1.0  0.88346  0.83473  0.39660  1.0000
  H   H3361     1.0  0.88199  0.82467  0.39843  1.0000
  C   C3361     1.0  0.91990  0.77070  0.40709  1.0000
  H   H3362     1.0  0.92401  0.74952  0.40764  1.0000
  S   S1121     1.0  0.92731  0.82993  0.40716  1.0000
  N   N281      1.0  0.87520  0.85855  0.39149  1.0000
  C   C3362     1.0  0.87333  0.84590  0.39368  1.0000
  C   C3363     1.0  0.93467  0.85882  0.45255  1.0000
  C   C3364     1.0  0.86452  0.87007  0.38818  1.0000
  S   S1122     1.0  0.94861  0.68157  0.42124  1.0000
  S   S1123     1.0  0.93868  0.80128  0.42593  1.0000
  H   H3363     1.0  0.94482  0.74469  0.43320  1.0000
  H   H3364     1.0  0.98071  0.78302  0.42051  1.0000
  C   C3365     1.0  0.95433  0.85601  0.46106  1.0000
  H   H3365     1.0  0.77850  0.98170  0.44950  1.0000
  H   H3366     1.0  0.94190  0.65697  0.36050  1.0000
  C   C3366     1.0  0.87734  0.97976  0.43124  1.0000
  Fe  Fe562     1.0  0.94310  0.82165  0.41917  1.0000
  H   H3367     1.0  0.95873  0.72539  0.44579  1.0000
  C   C3367     1.0  0.97878  0.68105  0.37893  1.0000
  H   H3368     1.0  0.74886  0.96683  0.39764  1.0000
  H   H3369     1.0  0.83721  0.89525  0.45756  1.0000
  H   H3370     1.0  0.87140  0.89597  0.45690  1.0000
  C   C3368     1.0  0.93942  0.70629  0.47542  1.0000
  H   H3371     1.0  0.76138  0.89877  0.46073  1.0000
  H   H3372     1.0  0.97998  0.74389  0.40020  1.0000
  C   C3369     1.0  0.97971  0.79085  0.42595  1.0000
  H   H3373     1.0  0.81887  0.96584  0.45134  1.0000
  H   H3374     1.0  0.97718  0.72058  0.40700  1.0000
  H   H3375     1.0  0.78544  0.94245  0.47362  1.0000
  C   C3370     1.0  0.83019  0.92527  0.47574  1.0000
  H   H3376     1.0  0.93697  0.71427  0.48059  1.0000
  C   C3371     1.0  0.82021  0.96285  0.47182  1.0000
  H   H3377     1.0  0.82778  0.96855  0.46934  1.0000
  C   C3372     1.0  0.98132  0.69470  0.43963  1.0000
  C   C3373     1.0  0.98402  0.70332  0.44581  1.0000
  H   H3378     1.0  0.97339  0.65658  0.41519  1.0000
  N   N282      1.0  0.80081  0.94823  0.47821  1.0000
  S   S1124     1.0  0.97457  0.80228  0.47928  1.0000
  N   N283      1.0  0.98658  0.78563  0.43706  1.0000
  H   H3379     1.0  0.82026  0.89060  0.47831  1.0000
  H   H3380     1.0  0.91140  0.81627  0.47872  1.0000
  C   C3374     1.0  0.98460  0.83108  0.41608  1.0000
  H   H3381     1.0  0.98406  0.79893  0.41840  1.0000
  C   C3375     1.0  0.98554  0.83345  0.43777  1.0000
  C   C3376     1.0  0.98587  0.72311  0.39964  1.0000
  C   C3377     1.0  0.85408  0.89499  0.47984  1.0000
  C   C3378     1.0  0.82989  0.89142  0.47888  1.0000
  S   S1125     1.0  0.98569  0.68227  0.41918  1.0000
  H   H3382     1.0  0.86333  0.89683  0.48031  1.0000
  H   H3383     1.0  0.98642  0.76531  0.43870  1.0000
  H   H3384     1.0  0.79616  0.92927  0.48302  1.0000
  C   C3379     1.0  0.98395  0.65471  0.40983  1.0000
  N   N284      1.0  0.98639  0.66506  0.39762  1.0000
  C   C3380     1.0  0.79105  0.93999  0.48161  1.0000
  Fe  Fe563     1.0  0.84083  0.91950  0.51620  1.0000
  S   S1126     1.0  0.85086  0.91977  0.53205  1.0000
  S   S1127     1.0  0.82458  0.90985  0.51605  1.0000
  Fe  Fe564     1.0  0.85997  0.93339  0.49386  1.0000
  S   S1128     1.0  0.87198  0.93515  0.50717  1.0000
  H   H3385     1.0  0.89118  0.68067  0.54152  1.0000
  Fe  Fe565     1.0  0.87017  0.91396  0.51751  1.0000
  S   S1129     1.0  0.88699  0.89796  0.52499  1.0000
  Fe  Fe566     1.0  0.85224  0.94081  0.52081  1.0000
  S   S1130     1.0  0.84526  0.95952  0.52906  1.0000
  S   S1131     1.0  0.86012  0.91178  0.50284  1.0000
  S   S1132     1.0  0.84041  0.94100  0.50651  1.0000
  Fe  Fe567     1.0  0.96337  0.81563  0.49352  1.0000
  S   S1133     1.0  0.96383  0.83659  0.49312  1.0000
  H   H3386     1.0  0.77861  0.97394  0.49760  1.0000
  Fe  Fe568     1.0  0.94402  0.81199  0.52030  1.0000
  S   S1134     1.0  0.94260  0.83258  0.52292  1.0000
  S   S1135     1.0  0.93355  0.79605  0.53417  1.0000
  Fe  Fe569     1.0  0.94168  0.83947  0.50112  1.0000
  S   S1136     1.0  0.92673  0.85626  0.49140  1.0000
  Fe  Fe570     1.0  0.96473  0.82843  0.51476  1.0000
  S   S1137     1.0  0.94127  0.81925  0.49931  1.0000
  S   S1138     1.0  0.96608  0.80725  0.51440  1.0000
  Fe  Fe571     1.0  0.75071  0.93651  0.50988  1.0000
  H   H3387     1.0  0.90493  0.70023  0.49347  1.0000
  S   S1139     1.0  0.76273  0.93543  0.52465  1.0000
  H   H3388     1.0  0.91026  0.83256  0.49190  1.0000
  H   H3389     1.0  0.96376  0.66289  0.53150  1.0000
  H   H3390     1.0  0.97813  0.72631  0.57113  1.0000
  C   C3381     1.0  0.95770  0.76218  0.54654  1.0000
  C   C3382     1.0  0.98416  0.73274  0.53714  1.0000
  H   H3391     1.0  0.95056  0.67002  0.49434  1.0000
  C   C3383     1.0  0.87329  0.98420  0.53014  1.0000
  H   H3392     1.0  0.91996  0.67439  0.56158  1.0000
  Fe  Fe572     1.0  0.74200  0.92491  0.49171  1.0000
  H   H3393     1.0  0.74266  0.95735  0.53490  1.0000
  H   H3394     1.0  0.94380  0.77508  0.49600  1.0000
  C   C3384     1.0  0.92321  0.65995  0.49476  1.0000
  S   S1140     1.0  0.93439  0.71800  0.53577  1.0000
  H   H3395     1.0  0.91518  0.65347  0.56010  1.0000
  H   H3396     1.0  0.81852  0.96829  0.56333  1.0000
  C   C3385     1.0  0.89953  0.66165  0.53601  1.0000
  C   C3386     1.0  0.90019  0.67394  0.53774  1.0000
  C   C3387     1.0  0.91236  0.67763  0.53452  1.0000
  C   C3388     1.0  0.92399  0.66877  0.52975  1.0000
  H   H3397     1.0  0.91414  0.82307  0.52614  1.0000
  H   H3398     1.0  0.98286  0.87338  0.53117  1.0000
  S   S1141     1.0  0.98002  0.83057  0.52421  1.0000
  C   C3389     1.0  0.84472  0.89217  0.49175  1.0000
  C   C3390     1.0  0.95094  0.65447  0.55915  1.0000
  C   C3391     1.0  0.93408  0.78325  0.52645  1.0000
  C   C3392     1.0  0.94000  0.78392  0.51288  1.0000
  C   C3393     1.0  0.93949  0.77428  0.50656  1.0000
  C   C3394     1.0  0.93377  0.76344  0.51386  1.0000
  C   C3395     1.0  0.92823  0.76242  0.52757  1.0000
  C   C3396     1.0  0.92819  0.77245  0.53380  1.0000
  H   H3399     1.0  0.94493  0.79188  0.50715  1.0000
  H   H3400     1.0  0.89773  0.83161  0.52334  1.0000
  H   H3401     1.0  0.92366  0.75413  0.53325  1.0000
  H   H3402     1.0  0.92357  0.77185  0.54431  1.0000
  H   H3403     1.0  0.96097  0.65493  0.55875  1.0000
  C   C3397     1.0  0.83254  0.89046  0.49124  1.0000
  H   H3404     1.0  0.87367  0.95247  0.52879  1.0000
  C   C3398     1.0  0.89777  0.88639  0.51548  1.0000
  C   C3399     1.0  0.89703  0.88708  0.50238  1.0000
  C   C3400     1.0  0.90594  0.87779  0.49510  1.0000
  C   C3401     1.0  0.91563  0.86774  0.50085  1.0000
  C   C3402     1.0  0.91630  0.86701  0.51395  1.0000
  C   C3403     1.0  0.90743  0.87630  0.52121  1.0000
  H   H3405     1.0  0.88968  0.89485  0.49784  1.0000
  H   H3406     1.0  0.90536  0.87845  0.48496  1.0000
  H   H3407     1.0  0.92373  0.85938  0.51849  1.0000
  H   H3408     1.0  0.90808  0.87572  0.53131  1.0000
  C   C3404     1.0  0.80770  0.91814  0.51739  1.0000
  C   C3405     1.0  0.79967  0.91385  0.51181  1.0000
  C   C3406     1.0  0.78598  0.91944  0.51354  1.0000
  C   C3407     1.0  0.78012  0.92922  0.52110  1.0000
  C   C3408     1.0  0.78817  0.93369  0.52649  1.0000
  C   C3409     1.0  0.80194  0.92828  0.52452  1.0000
  H   H3409     1.0  0.80400  0.90598  0.50633  1.0000
  H   H3410     1.0  0.77987  0.91580  0.50948  1.0000
  H   H3411     1.0  0.78370  0.94120  0.53242  1.0000
  H   H3412     1.0  0.80799  0.93157  0.52898  1.0000
  H   H3413     1.0  0.82505  0.88879  0.50042  1.0000
  C   C3410     1.0  0.90968  0.82234  0.49701  1.0000
  C   C3411     1.0  0.98670  0.86365  0.53700  1.0000
  H   H3414     1.0  0.93329  0.68940  0.50050  1.0000
  C   C3412     1.0  0.98384  0.73411  0.54992  1.0000
  H   H3415     1.0  0.96448  0.76422  0.55153  1.0000
  H   H3416     1.0  0.94832  0.76986  0.54763  1.0000
  C   C3413     1.0  0.84647  0.97877  0.49797  1.0000
  H   H3417     1.0  0.90711  0.80227  0.52776  1.0000
  H   H3418     1.0  0.84133  0.92683  0.48859  1.0000
  C   C3414     1.0  0.97907  0.72263  0.53564  1.0000
  H   H3419     1.0  0.95673  0.65621  0.51454  1.0000
  H   H3420     1.0  0.80211  0.94495  0.49851  1.0000
  S   S1142     1.0  0.91236  0.69328  0.53698  1.0000
  H   H3421     1.0  0.84668  0.89175  0.50133  1.0000
  H   H3422     1.0  0.90845  0.78577  0.51486  1.0000
  H   H3423     1.0  0.93347  0.67143  0.52744  1.0000
  H   H3424     1.0  0.94310  0.67510  0.56067  1.0000
  S   S1143     1.0  0.73995  0.95731  0.50187  1.0000
  C   C3415     1.0  0.82251  0.98293  0.50747  1.0000
  H   H3425     1.0  0.96918  0.85623  0.53998  1.0000
  C   C3416     1.0  0.81541  0.95699  0.48514  1.0000
  H   H3426     1.0  0.87220  0.97109  0.56280  1.0000
  C   C3417     1.0  0.80571  0.94959  0.48816  1.0000
  H   H3427     1.0  0.76432  0.96384  0.49077  1.0000
  H   H3428     1.0  0.78374  0.94170  0.49100  1.0000
  C   C3418     1.0  0.97393  0.71366  0.54694  1.0000
  C   C3419     1.0  0.91003  0.79997  0.49594  1.0000
  H   H3429     1.0  0.97854  0.85366  0.50159  1.0000
  C   C3420     1.0  0.82311  0.97683  0.55735  1.0000
  C   C3421     1.0  0.96119  0.75424  0.52605  1.0000
  C   C3422     1.0  0.96965  0.65434  0.52744  1.0000
  Fe  Fe573     1.0  0.92970  0.70312  0.52741  1.0000
  Fe  Fe574     1.0  0.93825  0.72976  0.51453  1.0000
  H   H3430     1.0  0.86764  0.97581  0.49023  1.0000
  H   H3431     1.0  0.82402  0.97742  0.54655  1.0000
  C   C3423     1.0  0.91038  0.81321  0.48950  1.0000
  S   S1144     1.0  0.93321  0.75178  0.50533  1.0000
  S   S1145     1.0  0.95044  0.69114  0.52340  1.0000
  H   H3432     1.0  0.89797  0.69062  0.50965  1.0000
  H   H3433     1.0  0.86471  0.95159  0.56143  1.0000
  C   C3424     1.0  0.97899  0.85408  0.54201  1.0000
  C   C3425     1.0  0.85669  0.96895  0.52811  1.0000
  H   H3434     1.0  0.96974  0.70801  0.56850  1.0000
  Fe  Fe575     1.0  0.95544  0.70680  0.53022  1.0000
  C   C3426     1.0  0.85778  0.96116  0.56169  1.0000
  C   C3427     1.0  0.90815  0.82789  0.51837  1.0000
  N   N285      1.0  0.96372  0.76252  0.53232  1.0000
  S   S1146     1.0  0.96249  0.69720  0.48474  1.0000
  C   C3428     1.0  0.87816  0.97059  0.52993  1.0000
  C   C3429     1.0  0.97489  0.76348  0.50525  1.0000
  H   H3435     1.0  0.95572  0.75217  0.55195  1.0000
  S   S1147     1.0  0.96826  0.70047  0.54525  1.0000
  S   S1148     1.0  0.95976  0.71962  0.50959  1.0000
  C   C3430     1.0  0.96688  0.75447  0.51248  1.0000
  H   H3436     1.0  0.96485  0.74787  0.50757  1.0000
  C   C3431     1.0  0.85857  0.98273  0.49361  1.0000
  Fe  Fe576     1.0  0.95241  0.70521  0.50328  1.0000
  H   H3437     1.0  0.81909  0.95820  0.49308  1.0000
  H   H3438     1.0  0.89001  0.65899  0.53846  1.0000
  H   H3439     1.0  0.97936  0.72164  0.52573  1.0000
  N   N286      1.0  0.90871  0.81833  0.51057  1.0000
  C   C3432     1.0  0.94019  0.67022  0.49544  1.0000
  S   S1149     1.0  0.93121  0.71613  0.50677  1.0000
  C   C3433     1.0  0.91364  0.67117  0.49803  1.0000
  H   H3440     1.0  0.88823  0.96586  0.53096  1.0000
  S   S1150     1.0  0.76047  0.93169  0.48981  1.0000
  N   N287      1.0  0.91730  0.68159  0.50005  1.0000
  C   C3434     1.0  0.86994  0.96301  0.52866  1.0000
  H   H3441     1.0  0.95489  0.74727  0.53157  1.0000
  H   H3442     1.0  0.84186  0.95451  0.55897  1.0000
  H   H3443     1.0  0.82363  0.92000  0.48386  1.0000
  C   C3435     1.0  0.85315  0.98447  0.56214  1.0000
  H   H3444     1.0  0.90327  0.67138  0.49916  1.0000
  H   H3445     1.0  0.84632  0.96867  0.49799  1.0000
  C   C3436     1.0  0.90861  0.79609  0.50980  1.0000
  N   N288      1.0  0.83625  0.97509  0.55991  1.0000
  C   C3437     1.0  0.77858  0.97566  0.48710  1.0000
  C   C3438     1.0  0.93038  0.68122  0.49878  1.0000
  H   H3446     1.0  0.82416  0.97206  0.51217  1.0000
  C   C3439     1.0  0.84482  0.96287  0.56034  1.0000
  C   C3440     1.0  0.92333  0.65630  0.52816  1.0000
  C   C3441     1.0  0.90718  0.69347  0.50297  1.0000
  C   C3442     1.0  0.97371  0.71494  0.55973  1.0000
  H   H3447     1.0  0.98310  0.77937  0.50599  1.0000
  H   H3448     1.0  0.91056  0.69902  0.50832  1.0000
  C   C3443     1.0  0.90790  0.80546  0.51701  1.0000
  C   C3444     1.0  0.97844  0.72529  0.56122  1.0000
  H   H3449     1.0  0.91100  0.79269  0.49017  1.0000
  C   C3445     1.0  0.92787  0.66551  0.56088  1.0000
  C   C3446     1.0  0.93658  0.65956  0.49336  1.0000
  C   C3447     1.0  0.97142  0.77151  0.52526  1.0000
  H   H3450     1.0  0.97845  0.83381  0.55228  1.0000
  H   H3451     1.0  0.81755  0.98502  0.49904  1.0000
  C   C3448     1.0  0.94084  0.66592  0.56035  1.0000
  C   C3449     1.0  0.98429  0.84138  0.54898  1.0000
  H   H3452     1.0  0.91230  0.83660  0.51196  1.0000
  H   H3453     1.0  0.97324  0.77820  0.53020  1.0000
  S   S1151     1.0  0.74204  0.90731  0.48416  1.0000
  C   C3450     1.0  0.85195  0.98256  0.52814  1.0000
  C   C3451     1.0  0.86198  0.97207  0.56249  1.0000
  C   C3452     1.0  0.97708  0.77216  0.51162  1.0000
  H   H3454     1.0  0.97683  0.67322  0.50095  1.0000
  H   H3455     1.0  0.97936  0.76381  0.49472  1.0000
  C   C3453     1.0  0.92519  0.65376  0.56008  1.0000
  C   C3454     1.0  0.84023  0.98581  0.56088  1.0000
  S   S1152     1.0  0.78395  0.98573  0.52188  1.0000
  C   C3455     1.0  0.91104  0.65276  0.53126  1.0000
  C   C3456     1.0  0.77040  0.96999  0.48323  1.0000
  H   H3456     1.0  0.74306  0.98512  0.48402  1.0000
